data_image0
_cell_length_a       15.951
_cell_length_b       7.8879
_cell_length_c       14.826
_cell_angle_alpha    90
_cell_angle_beta     90
_cell_angle_gamma    90

_symmetry_space_group_name_H-M    "P 1"
_symmetry_int_tables_number       1

loop_
  _symmetry_equiv_pos_as_xyz
  'x, y, z'

loop_
  _atom_site_label
  _atom_site_occupancy
  _atom_site_fract_x
  _atom_site_fract_y
  _atom_site_fract_z
  _atom_site_thermal_displace_type
  _atom_site_B_iso_or_equiv
  _atom_site_type_symbol
  Cu1      1.0000 0.64299  0.29023  0.61682  Biso   1.000  Cu
  Cu2      1.0000 0.35701  0.70977  0.11682  Biso   1.000  Cu
  Cu3      1.0000 0.14299  0.70977  0.61682  Biso   1.000  Cu
  Cu4      1.0000 0.85701  0.29023  0.11682  Biso   1.000  Cu
  Cu5      1.0000 0.59980  0.66107  0.72953  Biso   1.000  Cu
  Cu6      1.0000 0.40020  0.33893  0.22953  Biso   1.000  Cu
  Cu7      1.0000 0.09980  0.33893  0.72953  Biso   1.000  Cu
  Cu8      1.0000 0.90020  0.66107  0.22953  Biso   1.000  Cu
  N1       1.0000 0.59760  0.07840  0.57480  Biso   1.000  N
  N2       1.0000 0.40240  0.92160  0.07480  Biso   1.000  N
  N3       1.0000 0.09760  0.92160  0.57480  Biso   1.000  N
  N4       1.0000 0.90240  0.07840  0.07480  Biso   1.000  N
  N5       1.0000 0.60660  0.37090  0.49440  Biso   1.000  N
  N6       1.0000 0.39340  0.62910  0.99440  Biso   1.000  N
  N7       1.0000 0.10660  0.62910  0.49440  Biso   1.000  N
  N8       1.0000 0.89340  0.37090  0.99440  Biso   1.000  N
  H1       1.0000 0.58390  0.46250  0.50170  Biso   1.000  H
  H2       1.0000 0.41610  0.53750  0.00170  Biso   1.000  H
  H3       1.0000 0.08390  0.53750  0.50170  Biso   1.000  H
  H4       1.0000 0.91610  0.46250  0.00170  Biso   1.000  H
  H5       1.0000 0.65790  0.36430  0.44790  Biso   1.000  H
  H6       1.0000 0.34210  0.63570  0.94790  Biso   1.000  H
  H7       1.0000 0.15790  0.63570  0.44790  Biso   1.000  H
  H8       1.0000 0.84210  0.36430  0.94790  Biso   1.000  H
  N9       1.0000 0.64390  0.87210  0.77340  Biso   1.000  N
  N10      1.0000 0.35610  0.12790  0.27340  Biso   1.000  N
  N11      1.0000 0.14390  0.12790  0.77340  Biso   1.000  N
  N12      1.0000 0.85610  0.87210  0.27340  Biso   1.000  N
  N13      1.0000 0.64630  0.56780  0.84520  Biso   1.000  N
  N14      1.0000 0.35370  0.43220  0.34520  Biso   1.000  N
  N15      1.0000 0.14630  0.43220  0.84520  Biso   1.000  N
  N16      1.0000 0.85370  0.56780  0.34520  Biso   1.000  N
  H9       1.0000 0.60570  0.55940  0.88710  Biso   1.000  H
  H10      1.0000 0.39430  0.44060  0.38710  Biso   1.000  H
  H11      1.0000 0.10570  0.44060  0.88710  Biso   1.000  H
  H12      1.0000 0.89430  0.55940  0.38710  Biso   1.000  H
  H13      1.0000 0.66850  0.46430  0.83610  Biso   1.000  H
  H14      1.0000 0.33150  0.53570  0.33610  Biso   1.000  H
  H15      1.0000 0.16850  0.53570  0.83610  Biso   1.000  H
  H16      1.0000 0.83150  0.46430  0.33610  Biso   1.000  H
  O1       1.0000 0.66480  0.15230  0.73080  Biso   1.000  O
  O2       1.0000 0.33520  0.84770  0.23080  Biso   1.000  O
  O3       1.0000 0.16480  0.84770  0.73080  Biso   1.000  O
  O4       1.0000 0.83520  0.15230  0.23080  Biso   1.000  O
  O5       1.0000 0.57400  0.80020  0.61870  Biso   1.000  O
  O6       1.0000 0.42600  0.19980  0.11870  Biso   1.000  O
  O7       1.0000 0.07400  0.19980  0.61870  Biso   1.000  O
  O8       1.0000 0.92600  0.80020  0.11870  Biso   1.000  O
  O9       1.0000 0.81270  0.38570  0.57500  Biso   1.000  O
  O10      1.0000 0.18730  0.61430  0.07500  Biso   1.000  O
  O11      1.0000 0.31270  0.61430  0.57500  Biso   1.000  O
  O12      1.0000 0.68730  0.38570  0.07500  Biso   1.000  O
  O13      1.0000 0.70720  0.48980  0.65290  Biso   1.000  O
  O14      1.0000 0.29280  0.51020  0.15290  Biso   1.000  O
  O15      1.0000 0.20720  0.51020  0.65290  Biso   1.000  O
  O16      1.0000 0.79280  0.48980  0.15290  Biso   1.000  O
  O17      1.0000 0.92720  0.39340  0.74490  Biso   1.000  O
  O18      1.0000 0.07280  0.60660  0.24490  Biso   1.000  O
  O19      1.0000 0.42720  0.60660  0.74490  Biso   1.000  O
  O20      1.0000 0.57280  0.39340  0.24490  Biso   1.000  O
  O21      1.0000 0.03560  0.53580  0.69240  Biso   1.000  O
  O22      1.0000 0.96440  0.46420  0.19240  Biso   1.000  O
  O23      1.0000 0.53560  0.46420  0.69240  Biso   1.000  O
  O24      1.0000 0.46440  0.53580  0.19240  Biso   1.000  O
  C1       1.0000 0.63950  0.99760  0.71990  Biso   1.000  C
  C2       1.0000 0.36050  0.00240  0.21990  Biso   1.000  C
  C3       1.0000 0.13950  0.00240  0.71990  Biso   1.000  C
  C4       1.0000 0.86050  0.99760  0.21990  Biso   1.000  C
  C5       1.0000 0.59970  0.95170  0.62960  Biso   1.000  C
  C6       1.0000 0.40030  0.04830  0.12960  Biso   1.000  C
  C7       1.0000 0.09970  0.04830  0.62960  Biso   1.000  C
  C8       1.0000 0.90030  0.95170  0.12960  Biso   1.000  C
  C9       1.0000 0.56340  0.07390  0.48460  Biso   1.000  C
  C10      1.0000 0.43660  0.92610  0.98460  Biso   1.000  C
  C11      1.0000 0.06340  0.92610  0.48460  Biso   1.000  C
  C12      1.0000 0.93660  0.07390  0.98460  Biso   1.000  C
  H17      1.0000 0.52010  0.99880  0.48530  Biso   1.000  H
  H18      1.0000 0.47990  0.00120  0.98530  Biso   1.000  H
  H19      1.0000 0.02010  0.00120  0.48530  Biso   1.000  H
  H20      1.0000 0.97990  0.99880  0.98530  Biso   1.000  H
  H21      1.0000 0.59900  0.03980  0.45280  Biso   1.000  H
  H22      1.0000 0.40100  0.96020  0.95280  Biso   1.000  H
  H23      1.0000 0.09900  0.96020  0.45280  Biso   1.000  H
  H24      1.0000 0.90100  0.03980  0.95280  Biso   1.000  H
  C13      1.0000 0.53810  0.25360  0.46260  Biso   1.000  C
  C14      1.0000 0.46190  0.74640  0.96260  Biso   1.000  C
  C15      1.0000 0.03810  0.74640  0.46260  Biso   1.000  C
  C16      1.0000 0.96190  0.25360  0.96260  Biso   1.000  C
  H25      1.0000 0.51950  0.28650  0.41000  Biso   1.000  H
  H26      1.0000 0.48050  0.71350  0.91000  Biso   1.000  H
  H27      1.0000 0.01950  0.71350  0.41000  Biso   1.000  H
  H28      1.0000 0.98050  0.28650  0.91000  Biso   1.000  H
  H29      1.0000 0.48120  0.27110  0.49790  Biso   1.000  H
  H30      1.0000 0.51880  0.72890  0.99790  Biso   1.000  H
  H31      1.0000 0.98120  0.72890  0.49790  Biso   1.000  H
  H32      1.0000 0.01880  0.27110  0.99790  Biso   1.000  H
  C17      1.0000 0.68340  0.86720  0.86310  Biso   1.000  C
  C18      1.0000 0.31660  0.13280  0.36310  Biso   1.000  C
  C19      1.0000 0.18340  0.13280  0.86310  Biso   1.000  C
  C20      1.0000 0.81660  0.86720  0.36310  Biso   1.000  C
  H33      1.0000 0.72800  0.93150  0.86070  Biso   1.000  H
  H34      1.0000 0.27200  0.06850  0.36070  Biso   1.000  H
  H35      1.0000 0.22800  0.06850  0.86070  Biso   1.000  H
  H36      1.0000 0.77200  0.93150  0.36070  Biso   1.000  H
  H37      1.0000 0.63850  0.91940  0.91910  Biso   1.000  H
  H38      1.0000 0.36150  0.08060  0.41910  Biso   1.000  H
  H39      1.0000 0.13850  0.08060  0.91910  Biso   1.000  H
  H40      1.0000 0.86150  0.91940  0.41910  Biso   1.000  H
  C21      1.0000 0.71200  0.68860  0.87520  Biso   1.000  C
  C22      1.0000 0.28800  0.31140  0.37520  Biso   1.000  C
  C23      1.0000 0.21200  0.31140  0.87520  Biso   1.000  C
  C24      1.0000 0.78800  0.68860  0.37520  Biso   1.000  C
  H41      1.0000 0.77280  0.68270  0.82810  Biso   1.000  H
  H42      1.0000 0.22720  0.31730  0.32810  Biso   1.000  H
  H43      1.0000 0.27280  0.31730  0.82810  Biso   1.000  H
  H44      1.0000 0.72720  0.68270  0.32810  Biso   1.000  H
  H45      1.0000 0.72550  0.67090  0.92960  Biso   1.000  H
  H46      1.0000 0.27450  0.32910  0.42960  Biso   1.000  H
  H47      1.0000 0.22550  0.32910  0.92960  Biso   1.000  H
  H48      1.0000 0.77450  0.67090  0.42960  Biso   1.000  H
  C25      1.0000 0.78200  0.49810  0.62140  Biso   1.000  C
  C26      1.0000 0.21800  0.50190  0.12140  Biso   1.000  C
  C27      1.0000 0.28200  0.50190  0.62140  Biso   1.000  C
  C28      1.0000 0.71800  0.49810  0.12140  Biso   1.000  C
  C29      1.0000 0.82820  0.66140  0.64150  Biso   1.000  C
  C30      1.0000 0.17180  0.33860  0.14150  Biso   1.000  C
  C31      1.0000 0.32820  0.33860  0.64150  Biso   1.000  C
  C32      1.0000 0.67180  0.66140  0.14150  Biso   1.000  C
  C33      1.0000 0.79000  0.81050  0.61200  Biso   1.000  C
  C34      1.0000 0.21000  0.18950  0.11200  Biso   1.000  C
  C35      1.0000 0.29000  0.18950  0.61200  Biso   1.000  C
  C36      1.0000 0.71000  0.81050  0.11200  Biso   1.000  C
  H49      1.0000 0.74000  0.80730  0.58710  Biso   1.000  H
  H50      1.0000 0.26000  0.19270  0.08710  Biso   1.000  H
  H51      1.0000 0.24000  0.19270  0.58710  Biso   1.000  H
  H52      1.0000 0.76000  0.80730  0.08710  Biso   1.000  H
  C37      1.0000 0.82470  0.96610  0.62790  Biso   1.000  C
  C38      1.0000 0.17530  0.03390  0.12790  Biso   1.000  C
  C39      1.0000 0.32470  0.03390  0.62790  Biso   1.000  C
  C40      1.0000 0.67530  0.96610  0.12790  Biso   1.000  C
  H53      1.0000 0.79970  0.06340  0.60490  Biso   1.000  H
  H54      1.0000 0.20030  0.93660  0.10490  Biso   1.000  H
  H55      1.0000 0.29970  0.93660  0.60490  Biso   1.000  H
  H56      1.0000 0.70030  0.06340  0.10490  Biso   1.000  H
  C41      1.0000 0.89650  0.97730  0.67790  Biso   1.000  C
  C42      1.0000 0.10350  0.02270  0.17790  Biso   1.000  C
  C43      1.0000 0.39650  0.02270  0.67790  Biso   1.000  C
  C44      1.0000 0.60350  0.97730  0.17790  Biso   1.000  C
  H57      1.0000 0.92080  0.04920  0.69440  Biso   1.000  H
  H58      1.0000 0.07920  0.95080  0.19440  Biso   1.000  H
  H59      1.0000 0.42080  0.95080  0.69440  Biso   1.000  H
  H60      1.0000 0.57920  0.04920  0.19440  Biso   1.000  H
  C45      1.0000 0.93650  0.83110  0.70330  Biso   1.000  C
  C46      1.0000 0.06350  0.16890  0.20330  Biso   1.000  C
  C47      1.0000 0.43650  0.16890  0.70330  Biso   1.000  C
  C48      1.0000 0.56350  0.83110  0.20330  Biso   1.000  C
  H61      1.0000 0.96470  0.83010  0.72790  Biso   1.000  H
  H62      1.0000 0.03530  0.16990  0.22790  Biso   1.000  H
  H63      1.0000 0.46470  0.16990  0.72790  Biso   1.000  H
  H64      1.0000 0.53530  0.83010  0.22790  Biso   1.000  H
  C49      1.0000 0.90590  0.67210  0.68510  Biso   1.000  C
  C50      1.0000 0.09410  0.32790  0.18510  Biso   1.000  C
  C51      1.0000 0.40590  0.32790  0.68510  Biso   1.000  C
  C52      1.0000 0.59410  0.67210  0.18510  Biso   1.000  C
  C53      1.0000 0.95690  0.52080  0.70990  Biso   1.000  C
  C54      1.0000 0.04310  0.47920  0.20990  Biso   1.000  C
  C55      1.0000 0.45690  0.47920  0.70990  Biso   1.000  C
  C56      1.0000 0.54310  0.52080  0.20990  Biso   1.000  C
  O25      1.0000 0.78690  0.29650  0.83830  Biso   1.000  O
  O26      1.0000 0.21310  0.70350  0.33830  Biso   1.000  O
  O27      1.0000 0.28690  0.70350  0.83830  Biso   1.000  O
  O28      1.0000 0.71310  0.29650  0.33830  Biso   1.000  O
  O29      1.0000 0.96560  0.35230  0.48740  Biso   1.000  O
  O30      1.0000 0.03440  0.64770  0.98740  Biso   1.000  O
  O31      1.0000 0.46560  0.64770  0.48740  Biso   1.000  O
  O32      1.0000 0.53440  0.35230  0.98740  Biso   1.000  O
  H65      1.0000 0.99910  0.28880  0.53020  Biso   1.000  H
  H66      1.0000 0.00090  0.71120  0.03020  Biso   1.000  H
  H67      1.0000 0.49910  0.71120  0.53020  Biso   1.000  H
  H68      1.0000 0.50090  0.28880  0.03020  Biso   1.000  H
  H69      1.0000 0.91790  0.36610  0.50960  Biso   1.000  H
  H70      1.0000 0.08210  0.63390  0.00960  Biso   1.000  H
  H71      1.0000 0.41790  0.63390  0.50960  Biso   1.000  H
  H72      1.0000 0.58210  0.36610  0.00960  Biso   1.000  H
