data_image0
_cell_length_a       9.38
_cell_length_b       20.613
_cell_length_c       12.093
_cell_angle_alpha    90
_cell_angle_beta     104.27
_cell_angle_gamma    90

_symmetry_space_group_name_H-M    "P 1"
_symmetry_int_tables_number       1

loop_
  _symmetry_equiv_pos_as_xyz
  'x, y, z'

loop_
  _atom_site_label
  _atom_site_occupancy
  _atom_site_fract_x
  _atom_site_fract_y
  _atom_site_fract_z
  _atom_site_thermal_displace_type
  _atom_site_B_iso_or_equiv
  _atom_site_type_symbol
  Cu1      1.0000 0.87609  0.69510  0.12843  Biso   1.000  Cu
  Cu2      1.0000 0.12391  0.19510  0.87157  Biso   1.000  Cu
  Cu3      1.0000 0.37038  0.75323  0.01788  Biso   1.000  Cu
  Cu4      1.0000 0.62962  0.25323  0.98212  Biso   1.000  Cu
  Cu5      1.0000 0.36285  0.69163  0.58405  Biso   1.000  Cu
  Cu6      1.0000 0.63715  0.19163  0.41595  Biso   1.000  Cu
  Cu7      1.0000 0.89103  0.75754  0.56070  Biso   1.000  Cu
  Cu8      1.0000 0.10897  0.25754  0.43930  Biso   1.000  Cu
  O1       1.0000 0.78680  0.74510  0.23510  Biso   1.000  O
  O2       1.0000 0.21320  0.24510  0.76490  Biso   1.000  O
  O3       1.0000 0.55160  0.71600  0.17210  Biso   1.000  O
  O4       1.0000 0.44840  0.21600  0.82790  Biso   1.000  O
  O5       1.0000 0.24360  0.77600  0.44190  Biso   1.000  O
  O6       1.0000 0.75640  0.27600  0.55810  Biso   1.000  O
  O7       1.0000 0.24160  0.88130  0.48460  Biso   1.000  O
  O8       1.0000 0.75840  0.38130  0.51540  Biso   1.000  O
  O9       1.0000 0.69580  0.73470  0.97270  Biso   1.000  O
  O10      1.0000 0.30420  0.23470  0.02730  Biso   1.000  O
  O11      1.0000 0.46130  0.70360  0.91080  Biso   1.000  O
  O12      1.0000 0.53870  0.20360  0.08920  Biso   1.000  O
  O13      1.0000 0.03530  0.57150  0.68540  Biso   1.000  O
  O14      1.0000 0.96470  0.07150  0.31460  Biso   1.000  O
  O15      1.0000 0.00940  0.67710  0.70660  Biso   1.000  O
  O16      1.0000 0.99060  0.17710  0.29340  Biso   1.000  O
  O17      1.0000 0.24820  0.67530  0.02390  Biso   1.000  O
  O18      1.0000 0.75180  0.17530  0.97610  Biso   1.000  O
  O19      1.0000 0.99700  0.77340  0.12100  Biso   1.000  O
  O20      1.0000 0.00300  0.27340  0.87900  Biso   1.000  O
  O21      1.0000 0.74230  0.69140  0.49090  Biso   1.000  O
  O22      1.0000 0.25770  0.19140  0.50910  Biso   1.000  O
  O23      1.0000 0.51350  0.75620  0.65440  Biso   1.000  O
  O24      1.0000 0.48650  0.25620  0.34560  Biso   1.000  O
  O25      1.0000 0.26720  0.71220  0.70720  Biso   1.000  O
  O26      1.0000 0.73280  0.21220  0.29280  Biso   1.000  O
  O27      1.0000 0.98640  0.73730  0.43670  Biso   1.000  O
  O28      1.0000 0.01360  0.23730  0.56330  Biso   1.000  O
  N1       1.0000 0.77070  0.61450  0.15070  Biso   1.000  N
  N2       1.0000 0.22930  0.11450  0.84930  Biso   1.000  N
  H1       1.0000 0.78770  0.60780  0.22640  Biso   1.000  H
  H2       1.0000 0.21230  0.10780  0.77360  Biso   1.000  H
  H3       1.0000 0.67380  0.62240  0.12500  Biso   1.000  H
  H4       1.0000 0.32620  0.12240  0.87500  Biso   1.000  H
  N3       1.0000 0.03270  0.65040  0.07580  Biso   1.000  N
  N4       1.0000 0.96730  0.15040  0.92420  Biso   1.000  N
  N5       1.0000 0.21570  0.79750  0.07450  Biso   1.000  N
  N6       1.0000 0.78430  0.29750  0.92550  Biso   1.000  N
  N7       1.0000 0.46910  0.83440  0.99080  Biso   1.000  N
  N8       1.0000 0.53090  0.33440  0.00920  Biso   1.000  N
  H5       1.0000 0.56680  0.82800  0.01460  Biso   1.000  H
  H6       1.0000 0.43320  0.32800  0.98540  Biso   1.000  H
  H7       1.0000 0.44840  0.84100  0.91490  Biso   1.000  H
  H8       1.0000 0.55160  0.34100  0.08510  Biso   1.000  H
  N9       1.0000 0.21080  0.62600  0.51850  Biso   1.000  N
  N10      1.0000 0.78920  0.12600  0.48150  Biso   1.000  N
  H9       1.0000 0.18060  0.60750  0.57630  Biso   1.000  H
  H10      1.0000 0.81940  0.10750  0.42370  Biso   1.000  H
  H11      1.0000 0.13300  0.64670  0.47430  Biso   1.000  H
  H12      1.0000 0.86700  0.14670  0.52570  Biso   1.000  H
  N11      1.0000 0.50440  0.66580  0.50000  Biso   1.000  N
  N12      1.0000 0.49560  0.16580  0.50000  Biso   1.000  N
  N13      1.0000 0.74860  0.78290  0.64500  Biso   1.000  N
  N14      1.0000 0.25140  0.28290  0.35500  Biso   1.000  N
  N15      1.0000 0.04300  0.82410  0.62830  Biso   1.000  N
  N16      1.0000 0.95700  0.32410  0.37170  Biso   1.000  N
  H13      1.0000 0.12240  0.80280  0.66920  Biso   1.000  H
  H14      1.0000 0.87760  0.30280  0.33080  Biso   1.000  H
  H15      1.0000 0.07020  0.84380  0.57030  Biso   1.000  H
  H16      1.0000 0.92980  0.34380  0.42970  Biso   1.000  H
  C1       1.0000 0.64970  0.74940  0.23150  Biso   1.000  C
  C2       1.0000 0.35030  0.24940  0.76850  Biso   1.000  C
  C3       1.0000 0.60880  0.80070  0.30830  Biso   1.000  C
  C4       1.0000 0.39120  0.30070  0.69170  Biso   1.000  C
  C5       1.0000 0.70240  0.85310  0.34720  Biso   1.000  C
  C6       1.0000 0.29760  0.35310  0.65280  Biso   1.000  C
  H17      1.0000 0.79200  0.85610  0.32750  Biso   1.000  H
  H18      1.0000 0.20800  0.35610  0.67250  Biso   1.000  H
  C7       1.0000 0.66310  0.89990  0.41390  Biso   1.000  C
  C8       1.0000 0.33690  0.39990  0.58610  Biso   1.000  C
  H19      1.0000 0.72480  0.93500  0.43870  Biso   1.000  H
  H20      1.0000 0.27520  0.43500  0.56130  Biso   1.000  H
  C9       1.0000 0.52910  0.89450  0.44490  Biso   1.000  C
  C10      1.0000 0.47090  0.39450  0.55510  Biso   1.000  C
  H21      1.0000 0.50090  0.92650  0.48950  Biso   1.000  H
  H22      1.0000 0.49910  0.42650  0.51050  Biso   1.000  H
  C11      1.0000 0.43800  0.84120  0.40890  Biso   1.000  C
  C12      1.0000 0.56200  0.34120  0.59110  Biso   1.000  C
  C13      1.0000 0.47710  0.79550  0.33860  Biso   1.000  C
  C14      1.0000 0.52290  0.29550  0.66140  Biso   1.000  C
  H23      1.0000 0.41440  0.76100  0.31150  Biso   1.000  H
  H24      1.0000 0.58560  0.26100  0.68850  Biso   1.000  H
  C15      1.0000 0.29580  0.83280  0.44640  Biso   1.000  C
  C16      1.0000 0.70420  0.33280  0.55360  Biso   1.000  C
  C17      1.0000 0.60050  0.69910  0.91380  Biso   1.000  C
  C18      1.0000 0.39950  0.19910  0.08620  Biso   1.000  C
  C19      1.0000 0.64240  0.64940  0.84010  Biso   1.000  C
  C20      1.0000 0.35760  0.14940  0.15990  Biso   1.000  C
  C21      1.0000 0.55410  0.59480  0.79820  Biso   1.000  C
  C22      1.0000 0.44590  0.09480  0.20180  Biso   1.000  C
  H25      1.0000 0.46270  0.59030  0.81440  Biso   1.000  H
  H26      1.0000 0.53730  0.09030  0.18560  Biso   1.000  H
  C23      1.0000 0.60060  0.54930  0.73510  Biso   1.000  C
  C24      1.0000 0.39940  0.04930  0.26490  Biso   1.000  C
  H27      1.0000 0.54090  0.51370  0.70920  Biso   1.000  H
  H28      1.0000 0.45910  0.01370  0.29080  Biso   1.000  H
  C25      1.0000 0.73760  0.55450  0.70760  Biso   1.000  C
  C26      1.0000 0.26240  0.05450  0.29240  Biso   1.000  C
  H29      1.0000 0.76990  0.52190  0.66660  Biso   1.000  H
  H30      1.0000 0.23010  0.02190  0.33340  Biso   1.000  H
  C27      1.0000 0.82420  0.60950  0.74310  Biso   1.000  C
  C28      1.0000 0.17580  0.10950  0.25690  Biso   1.000  C
  C29      1.0000 0.77670  0.65500  0.80930  Biso   1.000  C
  C30      1.0000 0.22330  0.15500  0.19070  Biso   1.000  C
  H31      1.0000 0.83590  0.69080  0.83470  Biso   1.000  H
  H32      1.0000 0.16410  0.19080  0.16530  Biso   1.000  H
  C31      1.0000 0.96820  0.61940  0.70830  Biso   1.000  C
  C32      1.0000 0.03180  0.11940  0.29170  Biso   1.000  C
  C33      1.0000 0.80150  0.55360  0.09930  Biso   1.000  C
  C34      1.0000 0.19850  0.05360  0.90070  Biso   1.000  C
  H33      1.0000 0.76140  0.55570  0.01740  Biso   1.000  H
  H34      1.0000 0.23860  0.05570  0.98260  Biso   1.000  H
  H35      1.0000 0.75300  0.51830  0.12860  Biso   1.000  H
  H36      1.0000 0.24700  0.01830  0.87140  Biso   1.000  H
  C35      1.0000 0.96090  0.54020  0.12360  Biso   1.000  C
  C36      1.0000 0.03910  0.04020  0.87640  Biso   1.000  C
  H37      1.0000 0.97480  0.49460  0.10930  Biso   1.000  H
  H38      1.0000 0.02520  0.99460  0.89070  Biso   1.000  H
  H39      1.0000 0.00420  0.54820  0.20390  Biso   1.000  H
  H40      1.0000 0.99580  0.04820  0.79610  Biso   1.000  H
  C37      1.0000 0.04340  0.58040  0.05350  Biso   1.000  C
  C38      1.0000 0.95660  0.08040  0.94650  Biso   1.000  C
  H41      1.0000 0.14600  0.56760  0.07240  Biso   1.000  H
  H42      1.0000 0.85400  0.06760  0.92760  Biso   1.000  H
  H43      1.0000 0.00270  0.57190  0.97300  Biso   1.000  H
  H44      1.0000 0.99730  0.07190  0.02700  Biso   1.000  H
  C39      1.0000 0.13510  0.68930  0.05880  Biso   1.000  C
  C40      1.0000 0.86490  0.18930  0.94120  Biso   1.000  C
  C41      1.0000 0.11150  0.75970  0.08680  Biso   1.000  C
  C42      1.0000 0.88850  0.25970  0.91320  Biso   1.000  C
  C43      1.0000 0.20610  0.86610  0.10180  Biso   1.000  C
  C44      1.0000 0.79390  0.36610  0.89820  Biso   1.000  C
  H45      1.0000 0.23960  0.87170  0.18370  Biso   1.000  H
  H46      1.0000 0.76040  0.37170  0.81630  Biso   1.000  H
  H47      1.0000 0.10400  0.87960  0.07890  Biso   1.000  H
  H48      1.0000 0.89600  0.37960  0.92110  Biso   1.000  H
  C45      1.0000 0.29360  0.90780  0.04550  Biso   1.000  C
  C46      1.0000 0.70640  0.40780  0.95450  Biso   1.000  C
  H49      1.0000 0.23920  0.91140  0.96640  Biso   1.000  H
  H50      1.0000 0.76080  0.41140  0.03360  Biso   1.000  H
  H51      1.0000 0.29360  0.95060  0.07880  Biso   1.000  H
  H52      1.0000 0.70640  0.45060  0.92120  Biso   1.000  H
  C47      1.0000 0.43360  0.89480  0.04450  Biso   1.000  C
  C48      1.0000 0.56640  0.39480  0.95550  Biso   1.000  C
  H53      1.0000 0.49090  0.89480  0.12310  Biso   1.000  H
  H54      1.0000 0.50910  0.39480  0.87690  Biso   1.000  H
  H55      1.0000 0.46870  0.93080  0.00680  Biso   1.000  H
  H56      1.0000 0.53130  0.43080  0.99320  Biso   1.000  H
  C49      1.0000 0.25430  0.57400  0.45060  Biso   1.000  C
  C50      1.0000 0.74570  0.07400  0.54940  Biso   1.000  C
  H57      1.0000 0.31860  0.54420  0.50180  Biso   1.000  H
  H58      1.0000 0.68140  0.04420  0.49820  Biso   1.000  H
  H59      1.0000 0.16700  0.55010  0.41230  Biso   1.000  H
  H60      1.0000 0.83300  0.05010  0.58770  Biso   1.000  H
  C51      1.0000 0.32950  0.59650  0.36470  Biso   1.000  C
  C52      1.0000 0.67050  0.09650  0.63530  Biso   1.000  C
  H61      1.0000 0.27650  0.63360  0.32560  Biso   1.000  H
  H62      1.0000 0.72350  0.13360  0.67440  Biso   1.000  H
  H63      1.0000 0.32450  0.56230  0.30870  Biso   1.000  H
  H64      1.0000 0.67550  0.06230  0.69130  Biso   1.000  H
  C53      1.0000 0.48940  0.61550  0.41060  Biso   1.000  C
  C54      1.0000 0.51060  0.11550  0.58940  Biso   1.000  C
  H65      1.0000 0.54630  0.57760  0.44220  Biso   1.000  H
  H66      1.0000 0.45370  0.07760  0.55780  Biso   1.000  H
  H67      1.0000 0.52830  0.63190  0.34880  Biso   1.000  H
  H68      1.0000 0.47170  0.13190  0.65120  Biso   1.000  H
  C55      1.0000 0.62670  0.69840  0.52960  Biso   1.000  C
  C56      1.0000 0.37330  0.19840  0.47040  Biso   1.000  C
  C57      1.0000 0.62840  0.74990  0.61660  Biso   1.000  C
  C58      1.0000 0.37160  0.24990  0.38340  Biso   1.000  C
  C59      1.0000 0.76480  0.83260  0.73510  Biso   1.000  C
  C60      1.0000 0.23520  0.33260  0.26490  Biso   1.000  C
  H69      1.0000 0.72060  0.81690  0.79460  Biso   1.000  H
  H70      1.0000 0.27940  0.31690  0.20540  Biso   1.000  H
  H71      1.0000 0.71310  0.87170  0.70320  Biso   1.000  H
  H72      1.0000 0.28690  0.37170  0.29680  Biso   1.000  H
  C61      1.0000 0.92550  0.84850  0.78650  Biso   1.000  C
  C62      1.0000 0.07450  0.34850  0.21350  Biso   1.000  C
  H73      1.0000 0.97520  0.80960  0.82090  Biso   1.000  H
  H74      1.0000 0.02480  0.30960  0.17910  Biso   1.000  H
  H75      1.0000 0.93140  0.88020  0.84680  Biso   1.000  H
  H76      1.0000 0.06860  0.38020  0.15320  Biso   1.000  H
  C63      1.0000 0.00600  0.87500  0.70160  Biso   1.000  C
  C64      1.0000 0.99400  0.37500  0.29840  Biso   1.000  C
  H77      1.0000 0.94490  0.90740  0.65420  Biso   1.000  H
  H78      1.0000 0.05510  0.40740  0.34580  Biso   1.000  H
  H79      1.0000 0.09580  0.89610  0.74290  Biso   1.000  H
  H80      1.0000 0.90420  0.39610  0.25710  Biso   1.000  H
  O29      1.0000 0.86040  0.58300  0.39490  Biso   1.000  O
  O30      1.0000 0.13960  0.08300  0.60510  Biso   1.000  O
  O31      1.0000 0.40470  0.87040  0.73620  Biso   1.000  O
  O32      1.0000 0.59530  0.37040  0.26380  Biso   1.000  O
  O33      1.0000 0.43410  0.56340  0.03930  Biso   1.000  O
  O34      1.0000 0.56590  0.06340  0.96070  Biso   1.000  O
  O35      1.0000 0.97450  0.47270  0.52800  Biso   1.000  O
  O36      1.0000 0.02550  0.97270  0.47200  Biso   1.000  O
  O37      1.0000 0.65160  0.95970  0.84890  Biso   1.000  O
  O38      1.0000 0.34840  0.45970  0.15110  Biso   1.000  O
  O39      1.0000 0.79810  0.88460  0.05420  Biso   1.000  O
  O40      1.0000 0.20190  0.38460  0.94580  Biso   1.000  O
  O41      1.0000 0.25790  0.49980  0.83730  Biso   1.000  O
  O42      1.0000 0.74210  0.99980  0.16270  Biso   1.000  O
