data_image0
_cell_length_a       7.7373
_cell_length_b       14.014
_cell_length_c       9.1101
_cell_angle_alpha    90
_cell_angle_beta     110.472
_cell_angle_gamma    90

_symmetry_space_group_name_H-M    "P 1"
_symmetry_int_tables_number       1

loop_
  _symmetry_equiv_pos_as_xyz
  'x, y, z'

loop_
  _atom_site_label
  _atom_site_occupancy
  _atom_site_fract_x
  _atom_site_fract_y
  _atom_site_fract_z
  _atom_site_thermal_displace_type
  _atom_site_B_iso_or_equiv
  _atom_site_type_symbol
  Cu1      1.0000 0.33270  0.06292  0.03275  Biso   1.000  Cu
  Cu2      1.0000 0.33270  0.43708  0.53275  Biso   1.000  Cu
  Cu3      1.0000 0.66730  0.93708  0.96725  Biso   1.000  Cu
  Cu4      1.0000 0.66730  0.56292  0.46725  Biso   1.000  Cu
  N1       1.0000 0.08070  0.10358  0.94490  Biso   1.000  N
  N2       1.0000 0.08070  0.39642  0.44490  Biso   1.000  N
  N3       1.0000 0.91930  0.89642  0.05510  Biso   1.000  N
  N4       1.0000 0.91930  0.60358  0.55510  Biso   1.000  N
  N5       1.0000 0.38280  0.18450  0.93800  Biso   1.000  N
  N6       1.0000 0.38280  0.31550  0.43800  Biso   1.000  N
  N7       1.0000 0.61720  0.81550  0.06200  Biso   1.000  N
  N8       1.0000 0.61720  0.68450  0.56200  Biso   1.000  N
  H1       1.0000 0.46990  0.17410  0.90030  Biso   1.000  H
  H2       1.0000 0.46990  0.32590  0.40030  Biso   1.000  H
  H3       1.0000 0.53010  0.82590  0.09970  Biso   1.000  H
  H4       1.0000 0.53010  0.67410  0.59970  Biso   1.000  H
  H5       1.0000 0.43250  0.22590  0.01670  Biso   1.000  H
  H6       1.0000 0.43250  0.27410  0.51670  Biso   1.000  H
  H7       1.0000 0.56750  0.77410  0.98330  Biso   1.000  H
  H8       1.0000 0.56750  0.72590  0.48330  Biso   1.000  H
  C1       1.0000 0.95750  0.04547  0.95520  Biso   1.000  C
  C2       1.0000 0.95750  0.45453  0.45520  Biso   1.000  C
  C3       1.0000 0.04250  0.95453  0.04480  Biso   1.000  C
  C4       1.0000 0.04250  0.54547  0.54480  Biso   1.000  C
  C5       1.0000 0.04690  0.19560  0.86390  Biso   1.000  C
  C6       1.0000 0.04690  0.30440  0.36390  Biso   1.000  C
  C7       1.0000 0.95310  0.80440  0.13610  Biso   1.000  C
  C8       1.0000 0.95310  0.69560  0.63610  Biso   1.000  C
  H9       1.0000 0.93230  0.20080  0.78450  Biso   1.000  H
  H10      1.0000 0.93230  0.29920  0.28450  Biso   1.000  H
  H11      1.0000 0.06770  0.79920  0.21550  Biso   1.000  H
  H12      1.0000 0.06770  0.70080  0.71550  Biso   1.000  H
  H13      1.0000 0.03550  0.25790  0.94350  Biso   1.000  H
  H14      1.0000 0.03550  0.24210  0.44350  Biso   1.000  H
  H15      1.0000 0.96450  0.74210  0.05650  Biso   1.000  H
  H16      1.0000 0.96450  0.75790  0.55650  Biso   1.000  H
  C9       1.0000 0.21090  0.21620  0.81870  Biso   1.000  C
  C10      1.0000 0.21090  0.28380  0.31870  Biso   1.000  C
  C11      1.0000 0.78910  0.78380  0.18130  Biso   1.000  C
  C12      1.0000 0.78910  0.71620  0.68130  Biso   1.000  C
  H17      1.0000 0.19620  0.18440  0.72050  Biso   1.000  H
  H18      1.0000 0.19620  0.31560  0.22050  Biso   1.000  H
  H19      1.0000 0.80380  0.81560  0.27950  Biso   1.000  H
  H20      1.0000 0.80380  0.68440  0.77950  Biso   1.000  H
  H21      1.0000 0.21760  0.28430  0.80250  Biso   1.000  H
  H22      1.0000 0.21760  0.21570  0.30250  Biso   1.000  H
  H23      1.0000 0.78240  0.71570  0.19750  Biso   1.000  H
  H24      1.0000 0.78240  0.78430  0.69750  Biso   1.000  H
  C13      1.0000 0.62810  0.04960  0.30100  Biso   1.000  C
  C14      1.0000 0.62810  0.45040  0.80100  Biso   1.000  C
  C15      1.0000 0.37190  0.95040  0.69900  Biso   1.000  C
  C16      1.0000 0.37190  0.54960  0.19900  Biso   1.000  C
  C17      1.0000 0.82120  0.02470  0.40490  Biso   1.000  C
  C18      1.0000 0.82120  0.47530  0.90490  Biso   1.000  C
  C19      1.0000 0.17880  0.97530  0.59510  Biso   1.000  C
  C20      1.0000 0.17880  0.52470  0.09510  Biso   1.000  C
  C21      1.0000 0.85310  0.98380  0.55150  Biso   1.000  C
  C22      1.0000 0.85310  0.51620  0.05150  Biso   1.000  C
  C23      1.0000 0.14690  0.01620  0.44850  Biso   1.000  C
  C24      1.0000 0.14690  0.48380  0.94850  Biso   1.000  C
  H25      1.0000 0.76140  0.97330  0.58640  Biso   1.000  H
  H26      1.0000 0.76140  0.52670  0.08640  Biso   1.000  H
  H27      1.0000 0.23860  0.02670  0.41360  Biso   1.000  H
  H28      1.0000 0.23860  0.47330  0.91360  Biso   1.000  H
  C25      1.0000 0.96910  0.04120  0.35510  Biso   1.000  C
  C26      1.0000 0.96910  0.45880  0.85510  Biso   1.000  C
  C27      1.0000 0.03090  0.95880  0.64490  Biso   1.000  C
  C28      1.0000 0.03090  0.54120  0.14490  Biso   1.000  C
  H29      1.0000 0.95390  0.07480  0.25910  Biso   1.000  H
  H30      1.0000 0.95390  0.42520  0.75910  Biso   1.000  H
  H31      1.0000 0.04610  0.92520  0.74090  Biso   1.000  H
  H32      1.0000 0.04610  0.57480  0.24090  Biso   1.000  H
  O1       1.0000 0.78200  0.05350  0.90540  Biso   1.000  O
  O2       1.0000 0.78200  0.44650  0.40540  Biso   1.000  O
  O3       1.0000 0.21800  0.94650  0.09460  Biso   1.000  O
  O4       1.0000 0.21800  0.55350  0.59460  Biso   1.000  O
  O5       1.0000 0.45250  0.84390  0.35140  Biso   1.000  O
  O6       1.0000 0.45250  0.65610  0.85140  Biso   1.000  O
  O7       1.0000 0.54750  0.15610  0.64860  Biso   1.000  O
  O8       1.0000 0.54750  0.34390  0.14860  Biso   1.000  O
  H33      1.0000 0.44880  0.86940  0.42470  Biso   1.000  H
  H34      1.0000 0.44880  0.63060  0.92470  Biso   1.000  H
  H35      1.0000 0.55120  0.13060  0.57530  Biso   1.000  H
  H36      1.0000 0.55120  0.36940  0.07530  Biso   1.000  H
  H37      1.0000 0.39040  0.87120  0.28840  Biso   1.000  H
  H38      1.0000 0.39040  0.62880  0.78840  Biso   1.000  H
  H39      1.0000 0.60960  0.12880  0.71160  Biso   1.000  H
  H40      1.0000 0.60960  0.37120  0.21160  Biso   1.000  H
  O9       1.0000 0.58780  0.03117  0.15460  Biso   1.000  O
  O10      1.0000 0.58780  0.46883  0.65460  Biso   1.000  O
  O11      1.0000 0.41220  0.96883  0.84540  Biso   1.000  O
  O12      1.0000 0.41220  0.53117  0.34540  Biso   1.000  O
  O13      1.0000 0.51770  0.08484  0.35540  Biso   1.000  O
  O14      1.0000 0.51770  0.41516  0.85540  Biso   1.000  O
  O15      1.0000 0.48230  0.91516  0.64460  Biso   1.000  O
  O16      1.0000 0.48230  0.58484  0.14460  Biso   1.000  O
