data_image0
_cell_length_a       10.123
_cell_length_b       11.812
_cell_length_c       10.264
_cell_angle_alpha    90
_cell_angle_beta     94.122
_cell_angle_gamma    90

_symmetry_space_group_name_H-M    "P 1"
_symmetry_int_tables_number       1

loop_
  _symmetry_equiv_pos_as_xyz
  'x, y, z'

loop_
  _atom_site_label
  _atom_site_occupancy
  _atom_site_fract_x
  _atom_site_fract_y
  _atom_site_fract_z
  _atom_site_thermal_displace_type
  _atom_site_B_iso_or_equiv
  _atom_site_type_symbol
  Cu1      1.0000 0.53293  0.44688  0.14711  Biso   1.000  Cu
  Cu2      1.0000 0.46707  0.94688  0.35289  Biso   1.000  Cu
  Cu3      1.0000 0.46707  0.55312  0.85289  Biso   1.000  Cu
  Cu4      1.0000 0.53293  0.05312  0.64711  Biso   1.000  Cu
  N1       1.0000 0.50180  0.53780  0.29570  Biso   1.000  N
  N2       1.0000 0.49820  0.03780  0.20430  Biso   1.000  N
  N3       1.0000 0.49820  0.46220  0.70430  Biso   1.000  N
  N4       1.0000 0.50180  0.96220  0.79570  Biso   1.000  N
  N5       1.0000 0.58870  0.35550  0.00480  Biso   1.000  N
  N6       1.0000 0.41130  0.85550  0.49520  Biso   1.000  N
  N7       1.0000 0.41130  0.64450  0.99520  Biso   1.000  N
  N8       1.0000 0.58870  0.14450  0.50480  Biso   1.000  N
  O1       1.0000 0.35420  0.39780  0.11870  Biso   1.000  O
  O2       1.0000 0.64580  0.89780  0.38130  Biso   1.000  O
  O3       1.0000 0.64580  0.60220  0.88130  Biso   1.000  O
  O4       1.0000 0.35420  0.10220  0.61870  Biso   1.000  O
  O5       1.0000 0.69580  0.54740  0.14260  Biso   1.000  O
  O6       1.0000 0.30420  0.04740  0.35740  Biso   1.000  O
  O7       1.0000 0.30420  0.45260  0.85740  Biso   1.000  O
  O8       1.0000 0.69580  0.95260  0.64260  Biso   1.000  O
  O9       1.0000 0.12410  0.32920  0.03170  Biso   1.000  O
  O10      1.0000 0.87590  0.82920  0.46830  Biso   1.000  O
  O11      1.0000 0.87590  0.67080  0.96830  Biso   1.000  O
  O12      1.0000 0.12410  0.17080  0.53170  Biso   1.000  O
  S1       1.0000 0.69266  0.20646  0.82767  Biso   1.000  S
  S2       1.0000 0.30734  0.70646  0.67233  Biso   1.000  S
  S3       1.0000 0.30734  0.79354  0.17233  Biso   1.000  S
  S4       1.0000 0.69266  0.29354  0.32767  Biso   1.000  S
  C1       1.0000 0.26660  0.50010  0.29710  Biso   1.000  C
  C2       1.0000 0.73340  0.00010  0.20290  Biso   1.000  C
  C3       1.0000 0.73340  0.49990  0.70290  Biso   1.000  C
  C4       1.0000 0.26660  0.99990  0.79710  Biso   1.000  C
  C5       1.0000 0.25520  0.43020  0.18650  Biso   1.000  C
  C6       1.0000 0.74480  0.93020  0.31350  Biso   1.000  C
  C7       1.0000 0.74480  0.56980  0.81350  Biso   1.000  C
  C8       1.0000 0.25520  0.06980  0.68650  Biso   1.000  C
  C9       1.0000 0.12560  0.39410  0.14100  Biso   1.000  C
  C10      1.0000 0.87440  0.89410  0.35900  Biso   1.000  C
  C11      1.0000 0.87440  0.60590  0.85900  Biso   1.000  C
  C12      1.0000 0.12560  0.10590  0.64100  Biso   1.000  C
  C13      1.0000 0.01630  0.42530  0.20560  Biso   1.000  C
  C14      1.0000 0.98370  0.92530  0.29440  Biso   1.000  C
  C15      1.0000 0.98370  0.57470  0.79440  Biso   1.000  C
  C16      1.0000 0.01630  0.07470  0.70560  Biso   1.000  C
  H1       1.0000 0.93240  0.40130  0.17460  Biso   1.000  H
  H2       1.0000 0.06760  0.90130  0.32540  Biso   1.000  H
  H3       1.0000 0.06760  0.59870  0.82540  Biso   1.000  H
  H4       1.0000 0.93240  0.09870  0.67460  Biso   1.000  H
  C17      1.0000 0.03120  0.49230  0.31640  Biso   1.000  C
  C18      1.0000 0.96880  0.99230  0.18360  Biso   1.000  C
  C19      1.0000 0.96880  0.50770  0.68360  Biso   1.000  C
  C20      1.0000 0.03120  0.00770  0.81640  Biso   1.000  C
  H5       1.0000 0.95720  0.51200  0.36020  Biso   1.000  H
  H6       1.0000 0.04280  0.01200  0.13980  Biso   1.000  H
  H7       1.0000 0.04280  0.48800  0.63980  Biso   1.000  H
  H8       1.0000 0.95720  0.98800  0.86020  Biso   1.000  H
  C21      1.0000 0.15280  0.52940  0.36160  Biso   1.000  C
  C22      1.0000 0.84720  0.02940  0.13840  Biso   1.000  C
  C23      1.0000 0.84720  0.47060  0.63840  Biso   1.000  C
  C24      1.0000 0.15280  0.97060  0.86160  Biso   1.000  C
  H9       1.0000 0.16130  0.57470  0.43580  Biso   1.000  H
  H10      1.0000 0.83870  0.07470  0.06420  Biso   1.000  H
  H11      1.0000 0.83870  0.42530  0.56420  Biso   1.000  H
  H12      1.0000 0.16130  0.92530  0.93580  Biso   1.000  H
  C25      1.0000 0.38940  0.55180  0.34420  Biso   1.000  C
  C26      1.0000 0.61060  0.05180  0.15580  Biso   1.000  C
  C27      1.0000 0.61060  0.44820  0.65580  Biso   1.000  C
  C28      1.0000 0.38940  0.94820  0.84420  Biso   1.000  C
  H13      1.0000 0.38740  0.59950  0.41610  Biso   1.000  H
  H14      1.0000 0.61260  0.09950  0.08390  Biso   1.000  H
  H15      1.0000 0.61260  0.40050  0.58390  Biso   1.000  H
  H16      1.0000 0.38740  0.90050  0.91610  Biso   1.000  H
  C29      1.0000 0.61860  0.60250  0.34500  Biso   1.000  C
  C30      1.0000 0.38140  0.10250  0.15500  Biso   1.000  C
  C31      1.0000 0.38140  0.39750  0.65500  Biso   1.000  C
  C32      1.0000 0.61860  0.89750  0.84500  Biso   1.000  C
  H17      1.0000 0.67770  0.55500  0.39970  Biso   1.000  H
  H18      1.0000 0.32230  0.05500  0.10030  Biso   1.000  H
  H19      1.0000 0.32230  0.44500  0.60030  Biso   1.000  H
  H20      1.0000 0.67770  0.94500  0.89970  Biso   1.000  H
  H21      1.0000 0.59220  0.66650  0.39640  Biso   1.000  H
  H22      1.0000 0.40780  0.16650  0.10360  Biso   1.000  H
  H23      1.0000 0.40780  0.33350  0.60360  Biso   1.000  H
  H24      1.0000 0.59220  0.83350  0.89640  Biso   1.000  H
  C33      1.0000 0.68680  0.64300  0.22830  Biso   1.000  C
  C34      1.0000 0.31320  0.14300  0.27170  Biso   1.000  C
  C35      1.0000 0.31320  0.35700  0.77170  Biso   1.000  C
  C36      1.0000 0.68680  0.85700  0.72830  Biso   1.000  C
  H25      1.0000 0.63620  0.70340  0.18440  Biso   1.000  H
  H26      1.0000 0.36380  0.20340  0.31560  Biso   1.000  H
  H27      1.0000 0.36380  0.29660  0.81560  Biso   1.000  H
  H28      1.0000 0.63620  0.79660  0.68440  Biso   1.000  H
  H29      1.0000 0.77440  0.67140  0.25510  Biso   1.000  H
  H30      1.0000 0.22560  0.17140  0.24490  Biso   1.000  H
  H31      1.0000 0.22560  0.32860  0.74490  Biso   1.000  H
  H32      1.0000 0.77440  0.82860  0.75510  Biso   1.000  H
  C37      1.0000 0.99740  0.29610  0.97320  Biso   1.000  C
  C38      1.0000 0.00260  0.79610  0.52680  Biso   1.000  C
  C39      1.0000 0.00260  0.70390  0.02680  Biso   1.000  C
  C40      1.0000 0.99740  0.20390  0.47320  Biso   1.000  C
  H33      1.0000 0.95230  0.25090  0.03380  Biso   1.000  H
  H34      1.0000 0.04770  0.75090  0.46620  Biso   1.000  H
  H35      1.0000 0.04770  0.74910  0.96620  Biso   1.000  H
  H36      1.0000 0.95230  0.24910  0.53380  Biso   1.000  H
  H37      1.0000 0.00910  0.25280  0.89570  Biso   1.000  H
  H38      1.0000 0.99090  0.75280  0.60430  Biso   1.000  H
  H39      1.0000 0.99090  0.74720  0.10430  Biso   1.000  H
  H40      1.0000 0.00910  0.24720  0.39570  Biso   1.000  H
  H41      1.0000 0.94580  0.36240  0.95080  Biso   1.000  H
  H42      1.0000 0.05420  0.86240  0.54920  Biso   1.000  H
  H43      1.0000 0.05420  0.63760  0.04920  Biso   1.000  H
  H44      1.0000 0.94580  0.13760  0.45080  Biso   1.000  H
  C41      1.0000 0.63180  0.29260  0.93170  Biso   1.000  C
  C42      1.0000 0.36820  0.79260  0.56830  Biso   1.000  C
  C43      1.0000 0.36820  0.70740  0.06830  Biso   1.000  C
  C44      1.0000 0.63180  0.20740  0.43170  Biso   1.000  C
  H45      1.0000 0.70100  0.56800  0.06430  Biso   1.000  H
  H46      1.0000 0.29900  0.06800  0.43570  Biso   1.000  H
  H47      1.0000 0.29900  0.43200  0.93570  Biso   1.000  H
  H48      1.0000 0.70100  0.93200  0.56430  Biso   1.000  H
