data_image0
_cell_length_a       8.534
_cell_length_b       10.047
_cell_length_c       6.311
_cell_angle_alpha    105.21
_cell_angle_beta     93.45
_cell_angle_gamma    81.72

_symmetry_space_group_name_H-M    "P 1"
_symmetry_int_tables_number       1

loop_
  _symmetry_equiv_pos_as_xyz
  'x, y, z'

loop_
  _atom_site_label
  _atom_site_occupancy
  _atom_site_fract_x
  _atom_site_fract_y
  _atom_site_fract_z
  _atom_site_thermal_displace_type
  _atom_site_B_iso_or_equiv
  _atom_site_type_symbol
  Cu1      1.0000 0.93756  0.56396  0.27542  Biso   1.000  Cu
  Cu2      1.0000 0.06244  0.43604  0.72458  Biso   1.000  Cu
  Cl1      1.0000 0.95141  0.35842  0.37560  Biso   1.000  Cl
  Cl2      1.0000 0.04859  0.64158  0.62440  Biso   1.000  Cl
  Cl3      1.0000 0.80262  0.48191  0.95610  Biso   1.000  Cl
  Cl4      1.0000 0.19738  0.51809  0.04390  Biso   1.000  Cl
  N1       1.0000 0.88380  0.76310  0.26810  Biso   1.000  N
  N2       1.0000 0.11620  0.23690  0.73190  Biso   1.000  N
  C1       1.0000 0.96000  0.83900  0.17880  Biso   1.000  C
  C2       1.0000 0.04000  0.16100  0.82120  Biso   1.000  C
  H1       1.0000 0.04400  0.80430  0.08390  Biso   1.000  H
  H2       1.0000 0.95600  0.19570  0.91610  Biso   1.000  H
  C3       1.0000 0.89660  0.97910  0.24690  Biso   1.000  C
  C4       1.0000 0.10340  0.02090  0.75310  Biso   1.000  C
  H3       1.0000 0.93060  0.05370  0.20930  Biso   1.000  H
  H4       1.0000 0.06940  0.94630  0.79070  Biso   1.000  H
  C5       1.0000 0.77680  0.98380  0.37750  Biso   1.000  C
  C6       1.0000 0.22320  0.01620  0.62250  Biso   1.000  C
  H5       1.0000 0.71030  0.06330  0.44610  Biso   1.000  H
  H6       1.0000 0.28970  0.93670  0.55390  Biso   1.000  H
  N3       1.0000 0.76910  0.85330  0.39260  Biso   1.000  N
  N4       1.0000 0.23090  0.14670  0.60740  Biso   1.000  N
  C7       1.0000 0.66090  0.80750  0.51420  Biso   1.000  C
  C8       1.0000 0.33910  0.19250  0.48580  Biso   1.000  C
  C9       1.0000 0.65380  0.86280  0.73660  Biso   1.000  C
  C10      1.0000 0.34620  0.13720  0.26340  Biso   1.000  C
  H7       1.0000 0.71860  0.92890  0.80710  Biso   1.000  H
  H8       1.0000 0.28140  0.07110  0.19290  Biso   1.000  H
  C11      1.0000 0.54930  0.81930  0.85550  Biso   1.000  C
  C12      1.0000 0.45070  0.18070  0.14450  Biso   1.000  C
  H9       1.0000 0.54470  0.85590  0.00680  Biso   1.000  H
  H10      1.0000 0.45530  0.14410  0.99320  Biso   1.000  H
  C13      1.0000 0.45290  0.72310  0.75290  Biso   1.000  C
  C14      1.0000 0.54710  0.27690  0.24710  Biso   1.000  C
  H11      1.0000 0.38390  0.69340  0.83390  Biso   1.000  H
  H12      1.0000 0.61610  0.30660  0.16610  Biso   1.000  H
  C15      1.0000 0.45890  0.67000  0.52580  Biso   1.000  C
  C16      1.0000 0.54110  0.33000  0.47420  Biso   1.000  C
  H13      1.0000 0.39150  0.60640  0.45470  Biso   1.000  H
  H14      1.0000 0.60850  0.39360  0.54530  Biso   1.000  H
  C17      1.0000 0.56390  0.71090  0.40550  Biso   1.000  C
  C18      1.0000 0.43610  0.28910  0.59450  Biso   1.000  C
  H15      1.0000 0.56940  0.67420  0.25430  Biso   1.000  H
  H16      1.0000 0.43060  0.32580  0.74570  Biso   1.000  H
