data_image0
_cell_length_a       12.9001
_cell_length_b       9.9112
_cell_length_c       11.9877
_cell_angle_alpha    90
_cell_angle_beta     90
_cell_angle_gamma    90

_symmetry_space_group_name_H-M    "P 1"
_symmetry_int_tables_number       1

loop_
  _symmetry_equiv_pos_as_xyz
  'x, y, z'

loop_
  _atom_site_label
  _atom_site_occupancy
  _atom_site_fract_x
  _atom_site_fract_y
  _atom_site_fract_z
  _atom_site_thermal_displace_type
  _atom_site_B_iso_or_equiv
  _atom_site_type_symbol
  Cu1      1.0000 0.50000  0.24466  0.63674  Biso   1.000  Cu
  Cu2      1.0000 0.50000  0.75534  0.13674  Biso   1.000  Cu
  Cu3      1.0000 0.00000  0.74466  0.63674  Biso   1.000  Cu
  Cu4      1.0000 0.00000  0.25534  0.13674  Biso   1.000  Cu
  O1       1.0000 0.10770  0.36680  0.06910  Biso   1.000  O
  O2       1.0000 0.89230  0.63320  0.56910  Biso   1.000  O
  O3       1.0000 0.10770  0.63320  0.56910  Biso   1.000  O
  O4       1.0000 0.89230  0.36680  0.06910  Biso   1.000  O
  O5       1.0000 0.60770  0.86680  0.06910  Biso   1.000  O
  O6       1.0000 0.39230  0.13320  0.56910  Biso   1.000  O
  O7       1.0000 0.60770  0.13320  0.56910  Biso   1.000  O
  O8       1.0000 0.39230  0.86680  0.06910  Biso   1.000  O
  O9       1.0000 0.14820  0.24990  0.91490  Biso   1.000  O
  O10      1.0000 0.85180  0.75010  0.41490  Biso   1.000  O
  O11      1.0000 0.14820  0.75010  0.41490  Biso   1.000  O
  O12      1.0000 0.85180  0.24990  0.91490  Biso   1.000  O
  O13      1.0000 0.64820  0.74990  0.91490  Biso   1.000  O
  O14      1.0000 0.35180  0.25010  0.41490  Biso   1.000  O
  O15      1.0000 0.64820  0.25010  0.41490  Biso   1.000  O
  O16      1.0000 0.35180  0.74990  0.91490  Biso   1.000  O
  C1       1.0000 0.44560  0.31060  0.93130  Biso   1.000  C
  C2       1.0000 0.55440  0.68940  0.43130  Biso   1.000  C
  C3       1.0000 0.44560  0.68940  0.43130  Biso   1.000  C
  C4       1.0000 0.55440  0.31060  0.93130  Biso   1.000  C
  C5       1.0000 0.94560  0.81060  0.93130  Biso   1.000  C
  C6       1.0000 0.05440  0.18940  0.43130  Biso   1.000  C
  C7       1.0000 0.94560  0.18940  0.43130  Biso   1.000  C
  C8       1.0000 0.05440  0.81060  0.93130  Biso   1.000  C
  C9       1.0000 0.44620  0.24310  0.11380  Biso   1.000  C
  C10      1.0000 0.55380  0.75690  0.61380  Biso   1.000  C
  C11      1.0000 0.44620  0.75690  0.61380  Biso   1.000  C
  C12      1.0000 0.55380  0.24310  0.11380  Biso   1.000  C
  C13      1.0000 0.94620  0.74310  0.11380  Biso   1.000  C
  C14      1.0000 0.05380  0.25690  0.61380  Biso   1.000  C
  C15      1.0000 0.94620  0.25690  0.61380  Biso   1.000  C
  C16      1.0000 0.05380  0.74310  0.11380  Biso   1.000  C
  H1       1.0000 0.41080  0.21970  0.17860  Biso   1.000  H
  H2       1.0000 0.58920  0.78030  0.67860  Biso   1.000  H
  H3       1.0000 0.41080  0.78030  0.67860  Biso   1.000  H
  H4       1.0000 0.58920  0.21970  0.17860  Biso   1.000  H
  H5       1.0000 0.91080  0.71970  0.17860  Biso   1.000  H
  H6       1.0000 0.08920  0.28030  0.67860  Biso   1.000  H
  H7       1.0000 0.91080  0.28030  0.67860  Biso   1.000  H
  H8       1.0000 0.08920  0.71970  0.17860  Biso   1.000  H
  C17      1.0000 0.23000  0.46070  0.95080  Biso   1.000  C
  C18      1.0000 0.77000  0.53930  0.45080  Biso   1.000  C
  C19      1.0000 0.23000  0.53930  0.45080  Biso   1.000  C
  C20      1.0000 0.77000  0.46070  0.95080  Biso   1.000  C
  C21      1.0000 0.73000  0.96070  0.95080  Biso   1.000  C
  C22      1.0000 0.27000  0.03930  0.45080  Biso   1.000  C
  C23      1.0000 0.73000  0.03930  0.45080  Biso   1.000  C
  C24      1.0000 0.27000  0.96070  0.95080  Biso   1.000  C
  H9       1.0000 0.19140  0.54300  0.93700  Biso   1.000  H
  H10      1.0000 0.80860  0.45700  0.43700  Biso   1.000  H
  H11      1.0000 0.19140  0.45700  0.43700  Biso   1.000  H
  H12      1.0000 0.80860  0.54300  0.93700  Biso   1.000  H
  H13      1.0000 0.69140  0.04300  0.93700  Biso   1.000  H
  H14      1.0000 0.30860  0.95700  0.43700  Biso   1.000  H
  H15      1.0000 0.69140  0.95700  0.43700  Biso   1.000  H
  H16      1.0000 0.30860  0.04300  0.93700  Biso   1.000  H
  H17      1.0000 0.27600  0.47630  0.01350  Biso   1.000  H
  H18      1.0000 0.72400  0.52370  0.51350  Biso   1.000  H
  H19      1.0000 0.27600  0.52370  0.51350  Biso   1.000  H
  H20      1.0000 0.72400  0.47630  0.01350  Biso   1.000  H
  H21      1.0000 0.77600  0.97630  0.01350  Biso   1.000  H
  H22      1.0000 0.22400  0.02370  0.51350  Biso   1.000  H
  H23      1.0000 0.77600  0.02370  0.51350  Biso   1.000  H
  H24      1.0000 0.22400  0.97630  0.01350  Biso   1.000  H
  C25      1.0000 0.15530  0.34700  0.97860  Biso   1.000  C
  C26      1.0000 0.84470  0.65300  0.47860  Biso   1.000  C
  C27      1.0000 0.15530  0.65300  0.47860  Biso   1.000  C
  C28      1.0000 0.84470  0.34700  0.97860  Biso   1.000  C
  C29      1.0000 0.65530  0.84700  0.97860  Biso   1.000  C
  C30      1.0000 0.34470  0.15300  0.47860  Biso   1.000  C
  C31      1.0000 0.65530  0.15300  0.47860  Biso   1.000  C
  C32      1.0000 0.34470  0.84700  0.97860  Biso   1.000  C
  C33      1.0000 0.37960  0.35680  0.83920  Biso   1.000  C
  C34      1.0000 0.62040  0.64320  0.33920  Biso   1.000  C
  C35      1.0000 0.37960  0.64320  0.33920  Biso   1.000  C
  C36      1.0000 0.62040  0.35680  0.83920  Biso   1.000  C
  C37      1.0000 0.87960  0.85680  0.83920  Biso   1.000  C
  C38      1.0000 0.12040  0.14320  0.33920  Biso   1.000  C
  C39      1.0000 0.87960  0.14320  0.33920  Biso   1.000  C
  C40      1.0000 0.12040  0.85680  0.83920  Biso   1.000  C
  N1       1.0000 0.39280  0.27610  0.02280  Biso   1.000  N
  N2       1.0000 0.60720  0.72390  0.52280  Biso   1.000  N
  N3       1.0000 0.39280  0.72390  0.52280  Biso   1.000  N
  N4       1.0000 0.60720  0.27610  0.02280  Biso   1.000  N
  N5       1.0000 0.89280  0.77610  0.02280  Biso   1.000  N
  N6       1.0000 0.10720  0.22390  0.52280  Biso   1.000  N
  N7       1.0000 0.89280  0.22390  0.52280  Biso   1.000  N
  N8       1.0000 0.10720  0.77610  0.02280  Biso   1.000  N
  N9       1.0000 0.39350  0.34120  0.73010  Biso   1.000  N
  N10      1.0000 0.60650  0.65880  0.23010  Biso   1.000  N
  N11      1.0000 0.39350  0.65880  0.23010  Biso   1.000  N
  N12      1.0000 0.60650  0.34120  0.73010  Biso   1.000  N
  N13      1.0000 0.89350  0.84120  0.73010  Biso   1.000  N
  N14      1.0000 0.10650  0.15880  0.23010  Biso   1.000  N
  N15      1.0000 0.89350  0.15880  0.23010  Biso   1.000  N
  N16      1.0000 0.10650  0.84120  0.73010  Biso   1.000  N
  N17      1.0000 0.31250  0.39960  0.67830  Biso   1.000  N
  N18      1.0000 0.68750  0.60040  0.17830  Biso   1.000  N
  N19      1.0000 0.31250  0.60040  0.17830  Biso   1.000  N
  N20      1.0000 0.68750  0.39960  0.67830  Biso   1.000  N
  N21      1.0000 0.81250  0.89960  0.67830  Biso   1.000  N
  N22      1.0000 0.18750  0.10040  0.17830  Biso   1.000  N
  N23      1.0000 0.81250  0.10040  0.17830  Biso   1.000  N
  N24      1.0000 0.18750  0.89960  0.67830  Biso   1.000  N
  N25      1.0000 0.25050  0.45040  0.75140  Biso   1.000  N
  N26      1.0000 0.74950  0.54960  0.25140  Biso   1.000  N
  N27      1.0000 0.25050  0.54960  0.25140  Biso   1.000  N
  N28      1.0000 0.74950  0.45040  0.75140  Biso   1.000  N
  N29      1.0000 0.75050  0.95040  0.75140  Biso   1.000  N
  N30      1.0000 0.24950  0.04960  0.25140  Biso   1.000  N
  N31      1.0000 0.75050  0.04960  0.25140  Biso   1.000  N
  N32      1.0000 0.24950  0.95040  0.75140  Biso   1.000  N
  N33      1.0000 0.29090  0.42590  0.85210  Biso   1.000  N
  N34      1.0000 0.70910  0.57410  0.35210  Biso   1.000  N
  N35      1.0000 0.29090  0.57410  0.35210  Biso   1.000  N
  N36      1.0000 0.70910  0.42590  0.85210  Biso   1.000  N
  N37      1.0000 0.79090  0.92590  0.85210  Biso   1.000  N
  N38      1.0000 0.20910  0.07410  0.35210  Biso   1.000  N
  N39      1.0000 0.79090  0.07410  0.35210  Biso   1.000  N
  N40      1.0000 0.20910  0.92590  0.85210  Biso   1.000  N
  O17      1.0000 0.50000  0.40880  0.49840  Biso   1.000  O
  O18      1.0000 0.50000  0.59120  0.99840  Biso   1.000  O
  O19      1.0000 0.00000  0.90880  0.49840  Biso   1.000  O
  O20      1.0000 0.00000  0.09120  0.99840  Biso   1.000  O
  H25      1.0000 0.44500  0.37600  0.47300  Biso   1.000  H
  H26      1.0000 0.55500  0.62400  0.97300  Biso   1.000  H
  H27      1.0000 0.44500  0.62400  0.97300  Biso   1.000  H
  H28      1.0000 0.55500  0.37600  0.47300  Biso   1.000  H
  H29      1.0000 0.94500  0.87600  0.47300  Biso   1.000  H
  H30      1.0000 0.05500  0.12400  0.97300  Biso   1.000  H
  H31      1.0000 0.94500  0.12400  0.97300  Biso   1.000  H
  H32      1.0000 0.05500  0.87600  0.47300  Biso   1.000  H
  O21      1.0000 0.50000  0.05330  0.78130  Biso   1.000  O
  O22      1.0000 0.50000  0.94670  0.28130  Biso   1.000  O
  O23      1.0000 0.00000  0.55330  0.78130  Biso   1.000  O
  O24      1.0000 0.00000  0.44670  0.28130  Biso   1.000  O
  H33      1.0000 0.44700  0.01500  0.75000  Biso   1.000  H
  H34      1.0000 0.55300  0.98500  0.25000  Biso   1.000  H
  H35      1.0000 0.44700  0.98500  0.25000  Biso   1.000  H
  H36      1.0000 0.55300  0.01500  0.75000  Biso   1.000  H
  H37      1.0000 0.94700  0.51500  0.75000  Biso   1.000  H
  H38      1.0000 0.05300  0.48500  0.25000  Biso   1.000  H
  H39      1.0000 0.94700  0.48500  0.25000  Biso   1.000  H
  H40      1.0000 0.05300  0.51500  0.75000  Biso   1.000  H
