data_image0
_cell_length_a       9.5801
_cell_length_b       8.4014
_cell_length_c       20.163
_cell_angle_alpha    90
_cell_angle_beta     90
_cell_angle_gamma    90

_symmetry_space_group_name_H-M    "P 1"
_symmetry_int_tables_number       1

loop_
  _symmetry_equiv_pos_as_xyz
  'x, y, z'

loop_
  _atom_site_label
  _atom_site_occupancy
  _atom_site_fract_x
  _atom_site_fract_y
  _atom_site_fract_z
  _atom_site_thermal_displace_type
  _atom_site_B_iso_or_equiv
  _atom_site_type_symbol
  Cu1      1.0000 0.00000  0.00000  0.50000  Biso   1.000  Cu
  Cu2      1.0000 0.50000  0.00000  0.00000  Biso   1.000  Cu
  Cu3      1.0000 0.00000  0.50000  0.00000  Biso   1.000  Cu
  Cu4      1.0000 0.50000  0.50000  0.50000  Biso   1.000  Cu
  O1       1.0000 0.88870  0.99770  0.58949  Biso   1.000  O
  O2       1.0000 0.61130  0.00230  0.08949  Biso   1.000  O
  O3       1.0000 0.11130  0.49770  0.91051  Biso   1.000  O
  O4       1.0000 0.38870  0.50230  0.41051  Biso   1.000  O
  O5       1.0000 0.11130  0.00230  0.41051  Biso   1.000  O
  O6       1.0000 0.38870  0.99770  0.91051  Biso   1.000  O
  O7       1.0000 0.88870  0.50230  0.08949  Biso   1.000  O
  O8       1.0000 0.61130  0.49770  0.58949  Biso   1.000  O
  N1       1.0000 0.69190  0.12220  0.55321  Biso   1.000  N
  N2       1.0000 0.80810  0.87780  0.05321  Biso   1.000  N
  N3       1.0000 0.30810  0.62220  0.94679  Biso   1.000  N
  N4       1.0000 0.19190  0.37780  0.44679  Biso   1.000  N
  N5       1.0000 0.30810  0.87780  0.44679  Biso   1.000  N
  N6       1.0000 0.19190  0.12220  0.94679  Biso   1.000  N
  N7       1.0000 0.69190  0.37780  0.05321  Biso   1.000  N
  N8       1.0000 0.80810  0.62220  0.55321  Biso   1.000  N
  H1       1.0000 0.60360  0.13250  0.55960  Biso   1.000  H
  H2       1.0000 0.89640  0.86750  0.05960  Biso   1.000  H
  H3       1.0000 0.39640  0.63250  0.94040  Biso   1.000  H
  H4       1.0000 0.10360  0.36750  0.44040  Biso   1.000  H
  H5       1.0000 0.39640  0.86750  0.44040  Biso   1.000  H
  H6       1.0000 0.10360  0.13250  0.94040  Biso   1.000  H
  H7       1.0000 0.60360  0.36750  0.05960  Biso   1.000  H
  H8       1.0000 0.89640  0.63250  0.55960  Biso   1.000  H
  N9       1.0000 0.87720  0.17490  0.47611  Biso   1.000  N
  N10      1.0000 0.62280  0.82510  0.97611  Biso   1.000  N
  N11      1.0000 0.12280  0.67490  0.02389  Biso   1.000  N
  N12      1.0000 0.37720  0.32510  0.52389  Biso   1.000  N
  N13      1.0000 0.12280  0.82510  0.52389  Biso   1.000  N
  N14      1.0000 0.37720  0.17490  0.02389  Biso   1.000  N
  N15      1.0000 0.87720  0.32510  0.97611  Biso   1.000  N
  N16      1.0000 0.62280  0.67490  0.47611  Biso   1.000  N
  N17      1.0000 0.89560  0.28420  0.42700  Biso   1.000  N
  N18      1.0000 0.60440  0.71580  0.92700  Biso   1.000  N
  N19      1.0000 0.10440  0.78420  0.07300  Biso   1.000  N
  N20      1.0000 0.39560  0.21580  0.57300  Biso   1.000  N
  N21      1.0000 0.10440  0.71580  0.57300  Biso   1.000  N
  N22      1.0000 0.39560  0.28420  0.07300  Biso   1.000  N
  N23      1.0000 0.89560  0.21580  0.92700  Biso   1.000  N
  N24      1.0000 0.60440  0.78420  0.42700  Biso   1.000  N
  N25      1.0000 0.78410  0.37060  0.42260  Biso   1.000  N
  N26      1.0000 0.71590  0.62940  0.92260  Biso   1.000  N
  N27      1.0000 0.21590  0.87060  0.07740  Biso   1.000  N
  N28      1.0000 0.28410  0.12940  0.57740  Biso   1.000  N
  N29      1.0000 0.21590  0.62940  0.57740  Biso   1.000  N
  N30      1.0000 0.28410  0.37060  0.07740  Biso   1.000  N
  N31      1.0000 0.78410  0.12940  0.92260  Biso   1.000  N
  N32      1.0000 0.71590  0.87060  0.42260  Biso   1.000  N
  N33      1.0000 0.68750  0.32150  0.46830  Biso   1.000  N
  N34      1.0000 0.81250  0.67850  0.96830  Biso   1.000  N
  N35      1.0000 0.31250  0.82150  0.03170  Biso   1.000  N
  N36      1.0000 0.18750  0.17850  0.53170  Biso   1.000  N
  N37      1.0000 0.31250  0.67850  0.53170  Biso   1.000  N
  N38      1.0000 0.18750  0.32150  0.03170  Biso   1.000  N
  N39      1.0000 0.68750  0.17850  0.96830  Biso   1.000  N
  N40      1.0000 0.81250  0.82150  0.46830  Biso   1.000  N
  C1       1.0000 0.55890  0.87610  0.63920  Biso   1.000  C
  C2       1.0000 0.94110  0.12390  0.13920  Biso   1.000  C
  C3       1.0000 0.44110  0.37610  0.86080  Biso   1.000  C
  C4       1.0000 0.05890  0.62390  0.36080  Biso   1.000  C
  C5       1.0000 0.44110  0.12390  0.36080  Biso   1.000  C
  C6       1.0000 0.05890  0.87610  0.86080  Biso   1.000  C
  C7       1.0000 0.55890  0.62390  0.13920  Biso   1.000  C
  C8       1.0000 0.94110  0.37610  0.63920  Biso   1.000  C
  H9       1.0000 0.52500  0.86730  0.59610  Biso   1.000  H
  H10      1.0000 0.97500  0.13270  0.09610  Biso   1.000  H
  H11      1.0000 0.47500  0.36730  0.90390  Biso   1.000  H
  H12      1.0000 0.02500  0.63270  0.40390  Biso   1.000  H
  H13      1.0000 0.47500  0.13270  0.40390  Biso   1.000  H
  H14      1.0000 0.02500  0.86730  0.90390  Biso   1.000  H
  H15      1.0000 0.52500  0.63270  0.09610  Biso   1.000  H
  H16      1.0000 0.97500  0.36730  0.59610  Biso   1.000  H
  C9       1.0000 0.48930  0.80450  0.69100  Biso   1.000  C
  C10      1.0000 0.01070  0.19550  0.19100  Biso   1.000  C
  C11      1.0000 0.51070  0.30450  0.80900  Biso   1.000  C
  C12      1.0000 0.98930  0.69550  0.30900  Biso   1.000  C
  C13      1.0000 0.51070  0.19550  0.30900  Biso   1.000  C
  C14      1.0000 0.98930  0.80450  0.80900  Biso   1.000  C
  C15      1.0000 0.48930  0.69550  0.19100  Biso   1.000  C
  C16      1.0000 0.01070  0.30450  0.69100  Biso   1.000  C
  H17      1.0000 0.40980  0.74420  0.68270  Biso   1.000  H
  H18      1.0000 0.09020  0.25580  0.18270  Biso   1.000  H
  H19      1.0000 0.59020  0.24420  0.81730  Biso   1.000  H
  H20      1.0000 0.90980  0.75580  0.31730  Biso   1.000  H
  H21      1.0000 0.59020  0.25580  0.31730  Biso   1.000  H
  H22      1.0000 0.90980  0.74420  0.81730  Biso   1.000  H
  H23      1.0000 0.40980  0.75580  0.18270  Biso   1.000  H
  H24      1.0000 0.09020  0.24420  0.68270  Biso   1.000  H
  C17      1.0000 0.53720  0.82210  0.75500  Biso   1.000  C
  C18      1.0000 0.96280  0.17790  0.25500  Biso   1.000  C
  C19      1.0000 0.46280  0.32210  0.74500  Biso   1.000  C
  C20      1.0000 0.03720  0.67790  0.24500  Biso   1.000  C
  C21      1.0000 0.46280  0.17790  0.24500  Biso   1.000  C
  C22      1.0000 0.03720  0.82210  0.74500  Biso   1.000  C
  C23      1.0000 0.53720  0.67790  0.25500  Biso   1.000  C
  C24      1.0000 0.96280  0.32210  0.75500  Biso   1.000  C
  H25      1.0000 0.49020  0.77270  0.78970  Biso   1.000  H
  H26      1.0000 0.00980  0.22730  0.28970  Biso   1.000  H
  H27      1.0000 0.50980  0.27270  0.71030  Biso   1.000  H
  H28      1.0000 0.99020  0.72730  0.21030  Biso   1.000  H
  H29      1.0000 0.50980  0.22730  0.21030  Biso   1.000  H
  H30      1.0000 0.99020  0.77270  0.71030  Biso   1.000  H
  H31      1.0000 0.49020  0.72730  0.28970  Biso   1.000  H
  H32      1.0000 0.00980  0.27270  0.78970  Biso   1.000  H
  C25      1.0000 0.65410  0.91220  0.76810  Biso   1.000  C
  C26      1.0000 0.84590  0.08780  0.26810  Biso   1.000  C
  C27      1.0000 0.34590  0.41220  0.73190  Biso   1.000  C
  C28      1.0000 0.15410  0.58780  0.23190  Biso   1.000  C
  C29      1.0000 0.34590  0.08780  0.23190  Biso   1.000  C
  C30      1.0000 0.15410  0.91220  0.73190  Biso   1.000  C
  C31      1.0000 0.65410  0.58780  0.26810  Biso   1.000  C
  C32      1.0000 0.84590  0.41220  0.76810  Biso   1.000  C
  H33      1.0000 0.68340  0.92740  0.81160  Biso   1.000  H
  H34      1.0000 0.81660  0.07260  0.31160  Biso   1.000  H
  H35      1.0000 0.31660  0.42740  0.68840  Biso   1.000  H
  H36      1.0000 0.18340  0.57260  0.18840  Biso   1.000  H
  H37      1.0000 0.31660  0.07260  0.18840  Biso   1.000  H
  H38      1.0000 0.18340  0.92740  0.68840  Biso   1.000  H
  H39      1.0000 0.68340  0.57260  0.31160  Biso   1.000  H
  H40      1.0000 0.81660  0.42740  0.81160  Biso   1.000  H
  C33      1.0000 0.72800  0.97990  0.71630  Biso   1.000  C
  C34      1.0000 0.77200  0.02010  0.21630  Biso   1.000  C
  C35      1.0000 0.27200  0.47990  0.78370  Biso   1.000  C
  C36      1.0000 0.22800  0.52010  0.28370  Biso   1.000  C
  C37      1.0000 0.27200  0.02010  0.28370  Biso   1.000  C
  C38      1.0000 0.22800  0.97990  0.78370  Biso   1.000  C
  C39      1.0000 0.72800  0.52010  0.21630  Biso   1.000  C
  C40      1.0000 0.77200  0.47990  0.71630  Biso   1.000  C
  H41      1.0000 0.80920  0.03730  0.72460  Biso   1.000  H
  H42      1.0000 0.69080  0.96270  0.22460  Biso   1.000  H
  H43      1.0000 0.19080  0.53730  0.77540  Biso   1.000  H
  H44      1.0000 0.30920  0.46270  0.27540  Biso   1.000  H
  H45      1.0000 0.19080  0.96270  0.27540  Biso   1.000  H
  H46      1.0000 0.30920  0.03730  0.77540  Biso   1.000  H
  H47      1.0000 0.80920  0.46270  0.22460  Biso   1.000  H
  H48      1.0000 0.69080  0.53730  0.72460  Biso   1.000  H
  C41      1.0000 0.68020  0.96160  0.65180  Biso   1.000  C
  C42      1.0000 0.81980  0.03840  0.15180  Biso   1.000  C
  C43      1.0000 0.31980  0.46160  0.84820  Biso   1.000  C
  C44      1.0000 0.18020  0.53840  0.34820  Biso   1.000  C
  C45      1.0000 0.31980  0.03840  0.34820  Biso   1.000  C
  C46      1.0000 0.18020  0.96160  0.84820  Biso   1.000  C
  C47      1.0000 0.68020  0.53840  0.15180  Biso   1.000  C
  C48      1.0000 0.81980  0.46160  0.65180  Biso   1.000  C
  C49      1.0000 0.76360  0.02930  0.59580  Biso   1.000  C
  C50      1.0000 0.73640  0.97070  0.09580  Biso   1.000  C
  C51      1.0000 0.23640  0.52930  0.90420  Biso   1.000  C
  C52      1.0000 0.26360  0.47070  0.40420  Biso   1.000  C
  C53      1.0000 0.23640  0.97070  0.40420  Biso   1.000  C
  C54      1.0000 0.26360  0.02930  0.90420  Biso   1.000  C
  C55      1.0000 0.76360  0.47070  0.09580  Biso   1.000  C
  C56      1.0000 0.73640  0.52930  0.59580  Biso   1.000  C
  C57      1.0000 0.75000  0.20230  0.49990  Biso   1.000  C
  C58      1.0000 0.75000  0.79770  0.99990  Biso   1.000  C
  C59      1.0000 0.25000  0.70230  0.00010  Biso   1.000  C
  C60      1.0000 0.25000  0.29770  0.50010  Biso   1.000  C
  C61      1.0000 0.25000  0.79770  0.50010  Biso   1.000  C
  C62      1.0000 0.25000  0.20230  0.00010  Biso   1.000  C
  C63      1.0000 0.75000  0.29770  0.99990  Biso   1.000  C
  C64      1.0000 0.75000  0.70230  0.49990  Biso   1.000  C
