data_image0
_cell_length_a       7.736
_cell_length_b       14.158
_cell_length_c       19.267
_cell_angle_alpha    90
_cell_angle_beta     106.564
_cell_angle_gamma    90

_symmetry_space_group_name_H-M    "P 1"
_symmetry_int_tables_number       1

loop_
  _symmetry_equiv_pos_as_xyz
  'x, y, z'

loop_
  _atom_site_label
  _atom_site_occupancy
  _atom_site_fract_x
  _atom_site_fract_y
  _atom_site_fract_z
  _atom_site_thermal_displace_type
  _atom_site_B_iso_or_equiv
  _atom_site_type_symbol
  Cu1      1.0000 0.19107  0.02958  0.24478  Biso   1.000  Cu
  Cu2      1.0000 0.80893  0.52958  0.25522  Biso   1.000  Cu
  Cu3      1.0000 0.80893  0.97042  0.75522  Biso   1.000  Cu
  Cu4      1.0000 0.19107  0.47042  0.74478  Biso   1.000  Cu
  Cl1      1.0000 0.68560  0.96274  0.36976  Biso   1.000  Cl
  Cl2      1.0000 0.31440  0.46274  0.13024  Biso   1.000  Cl
  Cl3      1.0000 0.31440  0.03726  0.63024  Biso   1.000  Cl
  Cl4      1.0000 0.68560  0.53726  0.86976  Biso   1.000  Cl
  O1       1.0000 0.52020  0.92970  0.32060  Biso   1.000  O
  O2       1.0000 0.47980  0.42970  0.17940  Biso   1.000  O
  O3       1.0000 0.47980  0.07030  0.67940  Biso   1.000  O
  O4       1.0000 0.52020  0.57030  0.82060  Biso   1.000  O
  O5       1.0000 0.80180  0.88510  0.39600  Biso   1.000  O
  O6       1.0000 0.19820  0.38510  0.10400  Biso   1.000  O
  O7       1.0000 0.19820  0.11490  0.60400  Biso   1.000  O
  O8       1.0000 0.80180  0.61490  0.89600  Biso   1.000  O
  O9       1.0000 0.64540  0.00840  0.42970  Biso   1.000  O
  O10      1.0000 0.35460  0.50840  0.07030  Biso   1.000  O
  O11      1.0000 0.35460  0.99160  0.57030  Biso   1.000  O
  O12      1.0000 0.64540  0.49160  0.92970  Biso   1.000  O
  O13      1.0000 0.77170  0.02790  0.33350  Biso   1.000  O
  O14      1.0000 0.22830  0.52790  0.16650  Biso   1.000  O
  O15      1.0000 0.22830  0.97210  0.66650  Biso   1.000  O
  O16      1.0000 0.77170  0.47210  0.83350  Biso   1.000  O
  N1       1.0000 0.11530  0.93950  0.31560  Biso   1.000  N
  N2       1.0000 0.88470  0.43950  0.18440  Biso   1.000  N
  N3       1.0000 0.88470  0.06050  0.68440  Biso   1.000  N
  N4       1.0000 0.11530  0.56050  0.81560  Biso   1.000  N
  H1       1.0000 0.99400  0.94670  0.30640  Biso   1.000  H
  H2       1.0000 0.00600  0.44670  0.19360  Biso   1.000  H
  H3       1.0000 0.00600  0.05330  0.69360  Biso   1.000  H
  H4       1.0000 0.99400  0.55330  0.80640  Biso   1.000  H
  N5       1.0000 0.15820  0.91260  0.18710  Biso   1.000  N
  N6       1.0000 0.84180  0.41260  0.31290  Biso   1.000  N
  N7       1.0000 0.84180  0.08740  0.81290  Biso   1.000  N
  N8       1.0000 0.15820  0.58740  0.68710  Biso   1.000  N
  N9       1.0000 0.14890  0.75660  0.18430  Biso   1.000  N
  N10      1.0000 0.85110  0.25660  0.31570  Biso   1.000  N
  N11      1.0000 0.85110  0.24340  0.81570  Biso   1.000  N
  N12      1.0000 0.14890  0.74340  0.68430  Biso   1.000  N
  H5       1.0000 0.14500  0.69920  0.19850  Biso   1.000  H
  H6       1.0000 0.85500  0.19920  0.30150  Biso   1.000  H
  H7       1.0000 0.85500  0.30080  0.80150  Biso   1.000  H
  H8       1.0000 0.14500  0.80080  0.69850  Biso   1.000  H
  N13      1.0000 0.24700  0.11330  0.32950  Biso   1.000  N
  N14      1.0000 0.75300  0.61330  0.17050  Biso   1.000  N
  N15      1.0000 0.75300  0.88670  0.67050  Biso   1.000  N
  N16      1.0000 0.24700  0.38670  0.82950  Biso   1.000  N
  N17      1.0000 0.26340  0.13500  0.44480  Biso   1.000  N
  N18      1.0000 0.73660  0.63500  0.05520  Biso   1.000  N
  N19      1.0000 0.73660  0.86500  0.55520  Biso   1.000  N
  N20      1.0000 0.26340  0.36500  0.94480  Biso   1.000  N
  H9       1.0000 0.26000  0.12250  0.48810  Biso   1.000  H
  H10      1.0000 0.74000  0.62250  0.01190  Biso   1.000  H
  H11      1.0000 0.74000  0.87750  0.51190  Biso   1.000  H
  H12      1.0000 0.26000  0.37750  0.98810  Biso   1.000  H
  N21      1.0000 0.33510  0.09620  0.19030  Biso   1.000  N
  N22      1.0000 0.66490  0.59620  0.30970  Biso   1.000  N
  N23      1.0000 0.66490  0.90380  0.80970  Biso   1.000  N
  N24      1.0000 0.33510  0.40380  0.69030  Biso   1.000  N
  N25      1.0000 0.59110  0.13520  0.14540  Biso   1.000  N
  N26      1.0000 0.40890  0.63520  0.35460  Biso   1.000  N
  N27      1.0000 0.40890  0.86480  0.85460  Biso   1.000  N
  N28      1.0000 0.59110  0.36480  0.64540  Biso   1.000  N
  N29      1.0000 0.91050  0.09480  0.19740  Biso   1.000  N
  N30      1.0000 0.08950  0.59480  0.30260  Biso   1.000  N
  N31      1.0000 0.08950  0.90520  0.80260  Biso   1.000  N
  N32      1.0000 0.91050  0.40520  0.69740  Biso   1.000  N
  C1       1.0000 0.14360  0.83920  0.29970  Biso   1.000  C
  C2       1.0000 0.85640  0.33920  0.20030  Biso   1.000  C
  C3       1.0000 0.85640  0.16080  0.70030  Biso   1.000  C
  C4       1.0000 0.14360  0.66080  0.79970  Biso   1.000  C
  H13      1.0000 0.25630  0.81630  0.33190  Biso   1.000  H
  H14      1.0000 0.74370  0.31630  0.16810  Biso   1.000  H
  H15      1.0000 0.74370  0.18370  0.66810  Biso   1.000  H
  H16      1.0000 0.25630  0.68370  0.83190  Biso   1.000  H
  H17      1.0000 0.04600  0.80060  0.30630  Biso   1.000  H
  H18      1.0000 0.95400  0.30060  0.19370  Biso   1.000  H
  H19      1.0000 0.95400  0.19940  0.69370  Biso   1.000  H
  H20      1.0000 0.04600  0.69940  0.80630  Biso   1.000  H
  C5       1.0000 0.14860  0.83490  0.22410  Biso   1.000  C
  C6       1.0000 0.85140  0.33490  0.27590  Biso   1.000  C
  C7       1.0000 0.85140  0.16510  0.77590  Biso   1.000  C
  C8       1.0000 0.14860  0.66510  0.72410  Biso   1.000  C
  C9       1.0000 0.16160  0.88320  0.11810  Biso   1.000  C
  C10      1.0000 0.83840  0.38320  0.38190  Biso   1.000  C
  C11      1.0000 0.83840  0.11680  0.88190  Biso   1.000  C
  C12      1.0000 0.16160  0.61680  0.61810  Biso   1.000  C
  C13      1.0000 0.16550  0.93420  0.05800  Biso   1.000  C
  C14      1.0000 0.83450  0.43420  0.44200  Biso   1.000  C
  C15      1.0000 0.83450  0.06580  0.94200  Biso   1.000  C
  C16      1.0000 0.16550  0.56580  0.55800  Biso   1.000  C
  H21      1.0000 0.17120  0.99980  0.05910  Biso   1.000  H
  H22      1.0000 0.82880  0.49980  0.44090  Biso   1.000  H
  H23      1.0000 0.82880  0.00020  0.94090  Biso   1.000  H
  H24      1.0000 0.17120  0.50020  0.55910  Biso   1.000  H
  C17      1.0000 0.16090  0.88500  0.99660  Biso   1.000  C
  C18      1.0000 0.83910  0.38500  0.50340  Biso   1.000  C
  C19      1.0000 0.83910  0.11500  0.00340  Biso   1.000  C
  C20      1.0000 0.16090  0.61500  0.49660  Biso   1.000  C
  H25      1.0000 0.16080  0.91800  0.95490  Biso   1.000  H
  H26      1.0000 0.83920  0.41800  0.54510  Biso   1.000  H
  H27      1.0000 0.83920  0.08200  0.04510  Biso   1.000  H
  H28      1.0000 0.16080  0.58200  0.45490  Biso   1.000  H
  C21      1.0000 0.15630  0.78550  0.99490  Biso   1.000  C
  C22      1.0000 0.84370  0.28550  0.50510  Biso   1.000  C
  C23      1.0000 0.84370  0.21450  0.00510  Biso   1.000  C
  C24      1.0000 0.15630  0.71450  0.49490  Biso   1.000  C
  H29      1.0000 0.15420  0.75400  0.95230  Biso   1.000  H
  H30      1.0000 0.84580  0.25400  0.54770  Biso   1.000  H
  H31      1.0000 0.84580  0.24600  0.04770  Biso   1.000  H
  H32      1.0000 0.15420  0.74600  0.45230  Biso   1.000  H
  C25      1.0000 0.15480  0.73490  0.05470  Biso   1.000  C
  C26      1.0000 0.84520  0.23490  0.44530  Biso   1.000  C
  C27      1.0000 0.84520  0.26510  0.94530  Biso   1.000  C
  C28      1.0000 0.15480  0.76510  0.55470  Biso   1.000  C
  H33      1.0000 0.15290  0.66930  0.05390  Biso   1.000  H
  H34      1.0000 0.84710  0.16930  0.44610  Biso   1.000  H
  H35      1.0000 0.84710  0.33070  0.94610  Biso   1.000  H
  H36      1.0000 0.15290  0.83070  0.55390  Biso   1.000  H
  C29      1.0000 0.15630  0.78460  0.11690  Biso   1.000  C
  C30      1.0000 0.84370  0.28460  0.38310  Biso   1.000  C
  C31      1.0000 0.84370  0.21540  0.88310  Biso   1.000  C
  C32      1.0000 0.15630  0.71540  0.61690  Biso   1.000  C
  C33      1.0000 0.19460  0.97060  0.39170  Biso   1.000  C
  C34      1.0000 0.80540  0.47060  0.10830  Biso   1.000  C
  C35      1.0000 0.80540  0.02940  0.60830  Biso   1.000  C
  C36      1.0000 0.19460  0.52940  0.89170  Biso   1.000  C
  H37      1.0000 0.30430  0.93570  0.41390  Biso   1.000  H
  H38      1.0000 0.69570  0.43570  0.08610  Biso   1.000  H
  H39      1.0000 0.69570  0.06430  0.58610  Biso   1.000  H
  H40      1.0000 0.30430  0.56430  0.91390  Biso   1.000  H
  H41      1.0000 0.11020  0.95980  0.41970  Biso   1.000  H
  H42      1.0000 0.88980  0.45980  0.08030  Biso   1.000  H
  H43      1.0000 0.88980  0.04020  0.58030  Biso   1.000  H
  H44      1.0000 0.11020  0.54020  0.91970  Biso   1.000  H
  C37      1.0000 0.23490  0.07400  0.38960  Biso   1.000  C
  C38      1.0000 0.76510  0.57400  0.11040  Biso   1.000  C
  C39      1.0000 0.76510  0.92600  0.61040  Biso   1.000  C
  C40      1.0000 0.23490  0.42600  0.88960  Biso   1.000  C
  C41      1.0000 0.29220  0.20770  0.34730  Biso   1.000  C
  C42      1.0000 0.70780  0.70770  0.15270  Biso   1.000  C
  C43      1.0000 0.70780  0.79230  0.65270  Biso   1.000  C
  C44      1.0000 0.29220  0.29230  0.84730  Biso   1.000  C
  C45      1.0000 0.32250  0.28180  0.30570  Biso   1.000  C
  C46      1.0000 0.67750  0.78180  0.19430  Biso   1.000  C
  C47      1.0000 0.67750  0.71820  0.69430  Biso   1.000  C
  C48      1.0000 0.32250  0.21820  0.80570  Biso   1.000  C
  H45      1.0000 0.31680  0.27310  0.25730  Biso   1.000  H
  H46      1.0000 0.68320  0.77310  0.24270  Biso   1.000  H
  H47      1.0000 0.68320  0.72690  0.74270  Biso   1.000  H
  H48      1.0000 0.31680  0.22690  0.75730  Biso   1.000  H
  C49      1.0000 0.36150  0.36880  0.33800  Biso   1.000  C
  C50      1.0000 0.63850  0.86880  0.16200  Biso   1.000  C
  C51      1.0000 0.63850  0.63120  0.66200  Biso   1.000  C
  C52      1.0000 0.36150  0.13120  0.83800  Biso   1.000  C
  H49      1.0000 0.38460  0.41950  0.31130  Biso   1.000  H
  H50      1.0000 0.61540  0.91950  0.18870  Biso   1.000  H
  H51      1.0000 0.61540  0.58050  0.68870  Biso   1.000  H
  H52      1.0000 0.38460  0.08050  0.81130  Biso   1.000  H
  C53      1.0000 0.36710  0.38220  0.41040  Biso   1.000  C
  C54      1.0000 0.63290  0.88220  0.08960  Biso   1.000  C
  C55      1.0000 0.63290  0.61780  0.58960  Biso   1.000  C
  C56      1.0000 0.36710  0.11780  0.91040  Biso   1.000  C
  H53      1.0000 0.39220  0.44200  0.43060  Biso   1.000  H
  H54      1.0000 0.60780  0.94200  0.06940  Biso   1.000  H
  H55      1.0000 0.60780  0.55800  0.56940  Biso   1.000  H
  H56      1.0000 0.39220  0.05800  0.93060  Biso   1.000  H
  C57      1.0000 0.33640  0.30920  0.45270  Biso   1.000  C
  C58      1.0000 0.66360  0.80920  0.04730  Biso   1.000  C
  C59      1.0000 0.66360  0.69080  0.54730  Biso   1.000  C
  C60      1.0000 0.33640  0.19080  0.95270  Biso   1.000  C
  H57      1.0000 0.34020  0.31820  0.50090  Biso   1.000  H
  H58      1.0000 0.65980  0.81820  0.99910  Biso   1.000  H
  H59      1.0000 0.65980  0.68180  0.49910  Biso   1.000  H
  H60      1.0000 0.34020  0.18180  0.00090  Biso   1.000  H
  C61      1.0000 0.29940  0.22150  0.41950  Biso   1.000  C
  C62      1.0000 0.70060  0.72150  0.08050  Biso   1.000  C
  C63      1.0000 0.70060  0.77850  0.58050  Biso   1.000  C
  C64      1.0000 0.29940  0.27850  0.91950  Biso   1.000  C
  C65      1.0000 0.46020  0.11160  0.17260  Biso   1.000  C
  C66      1.0000 0.53980  0.61160  0.32740  Biso   1.000  C
  C67      1.0000 0.53980  0.88840  0.82740  Biso   1.000  C
  C68      1.0000 0.46020  0.38840  0.67260  Biso   1.000  C
  C69      1.0000 0.75890  0.10990  0.17620  Biso   1.000  C
  C70      1.0000 0.24110  0.60990  0.32380  Biso   1.000  C
  C71      1.0000 0.24110  0.89010  0.82380  Biso   1.000  C
  C72      1.0000 0.75890  0.39010  0.67620  Biso   1.000  C
