data_image0
_cell_length_a       8.3308
_cell_length_b       14.8945
_cell_length_c       18.3046
_cell_angle_alpha    90
_cell_angle_beta     99.298
_cell_angle_gamma    90

_symmetry_space_group_name_H-M    "P 1"
_symmetry_int_tables_number       1

loop_
  _symmetry_equiv_pos_as_xyz
  'x, y, z'

loop_
  _atom_site_label
  _atom_site_occupancy
  _atom_site_fract_x
  _atom_site_fract_y
  _atom_site_fract_z
  _atom_site_thermal_displace_type
  _atom_site_B_iso_or_equiv
  _atom_site_type_symbol
  Cu1      1.0000 0.27359  0.00081  0.31689  Biso   1.000  Cu
  Cu2      1.0000 0.72641  0.50081  0.18311  Biso   1.000  Cu
  Cu3      1.0000 0.72641  0.99919  0.68311  Biso   1.000  Cu
  Cu4      1.0000 0.27359  0.49919  0.81689  Biso   1.000  Cu
  O1       1.0000 0.27540  0.08243  0.39978  Biso   1.000  O
  O2       1.0000 0.72460  0.58243  0.10022  Biso   1.000  O
  O3       1.0000 0.72460  0.91757  0.60022  Biso   1.000  O
  O4       1.0000 0.27540  0.41757  0.89978  Biso   1.000  O
  O5       1.0000 0.27670  0.09957  0.24624  Biso   1.000  O
  O6       1.0000 0.72330  0.59957  0.25376  Biso   1.000  O
  O7       1.0000 0.72330  0.90043  0.75376  Biso   1.000  O
  O8       1.0000 0.27670  0.40043  0.74624  Biso   1.000  O
  O9       1.0000 0.27850  0.92091  0.23349  Biso   1.000  O
  O10      1.0000 0.72150  0.42091  0.26651  Biso   1.000  O
  O11      1.0000 0.72150  0.07909  0.76651  Biso   1.000  O
  O12      1.0000 0.27850  0.57909  0.73349  Biso   1.000  O
  O13      1.0000 0.27960  0.90002  0.38656  Biso   1.000  O
  O14      1.0000 0.72040  0.40002  0.11344  Biso   1.000  O
  O15      1.0000 0.72040  0.09998  0.61344  Biso   1.000  O
  O16      1.0000 0.27960  0.59998  0.88656  Biso   1.000  O
  N1       1.0000 0.58040  0.01113  0.34361  Biso   1.000  N
  N2       1.0000 0.41960  0.51113  0.15639  Biso   1.000  N
  N3       1.0000 0.41960  0.98887  0.65639  Biso   1.000  N
  N4       1.0000 0.58040  0.48887  0.84361  Biso   1.000  N
  N5       1.0000 0.91980  0.00928  0.39796  Biso   1.000  N
  N6       1.0000 0.08020  0.50928  0.10204  Biso   1.000  N
  N7       1.0000 0.08020  0.99072  0.60204  Biso   1.000  N
  N8       1.0000 0.91980  0.49072  0.89796  Biso   1.000  N
  N9       1.0000 0.97600  0.00491  0.27847  Biso   1.000  N
  N10      1.0000 0.02400  0.50491  0.22153  Biso   1.000  N
  N11      1.0000 0.02400  0.99509  0.72153  Biso   1.000  N
  N12      1.0000 0.97600  0.49509  0.77847  Biso   1.000  N
  C1       1.0000 0.25010  0.16499  0.39271  Biso   1.000  C
  C2       1.0000 0.74990  0.66499  0.10729  Biso   1.000  C
  C3       1.0000 0.74990  0.83501  0.60729  Biso   1.000  C
  C4       1.0000 0.25010  0.33501  0.89271  Biso   1.000  C
  C5       1.0000 0.23570  0.21156  0.46636  Biso   1.000  C
  C6       1.0000 0.76430  0.71156  0.03364  Biso   1.000  C
  C7       1.0000 0.76430  0.78844  0.53364  Biso   1.000  C
  C8       1.0000 0.23570  0.28844  0.96636  Biso   1.000  C
  C9       1.0000 0.23370  0.21707  0.32907  Biso   1.000  C
  C10      1.0000 0.76630  0.71707  0.17093  Biso   1.000  C
  C11      1.0000 0.76630  0.78293  0.67093  Biso   1.000  C
  C12      1.0000 0.23370  0.28293  0.82907  Biso   1.000  C
  H1       1.0000 0.20860  0.27910  0.33170  Biso   1.000  H
  H2       1.0000 0.79140  0.77910  0.16830  Biso   1.000  H
  H3       1.0000 0.79140  0.72090  0.66830  Biso   1.000  H
  H4       1.0000 0.20860  0.22090  0.83170  Biso   1.000  H
  C13      1.0000 0.25360  0.17957  0.26119  Biso   1.000  C
  C14      1.0000 0.74640  0.67957  0.23881  Biso   1.000  C
  C15      1.0000 0.74640  0.82043  0.73881  Biso   1.000  C
  C16      1.0000 0.25360  0.32043  0.76119  Biso   1.000  C
  C17      1.0000 0.24960  0.24378  0.19481  Biso   1.000  C
  C18      1.0000 0.75040  0.74378  0.30519  Biso   1.000  C
  C19      1.0000 0.75040  0.75622  0.80519  Biso   1.000  C
  C20      1.0000 0.24960  0.25622  0.69481  Biso   1.000  C
  C21      1.0000 0.26120  0.83715  0.23547  Biso   1.000  C
  C22      1.0000 0.73880  0.33715  0.26453  Biso   1.000  C
  C23      1.0000 0.73880  0.16285  0.76453  Biso   1.000  C
  C24      1.0000 0.26120  0.66285  0.73547  Biso   1.000  C
  C25      1.0000 0.25480  0.79385  0.15922  Biso   1.000  C
  C26      1.0000 0.74520  0.29385  0.34078  Biso   1.000  C
  C27      1.0000 0.74520  0.20615  0.84078  Biso   1.000  C
  C28      1.0000 0.25480  0.70615  0.65922  Biso   1.000  C
  C29      1.0000 0.24890  0.78356  0.29576  Biso   1.000  C
  C30      1.0000 0.75110  0.28356  0.20424  Biso   1.000  C
  C31      1.0000 0.75110  0.21644  0.70424  Biso   1.000  C
  C32      1.0000 0.24890  0.71644  0.79576  Biso   1.000  C
  H5       1.0000 0.22990  0.72100  0.28870  Biso   1.000  H
  H6       1.0000 0.77010  0.22100  0.21130  Biso   1.000  H
  H7       1.0000 0.77010  0.27900  0.71130  Biso   1.000  H
  H8       1.0000 0.22990  0.77900  0.78870  Biso   1.000  H
  C33      1.0000 0.26400  0.81968  0.36738  Biso   1.000  C
  C34      1.0000 0.73600  0.31968  0.13262  Biso   1.000  C
  C35      1.0000 0.73600  0.18032  0.63262  Biso   1.000  C
  C36      1.0000 0.26400  0.68032  0.86738  Biso   1.000  C
  C37      1.0000 0.26380  0.75206  0.43102  Biso   1.000  C
  C38      1.0000 0.73620  0.25206  0.06898  Biso   1.000  C
  C39      1.0000 0.73620  0.24794  0.56898  Biso   1.000  C
  C40      1.0000 0.26380  0.74794  0.93102  Biso   1.000  C
  C41      1.0000 0.92310  0.00321  0.20649  Biso   1.000  C
  C42      1.0000 0.07690  0.50321  0.29351  Biso   1.000  C
  C43      1.0000 0.07690  0.99679  0.79351  Biso   1.000  C
  C44      1.0000 0.92310  0.49679  0.70649  Biso   1.000  C
  H9       1.0000 0.00190  0.00110  0.17440  Biso   1.000  H
  H10      1.0000 0.99810  0.50110  0.32560  Biso   1.000  H
  H11      1.0000 0.99810  0.99890  0.82560  Biso   1.000  H
  H12      1.0000 0.00190  0.49890  0.67440  Biso   1.000  H
  C45      1.0000 0.75780  0.00433  0.17401  Biso   1.000  C
  C46      1.0000 0.24220  0.50433  0.32599  Biso   1.000  C
  C47      1.0000 0.24220  0.99567  0.82599  Biso   1.000  C
  C48      1.0000 0.75780  0.49567  0.67401  Biso   1.000  C
  H13      1.0000 0.72750  0.00370  0.12170  Biso   1.000  H
  H14      1.0000 0.27250  0.50370  0.37830  Biso   1.000  H
  H15      1.0000 0.27250  0.99630  0.87830  Biso   1.000  H
  H16      1.0000 0.72750  0.49630  0.62170  Biso   1.000  H
  C49      1.0000 0.64110  0.00636  0.21927  Biso   1.000  C
  C50      1.0000 0.35890  0.50636  0.28073  Biso   1.000  C
  C51      1.0000 0.35890  0.99364  0.78073  Biso   1.000  C
  C52      1.0000 0.64110  0.49364  0.71927  Biso   1.000  C
  H17      1.0000 0.52870  0.00630  0.19900  Biso   1.000  H
  H18      1.0000 0.47130  0.50630  0.30100  Biso   1.000  H
  H19      1.0000 0.47130  0.99370  0.80100  Biso   1.000  H
  H20      1.0000 0.52870  0.49370  0.69900  Biso   1.000  H
  C53      1.0000 0.69270  0.00848  0.29628  Biso   1.000  C
  C54      1.0000 0.30730  0.50848  0.20372  Biso   1.000  C
  C55      1.0000 0.30730  0.99152  0.70372  Biso   1.000  C
  C56      1.0000 0.69270  0.49152  0.79628  Biso   1.000  C
  C57      1.0000 0.64040  0.01465  0.41470  Biso   1.000  C
  C58      1.0000 0.35960  0.51465  0.08530  Biso   1.000  C
  C59      1.0000 0.35960  0.98535  0.58530  Biso   1.000  C
  C60      1.0000 0.64040  0.48535  0.91470  Biso   1.000  C
  H21      1.0000 0.56700  0.01800  0.44930  Biso   1.000  H
  H22      1.0000 0.43300  0.51800  0.05070  Biso   1.000  H
  H23      1.0000 0.43300  0.98200  0.55070  Biso   1.000  H
  H24      1.0000 0.56700  0.48200  0.94930  Biso   1.000  H
  C61      1.0000 0.80920  0.01370  0.44164  Biso   1.000  C
  C62      1.0000 0.19080  0.51370  0.05836  Biso   1.000  C
  C63      1.0000 0.19080  0.98630  0.55836  Biso   1.000  C
  C64      1.0000 0.80920  0.48630  0.94164  Biso   1.000  C
  H25      1.0000 0.84440  0.01640  0.49360  Biso   1.000  H
  H26      1.0000 0.15560  0.51640  0.00640  Biso   1.000  H
  H27      1.0000 0.15560  0.98360  0.50640  Biso   1.000  H
  H28      1.0000 0.84440  0.48360  0.99360  Biso   1.000  H
  C65      1.0000 0.86120  0.00757  0.32398  Biso   1.000  C
  C66      1.0000 0.13880  0.50757  0.17602  Biso   1.000  C
  C67      1.0000 0.13880  0.99243  0.67602  Biso   1.000  C
  C68      1.0000 0.86120  0.49243  0.82398  Biso   1.000  C
  F1       1.0000 0.24730  0.29989  0.46352  Biso   1.000  F
  F2       1.0000 0.75270  0.79989  0.03648  Biso   1.000  F
  F3       1.0000 0.75270  0.70011  0.53648  Biso   1.000  F
  F4       1.0000 0.24730  0.20011  0.96352  Biso   1.000  F
  F5       1.0000 0.09420  0.19149  0.48684  Biso   1.000  F
  F6       1.0000 0.90580  0.69149  0.01316  Biso   1.000  F
  F7       1.0000 0.90580  0.80851  0.51316  Biso   1.000  F
  F8       1.0000 0.09420  0.30851  0.98684  Biso   1.000  F
  F9       1.0000 0.35190  0.18223  0.52021  Biso   1.000  F
  F10      1.0000 0.64810  0.68223  0.97979  Biso   1.000  F
  F11      1.0000 0.64810  0.81777  0.47979  Biso   1.000  F
  F12      1.0000 0.35190  0.31777  0.02021  Biso   1.000  F
  F13      1.0000 0.23020  0.20089  0.13157  Biso   1.000  F
  F14      1.0000 0.76980  0.70089  0.36843  Biso   1.000  F
  F15      1.0000 0.76980  0.79911  0.86843  Biso   1.000  F
  F16      1.0000 0.23020  0.29911  0.63157  Biso   1.000  F
  F17      1.0000 0.38310  0.29265  0.20176  Biso   1.000  F
  F18      1.0000 0.61690  0.79265  0.29824  Biso   1.000  F
  F19      1.0000 0.61690  0.70735  0.79824  Biso   1.000  F
  F20      1.0000 0.38310  0.20735  0.70176  Biso   1.000  F
  F21      1.0000 0.12840  0.30275  0.19024  Biso   1.000  F
  F22      1.0000 0.87160  0.80275  0.30976  Biso   1.000  F
  F23      1.0000 0.87160  0.69725  0.80976  Biso   1.000  F
  F24      1.0000 0.12840  0.19725  0.69024  Biso   1.000  F
  F25      1.0000 0.23760  0.70722  0.15967  Biso   1.000  F
  F26      1.0000 0.76240  0.20722  0.34033  Biso   1.000  F
  F27      1.0000 0.76240  0.29278  0.84033  Biso   1.000  F
  F28      1.0000 0.23760  0.79278  0.65967  Biso   1.000  F
  F29      1.0000 0.13180  0.82594  0.11209  Biso   1.000  F
  F30      1.0000 0.86820  0.32594  0.38791  Biso   1.000  F
  F31      1.0000 0.86820  0.17406  0.88791  Biso   1.000  F
  F32      1.0000 0.13180  0.67406  0.61209  Biso   1.000  F
  F33      1.0000 0.38550  0.81437  0.13076  Biso   1.000  F
  F34      1.0000 0.61450  0.31437  0.36924  Biso   1.000  F
  F35      1.0000 0.61450  0.18563  0.86924  Biso   1.000  F
  F36      1.0000 0.38550  0.68563  0.63076  Biso   1.000  F
  F37      1.0000 0.28000  0.79159  0.49584  Biso   1.000  F
  F38      1.0000 0.72000  0.29159  0.00416  Biso   1.000  F
  F39      1.0000 0.72000  0.20841  0.50416  Biso   1.000  F
  F40      1.0000 0.28000  0.70841  0.99584  Biso   1.000  F
  F41      1.0000 0.12560  0.70443  0.42141  Biso   1.000  F
  F42      1.0000 0.87440  0.20443  0.07859  Biso   1.000  F
  F43      1.0000 0.87440  0.29557  0.57859  Biso   1.000  F
  F44      1.0000 0.12560  0.79557  0.92141  Biso   1.000  F
  F45      1.0000 0.38330  0.69226  0.43264  Biso   1.000  F
  F46      1.0000 0.61670  0.19226  0.06736  Biso   1.000  F
  F47      1.0000 0.61670  0.30774  0.56736  Biso   1.000  F
  F48      1.0000 0.38330  0.80774  0.93264  Biso   1.000  F
