data_image0
_cell_length_a       11.115
_cell_length_b       10.7961
_cell_length_c       12.6193
_cell_angle_alpha    90
_cell_angle_beta     101.621
_cell_angle_gamma    90

_symmetry_space_group_name_H-M    "P 1"
_symmetry_int_tables_number       1

loop_
  _symmetry_equiv_pos_as_xyz
  'x, y, z'

loop_
  _atom_site_label
  _atom_site_occupancy
  _atom_site_fract_x
  _atom_site_fract_y
  _atom_site_fract_z
  _atom_site_thermal_displace_type
  _atom_site_B_iso_or_equiv
  _atom_site_type_symbol
  Cu1      1.0000 0.50000  0.00000  0.50000  Biso   1.000  Cu
  Cu2      1.0000 0.50000  0.50000  0.00000  Biso   1.000  Cu
  Co1      1.0000 0.00000  0.50000  0.50000  Biso   1.000  Co
  Co2      1.0000 0.00000  0.00000  0.00000  Biso   1.000  Co
  N1       1.0000 0.34160  0.06430  0.41702  Biso   1.000  N
  N2       1.0000 0.34160  0.43570  0.91702  Biso   1.000  N
  N3       1.0000 0.65840  0.93570  0.58298  Biso   1.000  N
  N4       1.0000 0.65840  0.56430  0.08298  Biso   1.000  N
  C1       1.0000 0.33960  0.05710  0.30020  Biso   1.000  C
  C2       1.0000 0.33960  0.44290  0.80020  Biso   1.000  C
  C3       1.0000 0.66040  0.94290  0.69980  Biso   1.000  C
  C4       1.0000 0.66040  0.55710  0.19980  Biso   1.000  C
  H1       1.0000 0.28650  0.12100  0.26210  Biso   1.000  H
  H2       1.0000 0.28650  0.37900  0.76210  Biso   1.000  H
  H3       1.0000 0.71350  0.87900  0.73790  Biso   1.000  H
  H4       1.0000 0.71350  0.62100  0.23790  Biso   1.000  H
  H5       1.0000 0.30870  0.97710  0.27220  Biso   1.000  H
  H6       1.0000 0.30870  0.52290  0.77220  Biso   1.000  H
  H7       1.0000 0.69130  0.02290  0.72780  Biso   1.000  H
  H8       1.0000 0.69130  0.47710  0.22780  Biso   1.000  H
  C5       1.0000 0.46910  0.07510  0.28430  Biso   1.000  C
  C6       1.0000 0.46910  0.42490  0.78430  Biso   1.000  C
  C7       1.0000 0.53090  0.92490  0.71570  Biso   1.000  C
  C8       1.0000 0.53090  0.57510  0.21570  Biso   1.000  C
  H9       1.0000 0.47350  0.06020  0.20940  Biso   1.000  H
  H10      1.0000 0.47350  0.43980  0.70940  Biso   1.000  H
  H11      1.0000 0.52650  0.93980  0.79060  Biso   1.000  H
  H12      1.0000 0.52650  0.56020  0.29060  Biso   1.000  H
  H13      1.0000 0.49610  0.15920  0.30280  Biso   1.000  H
  H14      1.0000 0.49610  0.34080  0.80280  Biso   1.000  H
  H15      1.0000 0.50390  0.84080  0.69720  Biso   1.000  H
  H16      1.0000 0.50390  0.65920  0.19720  Biso   1.000  H
  N5       1.0000 0.54760  0.98630  0.35545  Biso   1.000  N
  N6       1.0000 0.54760  0.51370  0.85545  Biso   1.000  N
  N7       1.0000 0.45240  0.01370  0.64455  Biso   1.000  N
  N8       1.0000 0.45240  0.48630  0.14455  Biso   1.000  N
  H17      1.0000 0.51830  0.91090  0.33020  Biso   1.000  H
  H18      1.0000 0.51830  0.58910  0.83020  Biso   1.000  H
  H19      1.0000 0.48170  0.08910  0.66980  Biso   1.000  H
  H20      1.0000 0.48170  0.41090  0.16980  Biso   1.000  H
  C9       1.0000 0.68150  0.98140  0.35060  Biso   1.000  C
  C10      1.0000 0.68150  0.51860  0.85060  Biso   1.000  C
  C11      1.0000 0.31850  0.01860  0.64940  Biso   1.000  C
  C12      1.0000 0.31850  0.48140  0.14940  Biso   1.000  C
  C13      1.0000 0.73840  0.87590  0.42500  Biso   1.000  C
  C14      1.0000 0.73840  0.62410  0.92500  Biso   1.000  C
  C15      1.0000 0.26160  0.12410  0.57500  Biso   1.000  C
  C16      1.0000 0.26160  0.37590  0.07500  Biso   1.000  C
  H21      1.0000 0.69210  0.80130  0.40150  Biso   1.000  H
  H22      1.0000 0.69210  0.69870  0.90150  Biso   1.000  H
  H23      1.0000 0.30790  0.19870  0.59850  Biso   1.000  H
  H24      1.0000 0.30790  0.30130  0.09850  Biso   1.000  H
  H25      1.0000 0.82110  0.86290  0.41330  Biso   1.000  H
  H26      1.0000 0.82110  0.63710  0.91330  Biso   1.000  H
  H27      1.0000 0.17890  0.13710  0.58670  Biso   1.000  H
  H28      1.0000 0.17890  0.36290  0.08670  Biso   1.000  H
  C17      1.0000 0.25380  0.11150  0.45440  Biso   1.000  C
  C18      1.0000 0.25380  0.38850  0.95440  Biso   1.000  C
  C19      1.0000 0.74620  0.88850  0.54560  Biso   1.000  C
  C20      1.0000 0.74620  0.61150  0.04560  Biso   1.000  C
  C21      1.0000 0.69570  0.94960  0.23510  Biso   1.000  C
  C22      1.0000 0.69570  0.55040  0.73510  Biso   1.000  C
  C23      1.0000 0.30430  0.05040  0.76490  Biso   1.000  C
  C24      1.0000 0.30430  0.44960  0.26490  Biso   1.000  C
  H29      1.0000 0.66100  0.86940  0.21550  Biso   1.000  H
  H30      1.0000 0.66100  0.63060  0.71550  Biso   1.000  H
  H31      1.0000 0.33900  0.13060  0.78450  Biso   1.000  H
  H32      1.0000 0.33900  0.36940  0.28450  Biso   1.000  H
  H33      1.0000 0.78120  0.94910  0.23190  Biso   1.000  H
  H34      1.0000 0.78120  0.55090  0.73190  Biso   1.000  H
  H35      1.0000 0.21880  0.05090  0.76810  Biso   1.000  H
  H36      1.0000 0.21880  0.44910  0.26810  Biso   1.000  H
  H37      1.0000 0.65360  0.01050  0.18570  Biso   1.000  H
  H38      1.0000 0.65360  0.48950  0.68570  Biso   1.000  H
  H39      1.0000 0.34640  0.98950  0.81430  Biso   1.000  H
  H40      1.0000 0.34640  0.51050  0.31430  Biso   1.000  H
  C25      1.0000 0.74210  0.10460  0.38570  Biso   1.000  C
  C26      1.0000 0.74210  0.39540  0.88570  Biso   1.000  C
  C27      1.0000 0.25790  0.89540  0.61430  Biso   1.000  C
  C28      1.0000 0.25790  0.60460  0.11430  Biso   1.000  C
  H41      1.0000 0.70950  0.16710  0.33370  Biso   1.000  H
  H42      1.0000 0.70950  0.33290  0.83370  Biso   1.000  H
  H43      1.0000 0.29050  0.83290  0.66630  Biso   1.000  H
  H44      1.0000 0.29050  0.66710  0.16630  Biso   1.000  H
  H45      1.0000 0.82910  0.09770  0.39040  Biso   1.000  H
  H46      1.0000 0.82910  0.40230  0.89040  Biso   1.000  H
  H47      1.0000 0.17090  0.90230  0.60960  Biso   1.000  H
  H48      1.0000 0.17090  0.59770  0.10960  Biso   1.000  H
  H49      1.0000 0.72600  0.12700  0.45510  Biso   1.000  H
  H50      1.0000 0.72600  0.37300  0.95510  Biso   1.000  H
  H51      1.0000 0.27400  0.87300  0.54490  Biso   1.000  H
  H52      1.0000 0.27400  0.62700  0.04490  Biso   1.000  H
  C29      1.0000 0.13850  0.16470  0.38700  Biso   1.000  C
  C30      1.0000 0.13850  0.33530  0.88700  Biso   1.000  C
  C31      1.0000 0.86150  0.83530  0.61300  Biso   1.000  C
  C32      1.0000 0.86150  0.66470  0.11300  Biso   1.000  C
  H53      1.0000 0.13550  0.14600  0.31220  Biso   1.000  H
  H54      1.0000 0.13550  0.35400  0.81220  Biso   1.000  H
  H55      1.0000 0.86450  0.85400  0.68780  Biso   1.000  H
  H56      1.0000 0.86450  0.64600  0.18780  Biso   1.000  H
  H57      1.0000 0.06830  0.12930  0.40920  Biso   1.000  H
  H58      1.0000 0.06830  0.37070  0.90920  Biso   1.000  H
  H59      1.0000 0.93170  0.87070  0.59080  Biso   1.000  H
  H60      1.0000 0.93170  0.62930  0.09080  Biso   1.000  H
  H61      1.0000 0.13810  0.25290  0.39660  Biso   1.000  H
  H62      1.0000 0.13810  0.24710  0.89660  Biso   1.000  H
  H63      1.0000 0.86190  0.74710  0.60340  Biso   1.000  H
  H64      1.0000 0.86190  0.75290  0.10340  Biso   1.000  H
  N9       1.0000 0.45010  0.75560  0.44110  Biso   1.000  N
  N10      1.0000 0.45010  0.74440  0.94110  Biso   1.000  N
  N11      1.0000 0.54990  0.24440  0.55890  Biso   1.000  N
  N12      1.0000 0.54990  0.25560  0.05890  Biso   1.000  N
  C33      1.0000 0.41600  0.67770  0.48910  Biso   1.000  C
  C34      1.0000 0.41600  0.82230  0.98910  Biso   1.000  C
  C35      1.0000 0.58400  0.32230  0.51090  Biso   1.000  C
  C36      1.0000 0.58400  0.17770  0.01090  Biso   1.000  C
  N13      1.0000 0.38710  0.59280  0.55190  Biso   1.000  N
  N14      1.0000 0.38710  0.90720  0.05190  Biso   1.000  N
  N15      1.0000 0.61290  0.40720  0.44810  Biso   1.000  N
  N16      1.0000 0.61290  0.09280  0.94810  Biso   1.000  N
  C37      1.0000 0.28340  0.53370  0.52750  Biso   1.000  C
  C38      1.0000 0.28340  0.96630  0.02750  Biso   1.000  C
  C39      1.0000 0.71660  0.46630  0.47250  Biso   1.000  C
  C40      1.0000 0.71660  0.03370  0.97250  Biso   1.000  C
  N17      1.0000 0.19560  0.47530  0.51490  Biso   1.000  N
  N18      1.0000 0.19560  0.02470  0.01490  Biso   1.000  N
  N19      1.0000 0.80440  0.52470  0.48510  Biso   1.000  N
  N20      1.0000 0.80440  0.97530  0.98510  Biso   1.000  N
  N21      1.0000 0.01840  0.67460  0.42826  Biso   1.000  N
  N22      1.0000 0.01840  0.82540  0.92826  Biso   1.000  N
  N23      1.0000 0.98160  0.32540  0.57174  Biso   1.000  N
  N24      1.0000 0.98160  0.17460  0.07174  Biso   1.000  N
  C41      1.0000 0.04440  0.75750  0.38370  Biso   1.000  C
  C42      1.0000 0.04440  0.74250  0.88370  Biso   1.000  C
  C43      1.0000 0.95560  0.24250  0.61630  Biso   1.000  C
  C44      1.0000 0.95560  0.25750  0.11630  Biso   1.000  C
  N25      1.0000 0.05710  0.87260  0.35100  Biso   1.000  N
  N26      1.0000 0.05710  0.62740  0.85100  Biso   1.000  N
  N27      1.0000 0.94290  0.12740  0.64900  Biso   1.000  N
  N28      1.0000 0.94290  0.37260  0.14900  Biso   1.000  N
  N29      1.0000 0.11040  0.83900  0.33690  Biso   1.000  N
  N30      1.0000 0.11040  0.66100  0.83690  Biso   1.000  N
  N31      1.0000 0.88960  0.16100  0.66310  Biso   1.000  N
  N32      1.0000 0.88960  0.33900  0.16310  Biso   1.000  N
  C45      1.0000 0.05340  0.88680  0.24310  Biso   1.000  C
  C46      1.0000 0.05340  0.61320  0.74310  Biso   1.000  C
  C47      1.0000 0.94660  0.11320  0.75690  Biso   1.000  C
  C48      1.0000 0.94660  0.38680  0.25690  Biso   1.000  C
  N33      1.0000 0.03680  0.92310  0.15753  Biso   1.000  N
  N34      1.0000 0.03680  0.57690  0.65753  Biso   1.000  N
  N35      1.0000 0.96320  0.07690  0.84247  Biso   1.000  N
  N36      1.0000 0.96320  0.42310  0.34247  Biso   1.000  N
