data_image0
_cell_length_a       11.1574
_cell_length_b       10.9042
_cell_length_c       12.664
_cell_angle_alpha    90
_cell_angle_beta     103.013
_cell_angle_gamma    90

_symmetry_space_group_name_H-M    "P 1"
_symmetry_int_tables_number       1

loop_
  _symmetry_equiv_pos_as_xyz
  'x, y, z'

loop_
  _atom_site_label
  _atom_site_occupancy
  _atom_site_fract_x
  _atom_site_fract_y
  _atom_site_fract_z
  _atom_site_thermal_displace_type
  _atom_site_B_iso_or_equiv
  _atom_site_type_symbol
  Cu1      1.0000 0.50000  0.00000  0.50000  Biso   1.000  Cu
  Cu2      1.0000 0.50000  0.50000  0.00000  Biso   1.000  Cu
  Mn1      1.0000 0.00000  0.50000  0.50000  Biso   1.000  Mn
  Mn2      1.0000 0.00000  0.00000  0.00000  Biso   1.000  Mn
  N1       1.0000 0.34271  0.06880  0.41589  Biso   1.000  N
  N2       1.0000 0.34271  0.43120  0.91589  Biso   1.000  N
  N3       1.0000 0.65729  0.93120  0.58411  Biso   1.000  N
  N4       1.0000 0.65729  0.56880  0.08411  Biso   1.000  N
  C1       1.0000 0.33870  0.06180  0.29940  Biso   1.000  C
  C2       1.0000 0.33870  0.43820  0.79940  Biso   1.000  C
  C3       1.0000 0.66130  0.93820  0.70060  Biso   1.000  C
  C4       1.0000 0.66130  0.56180  0.20060  Biso   1.000  C
  H1       1.0000 0.28610  0.12810  0.26050  Biso   1.000  H
  H2       1.0000 0.28610  0.37190  0.76050  Biso   1.000  H
  H3       1.0000 0.71390  0.87190  0.73950  Biso   1.000  H
  H4       1.0000 0.71390  0.62810  0.23950  Biso   1.000  H
  H5       1.0000 0.30390  0.98210  0.27010  Biso   1.000  H
  H6       1.0000 0.30390  0.51790  0.77010  Biso   1.000  H
  H7       1.0000 0.69610  0.01790  0.72990  Biso   1.000  H
  H8       1.0000 0.69610  0.48210  0.22990  Biso   1.000  H
  C5       1.0000 0.46830  0.07530  0.28440  Biso   1.000  C
  C6       1.0000 0.46830  0.42470  0.78440  Biso   1.000  C
  C7       1.0000 0.53170  0.92470  0.71560  Biso   1.000  C
  C8       1.0000 0.53170  0.57530  0.21560  Biso   1.000  C
  H9       1.0000 0.47080  0.05990  0.20790  Biso   1.000  H
  H10      1.0000 0.47080  0.44010  0.70790  Biso   1.000  H
  H11      1.0000 0.52920  0.94010  0.79210  Biso   1.000  H
  H12      1.0000 0.52920  0.55990  0.29210  Biso   1.000  H
  H13      1.0000 0.49900  0.15940  0.30390  Biso   1.000  H
  H14      1.0000 0.49900  0.34060  0.80390  Biso   1.000  H
  H15      1.0000 0.50100  0.84060  0.69610  Biso   1.000  H
  H16      1.0000 0.50100  0.65940  0.19610  Biso   1.000  H
  N5       1.0000 0.54480  0.98534  0.35547  Biso   1.000  N
  N6       1.0000 0.54480  0.51466  0.85547  Biso   1.000  N
  N7       1.0000 0.45520  0.01466  0.64453  Biso   1.000  N
  N8       1.0000 0.45520  0.48534  0.14453  Biso   1.000  N
  H17      1.0000 0.51170  0.91020  0.32900  Biso   1.000  H
  H18      1.0000 0.51170  0.58980  0.82900  Biso   1.000  H
  H19      1.0000 0.48830  0.08980  0.67100  Biso   1.000  H
  H20      1.0000 0.48830  0.41020  0.17100  Biso   1.000  H
  C9       1.0000 0.67760  0.97520  0.35180  Biso   1.000  C
  C10      1.0000 0.67760  0.52480  0.85180  Biso   1.000  C
  C11      1.0000 0.32240  0.02480  0.64820  Biso   1.000  C
  C12      1.0000 0.32240  0.47520  0.14820  Biso   1.000  C
  C13      1.0000 0.73190  0.86980  0.42670  Biso   1.000  C
  C14      1.0000 0.73190  0.63020  0.92670  Biso   1.000  C
  C15      1.0000 0.26810  0.13020  0.57330  Biso   1.000  C
  C16      1.0000 0.26810  0.36980  0.07330  Biso   1.000  C
  H21      1.0000 0.68150  0.79610  0.40230  Biso   1.000  H
  H22      1.0000 0.68150  0.70390  0.90230  Biso   1.000  H
  H23      1.0000 0.31850  0.20390  0.59770  Biso   1.000  H
  H24      1.0000 0.31850  0.29610  0.09770  Biso   1.000  H
  H25      1.0000 0.81520  0.85310  0.41490  Biso   1.000  H
  H26      1.0000 0.81520  0.64690  0.91490  Biso   1.000  H
  H27      1.0000 0.18480  0.14690  0.58510  Biso   1.000  H
  H28      1.0000 0.18480  0.35310  0.08510  Biso   1.000  H
  C17      1.0000 0.25670  0.11800  0.45290  Biso   1.000  C
  C18      1.0000 0.25670  0.38200  0.95290  Biso   1.000  C
  C19      1.0000 0.74330  0.88200  0.54710  Biso   1.000  C
  C20      1.0000 0.74330  0.61800  0.04710  Biso   1.000  C
  C21      1.0000 0.68970  0.94300  0.23680  Biso   1.000  C
  C22      1.0000 0.68970  0.55700  0.73680  Biso   1.000  C
  C23      1.0000 0.31030  0.05700  0.76320  Biso   1.000  C
  C24      1.0000 0.31030  0.44300  0.26320  Biso   1.000  C
  H29      1.0000 0.64430  0.86720  0.21320  Biso   1.000  H
  H30      1.0000 0.64430  0.63280  0.71320  Biso   1.000  H
  H31      1.0000 0.35570  0.13280  0.78680  Biso   1.000  H
  H32      1.0000 0.35570  0.36720  0.28680  Biso   1.000  H
  H33      1.0000 0.77670  0.93130  0.23650  Biso   1.000  H
  H34      1.0000 0.77670  0.56870  0.73650  Biso   1.000  H
  H35      1.0000 0.22330  0.06870  0.76350  Biso   1.000  H
  H36      1.0000 0.22330  0.43130  0.26350  Biso   1.000  H
  H37      1.0000 0.65590  0.00980  0.18730  Biso   1.000  H
  H38      1.0000 0.65590  0.49020  0.68730  Biso   1.000  H
  H39      1.0000 0.34410  0.99020  0.81270  Biso   1.000  H
  H40      1.0000 0.34410  0.50980  0.31270  Biso   1.000  H
  C25      1.0000 0.74400  0.09530  0.38730  Biso   1.000  C
  C26      1.0000 0.74400  0.40470  0.88730  Biso   1.000  C
  C27      1.0000 0.25600  0.90470  0.61270  Biso   1.000  C
  C28      1.0000 0.25600  0.59530  0.11270  Biso   1.000  C
  H41      1.0000 0.71120  0.15970  0.33470  Biso   1.000  H
  H42      1.0000 0.71120  0.34030  0.83470  Biso   1.000  H
  H43      1.0000 0.28880  0.84030  0.66530  Biso   1.000  H
  H44      1.0000 0.28880  0.65970  0.16530  Biso   1.000  H
  H45      1.0000 0.83220  0.08500  0.39120  Biso   1.000  H
  H46      1.0000 0.83220  0.41500  0.89120  Biso   1.000  H
  H47      1.0000 0.16780  0.91500  0.60880  Biso   1.000  H
  H48      1.0000 0.16780  0.58500  0.10880  Biso   1.000  H
  H49      1.0000 0.73140  0.11840  0.45880  Biso   1.000  H
  H50      1.0000 0.73140  0.38160  0.95880  Biso   1.000  H
  H51      1.0000 0.26860  0.88160  0.54120  Biso   1.000  H
  H52      1.0000 0.26860  0.61840  0.04120  Biso   1.000  H
  C29      1.0000 0.14250  0.17380  0.38590  Biso   1.000  C
  C30      1.0000 0.14250  0.32620  0.88590  Biso   1.000  C
  C31      1.0000 0.85750  0.82620  0.61410  Biso   1.000  C
  C32      1.0000 0.85750  0.67380  0.11410  Biso   1.000  C
  H53      1.0000 0.13970  0.15970  0.30890  Biso   1.000  H
  H54      1.0000 0.13970  0.34030  0.80890  Biso   1.000  H
  H55      1.0000 0.86030  0.84030  0.69110  Biso   1.000  H
  H56      1.0000 0.86030  0.65970  0.19110  Biso   1.000  H
  H57      1.0000 0.07040  0.13620  0.40480  Biso   1.000  H
  H58      1.0000 0.07040  0.36380  0.90480  Biso   1.000  H
  H59      1.0000 0.92960  0.86380  0.59520  Biso   1.000  H
  H60      1.0000 0.92960  0.63620  0.09520  Biso   1.000  H
  H61      1.0000 0.14250  0.26220  0.39980  Biso   1.000  H
  H62      1.0000 0.14250  0.23780  0.89980  Biso   1.000  H
  H63      1.0000 0.85750  0.73780  0.60020  Biso   1.000  H
  H64      1.0000 0.85750  0.76220  0.10020  Biso   1.000  H
  N9       1.0000 0.44130  0.76110  0.43790  Biso   1.000  N
  N10      1.0000 0.44130  0.73890  0.93790  Biso   1.000  N
  N11      1.0000 0.55870  0.23890  0.56210  Biso   1.000  N
  N12      1.0000 0.55870  0.26110  0.06210  Biso   1.000  N
  C33      1.0000 0.41200  0.68330  0.48730  Biso   1.000  C
  C34      1.0000 0.41200  0.81670  0.98730  Biso   1.000  C
  C35      1.0000 0.58800  0.31670  0.51270  Biso   1.000  C
  C36      1.0000 0.58800  0.18330  0.01270  Biso   1.000  C
  N13      1.0000 0.38820  0.59950  0.55240  Biso   1.000  N
  N14      1.0000 0.38820  0.90050  0.05240  Biso   1.000  N
  N15      1.0000 0.61180  0.40050  0.44760  Biso   1.000  N
  N16      1.0000 0.61180  0.09950  0.94760  Biso   1.000  N
  C37      1.0000 0.28820  0.53350  0.52850  Biso   1.000  C
  C38      1.0000 0.28820  0.96650  0.02850  Biso   1.000  C
  C39      1.0000 0.71180  0.46650  0.47150  Biso   1.000  C
  C40      1.0000 0.71180  0.03350  0.97150  Biso   1.000  C
  N17      1.0000 0.20400  0.47000  0.51639  Biso   1.000  N
  N18      1.0000 0.20400  0.03000  0.01639  Biso   1.000  N
  N19      1.0000 0.79600  0.53000  0.48361  Biso   1.000  N
  N20      1.0000 0.79600  0.97000  0.98361  Biso   1.000  N
  N21      1.0000 0.02300  0.68440  0.43597  Biso   1.000  N
  N22      1.0000 0.02300  0.81560  0.93597  Biso   1.000  N
  N23      1.0000 0.97700  0.31560  0.56403  Biso   1.000  N
  N24      1.0000 0.97700  0.18440  0.06403  Biso   1.000  N
  C41      1.0000 0.04210  0.77100  0.39410  Biso   1.000  C
  C42      1.0000 0.04210  0.72900  0.89410  Biso   1.000  C
  C43      1.0000 0.95790  0.22900  0.60590  Biso   1.000  C
  C44      1.0000 0.95790  0.27100  0.10590  Biso   1.000  C
  N25      1.0000 0.04690  0.88640  0.35940  Biso   1.000  N
  N26      1.0000 0.04690  0.61360  0.85940  Biso   1.000  N
  N27      1.0000 0.95310  0.11360  0.64060  Biso   1.000  N
  N28      1.0000 0.95310  0.38640  0.14060  Biso   1.000  N
  N29      1.0000 0.10290  0.86110  0.35400  Biso   1.000  N
  N30      1.0000 0.10290  0.63890  0.85400  Biso   1.000  N
  N31      1.0000 0.89710  0.13890  0.64600  Biso   1.000  N
  N32      1.0000 0.89710  0.36110  0.14600  Biso   1.000  N
  C45      1.0000 0.04930  0.90010  0.25390  Biso   1.000  C
  C46      1.0000 0.04930  0.59990  0.75390  Biso   1.000  C
  C47      1.0000 0.95070  0.09990  0.74610  Biso   1.000  C
  C48      1.0000 0.95070  0.40010  0.24610  Biso   1.000  C
  N33      1.0000 0.04000  0.93110  0.16745  Biso   1.000  N
  N34      1.0000 0.04000  0.56890  0.66745  Biso   1.000  N
  N35      1.0000 0.96000  0.06890  0.83255  Biso   1.000  N
  N36      1.0000 0.96000  0.43110  0.33255  Biso   1.000  N
