data_image0
_cell_length_a       10.017
_cell_length_b       14.126
_cell_length_c       16.534
_cell_angle_alpha    90
_cell_angle_beta     102.947
_cell_angle_gamma    90

_symmetry_space_group_name_H-M    "P 1"
_symmetry_int_tables_number       1

loop_
  _symmetry_equiv_pos_as_xyz
  'x, y, z'

loop_
  _atom_site_label
  _atom_site_occupancy
  _atom_site_fract_x
  _atom_site_fract_y
  _atom_site_fract_z
  _atom_site_thermal_displace_type
  _atom_site_B_iso_or_equiv
  _atom_site_type_symbol
  Cu1      1.0000 0.50000  0.00000  0.00000  Biso   1.000  Cu
  Cu2      1.0000 0.00000  0.50000  0.00000  Biso   1.000  Cu
  Cl1      1.0000 0.22977  0.00000  0.90444  Biso   1.000  Cl
  Cl2      1.0000 0.77023  0.00000  0.09556  Biso   1.000  Cl
  Cl3      1.0000 0.72977  0.50000  0.90444  Biso   1.000  Cl
  Cl4      1.0000 0.27023  0.50000  0.09556  Biso   1.000  Cl
  N1       1.0000 0.55030  0.89590  0.92720  Biso   1.000  N
  N2       1.0000 0.44970  0.89590  0.07280  Biso   1.000  N
  N3       1.0000 0.05030  0.39590  0.92720  Biso   1.000  N
  N4       1.0000 0.94970  0.39590  0.07280  Biso   1.000  N
  N5       1.0000 0.44970  0.10410  0.07280  Biso   1.000  N
  N6       1.0000 0.55030  0.10410  0.92720  Biso   1.000  N
  N7       1.0000 0.94970  0.60410  0.07280  Biso   1.000  N
  N8       1.0000 0.05030  0.60410  0.92720  Biso   1.000  N
  N9       1.0000 0.66920  0.78800  0.87300  Biso   1.000  N
  N10      1.0000 0.33080  0.78800  0.12700  Biso   1.000  N
  N11      1.0000 0.16920  0.28800  0.87300  Biso   1.000  N
  N12      1.0000 0.83080  0.28800  0.12700  Biso   1.000  N
  N13      1.0000 0.33080  0.21200  0.12700  Biso   1.000  N
  N14      1.0000 0.66920  0.21200  0.87300  Biso   1.000  N
  N15      1.0000 0.83080  0.71200  0.12700  Biso   1.000  N
  N16      1.0000 0.16920  0.71200  0.87300  Biso   1.000  N
  N17      1.0000 0.53320  0.76760  0.85280  Biso   1.000  N
  N18      1.0000 0.46680  0.76760  0.14720  Biso   1.000  N
  N19      1.0000 0.03320  0.26760  0.85280  Biso   1.000  N
  N20      1.0000 0.96680  0.26760  0.14720  Biso   1.000  N
  N21      1.0000 0.46680  0.23240  0.14720  Biso   1.000  N
  N22      1.0000 0.53320  0.23240  0.85280  Biso   1.000  N
  N23      1.0000 0.96680  0.73240  0.14720  Biso   1.000  N
  N24      1.0000 0.03320  0.73240  0.85280  Biso   1.000  N
  C1       1.0000 0.67480  0.86490  0.91840  Biso   1.000  C
  C2       1.0000 0.32520  0.86490  0.08160  Biso   1.000  C
  C3       1.0000 0.17480  0.36490  0.91840  Biso   1.000  C
  C4       1.0000 0.82520  0.36490  0.08160  Biso   1.000  C
  C5       1.0000 0.32520  0.13510  0.08160  Biso   1.000  C
  C6       1.0000 0.67480  0.13510  0.91840  Biso   1.000  C
  C7       1.0000 0.82520  0.63510  0.08160  Biso   1.000  C
  C8       1.0000 0.17480  0.63510  0.91840  Biso   1.000  C
  H1       1.0000 0.75650  0.89530  0.94230  Biso   1.000  H
  H2       1.0000 0.24350  0.89530  0.05770  Biso   1.000  H
  H3       1.0000 0.25650  0.39530  0.94230  Biso   1.000  H
  H4       1.0000 0.74350  0.39530  0.05770  Biso   1.000  H
  H5       1.0000 0.24350  0.10470  0.05770  Biso   1.000  H
  H6       1.0000 0.75650  0.10470  0.94230  Biso   1.000  H
  H7       1.0000 0.74350  0.60470  0.05770  Biso   1.000  H
  H8       1.0000 0.25650  0.60470  0.94230  Biso   1.000  H
  C9       1.0000 0.46440  0.83150  0.88530  Biso   1.000  C
  C10      1.0000 0.53560  0.83150  0.11470  Biso   1.000  C
  C11      1.0000 0.96440  0.33150  0.88530  Biso   1.000  C
  C12      1.0000 0.03560  0.33150  0.11470  Biso   1.000  C
  C13      1.0000 0.53560  0.16850  0.11470  Biso   1.000  C
  C14      1.0000 0.46440  0.16850  0.88530  Biso   1.000  C
  C15      1.0000 0.03560  0.66850  0.11470  Biso   1.000  C
  C16      1.0000 0.96440  0.66850  0.88530  Biso   1.000  C
  H9       1.0000 0.36990  0.83160  0.87990  Biso   1.000  H
  H10      1.0000 0.63010  0.83160  0.12010  Biso   1.000  H
  H11      1.0000 0.86990  0.33160  0.87990  Biso   1.000  H
  H12      1.0000 0.13010  0.33160  0.12010  Biso   1.000  H
  H13      1.0000 0.63010  0.16840  0.12010  Biso   1.000  H
  H14      1.0000 0.36990  0.16840  0.87990  Biso   1.000  H
  H15      1.0000 0.13010  0.66840  0.12010  Biso   1.000  H
  H16      1.0000 0.86990  0.66840  0.87990  Biso   1.000  H
  C17      1.0000 0.48180  0.68140  0.80540  Biso   1.000  C
  C18      1.0000 0.51820  0.68140  0.19460  Biso   1.000  C
  C19      1.0000 0.98180  0.18140  0.80540  Biso   1.000  C
  C20      1.0000 0.01820  0.18140  0.19460  Biso   1.000  C
  C21      1.0000 0.51820  0.31860  0.19460  Biso   1.000  C
  C22      1.0000 0.48180  0.31860  0.80540  Biso   1.000  C
  C23      1.0000 0.01820  0.81860  0.19460  Biso   1.000  C
  C24      1.0000 0.98180  0.81860  0.80540  Biso   1.000  C
  H17      1.0000 0.53390  0.62730  0.83140  Biso   1.000  H
  H18      1.0000 0.46610  0.62730  0.16860  Biso   1.000  H
  H19      1.0000 0.03390  0.12730  0.83140  Biso   1.000  H
  H20      1.0000 0.96610  0.12730  0.16860  Biso   1.000  H
  H21      1.0000 0.46610  0.37270  0.16860  Biso   1.000  H
  H22      1.0000 0.53390  0.37270  0.83140  Biso   1.000  H
  H23      1.0000 0.96610  0.87270  0.16860  Biso   1.000  H
  H24      1.0000 0.03390  0.87270  0.83140  Biso   1.000  H
  H25      1.0000 0.38690  0.67170  0.80760  Biso   1.000  H
  H26      1.0000 0.61310  0.67170  0.19240  Biso   1.000  H
  H27      1.0000 0.88690  0.17170  0.80760  Biso   1.000  H
  H28      1.0000 0.11310  0.17170  0.19240  Biso   1.000  H
  H29      1.0000 0.61310  0.32830  0.19240  Biso   1.000  H
  H30      1.0000 0.38690  0.32830  0.80760  Biso   1.000  H
  H31      1.0000 0.11310  0.82830  0.19240  Biso   1.000  H
  H32      1.0000 0.88690  0.82830  0.80760  Biso   1.000  H
  C25      1.0000 0.49190  0.68660  0.71530  Biso   1.000  C
  C26      1.0000 0.50810  0.68660  0.28470  Biso   1.000  C
  C27      1.0000 0.99190  0.18660  0.71530  Biso   1.000  C
  C28      1.0000 0.00810  0.18660  0.28470  Biso   1.000  C
  C29      1.0000 0.50810  0.31340  0.28470  Biso   1.000  C
  C30      1.0000 0.49190  0.31340  0.71530  Biso   1.000  C
  C31      1.0000 0.00810  0.81340  0.28470  Biso   1.000  C
  C32      1.0000 0.99190  0.81340  0.71530  Biso   1.000  C
  C33      1.0000 0.49860  0.68810  0.54540  Biso   1.000  C
  C34      1.0000 0.50140  0.68810  0.45460  Biso   1.000  C
  C35      1.0000 0.99860  0.18810  0.54540  Biso   1.000  C
  C36      1.0000 0.00140  0.18810  0.45460  Biso   1.000  C
  C37      1.0000 0.50140  0.31190  0.45460  Biso   1.000  C
  C38      1.0000 0.49860  0.31190  0.54540  Biso   1.000  C
  C39      1.0000 0.00140  0.81190  0.45460  Biso   1.000  C
  C40      1.0000 0.99860  0.81190  0.54540  Biso   1.000  C
  O1       1.0000 0.34140  0.05070  0.41990  Biso   1.000  O
  O2       1.0000 0.65860  0.05070  0.58010  Biso   1.000  O
  O3       1.0000 0.84140  0.55070  0.41990  Biso   1.000  O
  O4       1.0000 0.15860  0.55070  0.58010  Biso   1.000  O
  O5       1.0000 0.65860  0.94930  0.58010  Biso   1.000  O
  O6       1.0000 0.34140  0.94930  0.41990  Biso   1.000  O
  O7       1.0000 0.15860  0.44930  0.58010  Biso   1.000  O
  O8       1.0000 0.84140  0.44930  0.41990  Biso   1.000  O
  O9       1.0000 0.28530  0.00000  0.25170  Biso   1.000  O
  O10      1.0000 0.71470  0.00000  0.74830  Biso   1.000  O
  O11      1.0000 0.78530  0.50000  0.25170  Biso   1.000  O
  O12      1.0000 0.21470  0.50000  0.74830  Biso   1.000  O
  O13      1.0000 0.56550  0.96620  0.33640  Biso   1.000  O
  O14      1.0000 0.43450  0.96620  0.66360  Biso   1.000  O
  O15      1.0000 0.06550  0.46620  0.33640  Biso   1.000  O
  O16      1.0000 0.93450  0.46620  0.66360  Biso   1.000  O
  O17      1.0000 0.43450  0.03380  0.66360  Biso   1.000  O
  O18      1.0000 0.56550  0.03380  0.33640  Biso   1.000  O
  O19      1.0000 0.93450  0.53380  0.66360  Biso   1.000  O
  O20      1.0000 0.06550  0.53380  0.33640  Biso   1.000  O
  O21      1.0000 0.00000  0.07220  0.00000  Biso   1.000  O
  O22      1.0000 0.50000  0.57220  0.00000  Biso   1.000  O
  O23      1.0000 0.00000  0.92780  0.00000  Biso   1.000  O
  O24      1.0000 0.50000  0.42780  0.00000  Biso   1.000  O
  C41      1.0000 0.53590  0.60630  0.67840  Biso   1.000  C
  C42      1.0000 0.46410  0.60630  0.32160  Biso   1.000  C
  C43      1.0000 0.03590  0.10630  0.67840  Biso   1.000  C
  C44      1.0000 0.96410  0.10630  0.32160  Biso   1.000  C
  C45      1.0000 0.46410  0.39370  0.32160  Biso   1.000  C
  C46      1.0000 0.53590  0.39370  0.67840  Biso   1.000  C
  C47      1.0000 0.96410  0.89370  0.32160  Biso   1.000  C
  C48      1.0000 0.03590  0.89370  0.67840  Biso   1.000  C
  H33      1.0000 0.56520  0.55280  0.71020  Biso   1.000  H
  H34      1.0000 0.43480  0.55280  0.28980  Biso   1.000  H
  H35      1.0000 0.06520  0.05280  0.71020  Biso   1.000  H
  H36      1.0000 0.93480  0.05280  0.28980  Biso   1.000  H
  H37      1.0000 0.43480  0.44720  0.28980  Biso   1.000  H
  H38      1.0000 0.56520  0.44720  0.71020  Biso   1.000  H
  H39      1.0000 0.93480  0.94720  0.28980  Biso   1.000  H
  H40      1.0000 0.06520  0.94720  0.71020  Biso   1.000  H
  C49      1.0000 0.53550  0.60720  0.59300  Biso   1.000  C
  C50      1.0000 0.46450  0.60720  0.40700  Biso   1.000  C
  C51      1.0000 0.03550  0.10720  0.59300  Biso   1.000  C
  C52      1.0000 0.96450  0.10720  0.40700  Biso   1.000  C
  C53      1.0000 0.46450  0.39280  0.40700  Biso   1.000  C
  C54      1.0000 0.53550  0.39280  0.59300  Biso   1.000  C
  C55      1.0000 0.96450  0.89280  0.40700  Biso   1.000  C
  C56      1.0000 0.03550  0.89280  0.59300  Biso   1.000  C
  H41      1.0000 0.56040  0.55280  0.56820  Biso   1.000  H
  H42      1.0000 0.43960  0.55280  0.43180  Biso   1.000  H
  H43      1.0000 0.06040  0.05280  0.56820  Biso   1.000  H
  H44      1.0000 0.93960  0.05280  0.43180  Biso   1.000  H
  H45      1.0000 0.43960  0.44720  0.43180  Biso   1.000  H
  H46      1.0000 0.56040  0.44720  0.56820  Biso   1.000  H
  H47      1.0000 0.93960  0.94720  0.43180  Biso   1.000  H
  H48      1.0000 0.06040  0.94720  0.56820  Biso   1.000  H
  C57      1.0000 0.47120  0.76910  0.58540  Biso   1.000  C
  C58      1.0000 0.52880  0.76910  0.41460  Biso   1.000  C
  C59      1.0000 0.97120  0.26910  0.58540  Biso   1.000  C
  C60      1.0000 0.02880  0.26910  0.41460  Biso   1.000  C
  C61      1.0000 0.52880  0.23090  0.41460  Biso   1.000  C
  C62      1.0000 0.47120  0.23090  0.58540  Biso   1.000  C
  C63      1.0000 0.02880  0.73090  0.41460  Biso   1.000  C
  C64      1.0000 0.97120  0.73090  0.58540  Biso   1.000  C
  H49      1.0000 0.45250  0.82530  0.55570  Biso   1.000  H
  H50      1.0000 0.54750  0.82530  0.44430  Biso   1.000  H
  H51      1.0000 0.95250  0.32530  0.55570  Biso   1.000  H
  H52      1.0000 0.04750  0.32530  0.44430  Biso   1.000  H
  H53      1.0000 0.54750  0.17470  0.44430  Biso   1.000  H
  H54      1.0000 0.45250  0.17470  0.55570  Biso   1.000  H
  H55      1.0000 0.04750  0.67470  0.44430  Biso   1.000  H
  H56      1.0000 0.95250  0.67470  0.55570  Biso   1.000  H
  C65      1.0000 0.47110  0.76810  0.67020  Biso   1.000  C
  C66      1.0000 0.52890  0.76810  0.32980  Biso   1.000  C
  C67      1.0000 0.97110  0.26810  0.67020  Biso   1.000  C
  C68      1.0000 0.02890  0.26810  0.32980  Biso   1.000  C
  C69      1.0000 0.52890  0.23190  0.32980  Biso   1.000  C
  C70      1.0000 0.47110  0.23190  0.67020  Biso   1.000  C
  C71      1.0000 0.02890  0.73190  0.32980  Biso   1.000  C
  C72      1.0000 0.97110  0.73190  0.67020  Biso   1.000  C
  H57      1.0000 0.45650  0.82430  0.69610  Biso   1.000  H
  H58      1.0000 0.54350  0.82430  0.30390  Biso   1.000  H
  H59      1.0000 0.95650  0.32430  0.69610  Biso   1.000  H
  H60      1.0000 0.04350  0.32430  0.30390  Biso   1.000  H
  H61      1.0000 0.54350  0.17570  0.30390  Biso   1.000  H
  H62      1.0000 0.45650  0.17570  0.69610  Biso   1.000  H
  H63      1.0000 0.04350  0.67570  0.30390  Biso   1.000  H
  H64      1.0000 0.95650  0.67570  0.69610  Biso   1.000  H
  C73      1.0000 0.39700  0.34190  0.31100  Biso   1.000  C
  C74      1.0000 0.60300  0.34190  0.68900  Biso   1.000  C
  C75      1.0000 0.89700  0.84190  0.31100  Biso   1.000  C
  C76      1.0000 0.10300  0.84190  0.68900  Biso   1.000  C
  C77      1.0000 0.60300  0.65810  0.68900  Biso   1.000  C
  C78      1.0000 0.39700  0.65810  0.31100  Biso   1.000  C
  C79      1.0000 0.10300  0.15810  0.68900  Biso   1.000  C
  C80      1.0000 0.89700  0.15810  0.31100  Biso   1.000  C
  C81      1.0000 0.39220  0.33950  0.39450  Biso   1.000  C
  C82      1.0000 0.60780  0.33950  0.60550  Biso   1.000  C
  C83      1.0000 0.89220  0.83950  0.39450  Biso   1.000  C
  C84      1.0000 0.10780  0.83950  0.60550  Biso   1.000  C
  C85      1.0000 0.60780  0.66050  0.60550  Biso   1.000  C
  C86      1.0000 0.39220  0.66050  0.39450  Biso   1.000  C
  C87      1.0000 0.10780  0.16050  0.60550  Biso   1.000  C
  C88      1.0000 0.89220  0.16050  0.39450  Biso   1.000  C
  C89      1.0000 0.62110  0.28260  0.43170  Biso   1.000  C
  C90      1.0000 0.37890  0.28260  0.56830  Biso   1.000  C
  C91      1.0000 0.12110  0.78260  0.43170  Biso   1.000  C
  C92      1.0000 0.87890  0.78260  0.56830  Biso   1.000  C
  C93      1.0000 0.37890  0.71740  0.56830  Biso   1.000  C
  C94      1.0000 0.62110  0.71740  0.43170  Biso   1.000  C
  C95      1.0000 0.87890  0.21740  0.56830  Biso   1.000  C
  C96      1.0000 0.12110  0.21740  0.43170  Biso   1.000  C
  C97      1.0000 0.62790  0.28390  0.34660  Biso   1.000  C
  C98      1.0000 0.37210  0.28390  0.65340  Biso   1.000  C
  C99      1.0000 0.12790  0.78390  0.34660  Biso   1.000  C
  C100     1.0000 0.87210  0.78390  0.65340  Biso   1.000  C
  C101     1.0000 0.37210  0.71610  0.65340  Biso   1.000  C
  C102     1.0000 0.62790  0.71610  0.34660  Biso   1.000  C
  C103     1.0000 0.87210  0.21610  0.65340  Biso   1.000  C
  C104     1.0000 0.12790  0.21610  0.34660  Biso   1.000  C
  H65      1.0000 0.32110  0.36380  0.27240  Biso   1.000  H
  H66      1.0000 0.67890  0.36380  0.72760  Biso   1.000  H
  H67      1.0000 0.82110  0.86380  0.27240  Biso   1.000  H
  H68      1.0000 0.17890  0.86380  0.72760  Biso   1.000  H
  H69      1.0000 0.67890  0.63620  0.72760  Biso   1.000  H
  H70      1.0000 0.32110  0.63620  0.27240  Biso   1.000  H
  H71      1.0000 0.17890  0.13620  0.72760  Biso   1.000  H
  H72      1.0000 0.82110  0.13620  0.27240  Biso   1.000  H
  H73      1.0000 0.31180  0.35730  0.40960  Biso   1.000  H
  H74      1.0000 0.68820  0.35730  0.59040  Biso   1.000  H
  H75      1.0000 0.81180  0.85730  0.40960  Biso   1.000  H
  H76      1.0000 0.18820  0.85730  0.59040  Biso   1.000  H
  H77      1.0000 0.68820  0.64270  0.59040  Biso   1.000  H
  H78      1.0000 0.31180  0.64270  0.40960  Biso   1.000  H
  H79      1.0000 0.18820  0.14270  0.59040  Biso   1.000  H
  H80      1.0000 0.81180  0.14270  0.40960  Biso   1.000  H
  H81      1.0000 0.69610  0.26230  0.47190  Biso   1.000  H
  H82      1.0000 0.30390  0.26230  0.52810  Biso   1.000  H
  H83      1.0000 0.19610  0.76230  0.47190  Biso   1.000  H
  H84      1.0000 0.80390  0.76230  0.52810  Biso   1.000  H
  H85      1.0000 0.30390  0.73770  0.52810  Biso   1.000  H
  H86      1.0000 0.69610  0.73770  0.47190  Biso   1.000  H
  H87      1.0000 0.80390  0.23770  0.52810  Biso   1.000  H
  H88      1.0000 0.19610  0.23770  0.47190  Biso   1.000  H
  H89      1.0000 0.70790  0.26620  0.33090  Biso   1.000  H
  H90      1.0000 0.29210  0.26620  0.66910  Biso   1.000  H
  H91      1.0000 0.20790  0.76620  0.33090  Biso   1.000  H
  H92      1.0000 0.79210  0.76620  0.66910  Biso   1.000  H
  H93      1.0000 0.29210  0.73380  0.66910  Biso   1.000  H
  H94      1.0000 0.70790  0.73380  0.33090  Biso   1.000  H
  H95      1.0000 0.79210  0.23380  0.66910  Biso   1.000  H
  H96      1.0000 0.20790  0.23380  0.33090  Biso   1.000  H
