data_image0
_cell_length_a       12.2892
_cell_length_b       11.0889
_cell_length_c       16.49
_cell_angle_alpha    90
_cell_angle_beta     110.129
_cell_angle_gamma    90

_symmetry_space_group_name_H-M    "P 1"
_symmetry_int_tables_number       1

loop_
  _symmetry_equiv_pos_as_xyz
  'x, y, z'

loop_
  _atom_site_label
  _atom_site_occupancy
  _atom_site_fract_x
  _atom_site_fract_y
  _atom_site_fract_z
  _atom_site_thermal_displace_type
  _atom_site_B_iso_or_equiv
  _atom_site_type_symbol
  Cu1      1.0000 0.74292  0.87492  0.92696  Biso   1.000  Cu
  Cu2      1.0000 0.75708  0.87492  0.57304  Biso   1.000  Cu
  Cu3      1.0000 0.25708  0.12508  0.07304  Biso   1.000  Cu
  Cu4      1.0000 0.24292  0.12508  0.42696  Biso   1.000  Cu
  Cu5      1.0000 0.25000  0.99152  0.75000  Biso   1.000  Cu
  Cu6      1.0000 0.75000  0.00848  0.25000  Biso   1.000  Cu
  O1       1.0000 0.63100  0.01820  0.91430  Biso   1.000  O
  O2       1.0000 0.86900  0.01820  0.58570  Biso   1.000  O
  O3       1.0000 0.36900  0.98180  0.08570  Biso   1.000  O
  O4       1.0000 0.13100  0.98180  0.41430  Biso   1.000  O
  O5       1.0000 0.61910  0.21630  0.89230  Biso   1.000  O
  O6       1.0000 0.88090  0.21630  0.60770  Biso   1.000  O
  O7       1.0000 0.38090  0.78370  0.10770  Biso   1.000  O
  O8       1.0000 0.11910  0.78370  0.39230  Biso   1.000  O
  C1       1.0000 0.83440  0.34580  0.87620  Biso   1.000  C
  C2       1.0000 0.66560  0.34580  0.62380  Biso   1.000  C
  C3       1.0000 0.16560  0.65420  0.12380  Biso   1.000  C
  C4       1.0000 0.33440  0.65420  0.37620  Biso   1.000  C
  O9       1.0000 0.91510  0.41170  0.86680  Biso   1.000  O
  O10      1.0000 0.58490  0.41170  0.63320  Biso   1.000  O
  O11      1.0000 0.08490  0.58830  0.13320  Biso   1.000  O
  O12      1.0000 0.41510  0.58830  0.36680  Biso   1.000  O
  O13      1.0000 0.73430  0.38460  0.86240  Biso   1.000  O
  O14      1.0000 0.76570  0.38460  0.63760  Biso   1.000  O
  O15      1.0000 0.26570  0.61540  0.13760  Biso   1.000  O
  O16      1.0000 0.23430  0.61540  0.36240  Biso   1.000  O
  O17      1.0000 0.20450  0.06890  0.92490  Biso   1.000  O
  O18      1.0000 0.29550  0.06890  0.57510  Biso   1.000  O
  O19      1.0000 0.79550  0.93110  0.07510  Biso   1.000  O
  O20      1.0000 0.70450  0.93110  0.42490  Biso   1.000  O
  O21      1.0000 0.11290  0.99330  0.79270  Biso   1.000  O
  O22      1.0000 0.38710  0.99330  0.70730  Biso   1.000  O
  O23      1.0000 0.88710  0.00670  0.20730  Biso   1.000  O
  O24      1.0000 0.61290  0.00670  0.29270  Biso   1.000  O
  O25      1.0000 0.06090  0.80520  0.92120  Biso   1.000  O
  O26      1.0000 0.43910  0.80520  0.57880  Biso   1.000  O
  O27      1.0000 0.93910  0.19480  0.07880  Biso   1.000  O
  O28      1.0000 0.56090  0.19480  0.42120  Biso   1.000  O
  O29      1.0000 0.88580  0.78140  0.93340  Biso   1.000  O
  O30      1.0000 0.61420  0.78140  0.56660  Biso   1.000  O
  O31      1.0000 0.11420  0.21860  0.06660  Biso   1.000  O
  O32      1.0000 0.38580  0.21860  0.43340  Biso   1.000  O
  O33      1.0000 0.39030  0.98790  0.88750  Biso   1.000  O
  O34      1.0000 0.10970  0.98790  0.61250  Biso   1.000  O
  O35      1.0000 0.60970  0.01210  0.11250  Biso   1.000  O
  O36      1.0000 0.89030  0.01210  0.38750  Biso   1.000  O
  H1       1.0000 0.46030  0.99520  0.90180  Biso   1.000  H
  H2       1.0000 0.03970  0.99520  0.59820  Biso   1.000  H
  H3       1.0000 0.53970  0.00480  0.09820  Biso   1.000  H
  H4       1.0000 0.96030  0.00480  0.40180  Biso   1.000  H
  H5       1.0000 0.34680  0.99150  0.91540  Biso   1.000  H
  H6       1.0000 0.15320  0.99150  0.58460  Biso   1.000  H
  H7       1.0000 0.65320  0.00850  0.08460  Biso   1.000  H
  H8       1.0000 0.84680  0.00850  0.41540  Biso   1.000  H
  O37      1.0000 0.64060  0.83680  0.77950  Biso   1.000  O
  O38      1.0000 0.85940  0.83680  0.72050  Biso   1.000  O
  O39      1.0000 0.35940  0.16320  0.22050  Biso   1.000  O
  O40      1.0000 0.14060  0.16320  0.27950  Biso   1.000  O
  H9       1.0000 0.65280  0.77300  0.80700  Biso   1.000  H
  H10      1.0000 0.84720  0.77300  0.69300  Biso   1.000  H
  H11      1.0000 0.34720  0.22700  0.19300  Biso   1.000  H
  H12      1.0000 0.15280  0.22700  0.30700  Biso   1.000  H
  H13      1.0000 0.57050  0.83430  0.76070  Biso   1.000  H
  H14      1.0000 0.92950  0.83430  0.73930  Biso   1.000  H
  H15      1.0000 0.42950  0.16570  0.23930  Biso   1.000  H
  H16      1.0000 0.07050  0.16570  0.26070  Biso   1.000  H
  O41      1.0000 0.89430  0.59350  0.74390  Biso   1.000  O
  O42      1.0000 0.60570  0.59350  0.75610  Biso   1.000  O
  O43      1.0000 0.10570  0.40650  0.25610  Biso   1.000  O
  O44      1.0000 0.39430  0.40650  0.24390  Biso   1.000  O
  H17      1.0000 0.83510  0.55750  0.71690  Biso   1.000  H
  H18      1.0000 0.66490  0.55750  0.78310  Biso   1.000  H
  H19      1.0000 0.16490  0.44250  0.28310  Biso   1.000  H
  H20      1.0000 0.33510  0.44250  0.21690  Biso   1.000  H
  H21      1.0000 0.91480  0.56990  0.79350  Biso   1.000  H
  H22      1.0000 0.58520  0.56990  0.70650  Biso   1.000  H
  H23      1.0000 0.08520  0.43010  0.20650  Biso   1.000  H
  H24      1.0000 0.41480  0.43010  0.29350  Biso   1.000  H
  O45      1.0000 0.04110  0.54770  0.92690  Biso   1.000  O
  O46      1.0000 0.45890  0.54770  0.57310  Biso   1.000  O
  O47      1.0000 0.95890  0.45230  0.07310  Biso   1.000  O
  O48      1.0000 0.54110  0.45230  0.42690  Biso   1.000  O
  N1       1.0000 0.83120  0.00170  0.89950  Biso   1.000  N
  N2       1.0000 0.66880  0.00170  0.60050  Biso   1.000  N
  N3       1.0000 0.16880  0.99830  0.10050  Biso   1.000  N
  N4       1.0000 0.33120  0.99830  0.39950  Biso   1.000  N
  N5       1.0000 0.25000  0.80920  0.75000  Biso   1.000  N
  N6       1.0000 0.75000  0.19080  0.25000  Biso   1.000  N
  N7       1.0000 0.25000  0.17340  0.75000  Biso   1.000  N
  N8       1.0000 0.75000  0.82660  0.25000  Biso   1.000  N
  N9       1.0000 0.65800  0.74180  0.95570  Biso   1.000  N
  N10      1.0000 0.84200  0.74180  0.54430  Biso   1.000  N
  N11      1.0000 0.34200  0.25820  0.04430  Biso   1.000  N
  N12      1.0000 0.15800  0.25820  0.45570  Biso   1.000  N
  C5       1.0000 0.66860  0.11840  0.89910  Biso   1.000  C
  C6       1.0000 0.83140  0.11840  0.60090  Biso   1.000  C
  C7       1.0000 0.33140  0.88160  0.10090  Biso   1.000  C
  C8       1.0000 0.16860  0.88160  0.39910  Biso   1.000  C
  C9       1.0000 0.78760  0.11390  0.88950  Biso   1.000  C
  C10      1.0000 0.71240  0.11390  0.61050  Biso   1.000  C
  C11      1.0000 0.21240  0.88610  0.11050  Biso   1.000  C
  C12      1.0000 0.28760  0.88610  0.38950  Biso   1.000  C
  C13      1.0000 0.85470  0.20760  0.87470  Biso   1.000  C
  C14      1.0000 0.64530  0.20760  0.62530  Biso   1.000  C
  C15      1.0000 0.14530  0.79240  0.12530  Biso   1.000  C
  C16      1.0000 0.35470  0.79240  0.37470  Biso   1.000  C
  C17      1.0000 0.96040  0.17760  0.86630  Biso   1.000  C
  C18      1.0000 0.53960  0.17760  0.63370  Biso   1.000  C
  C19      1.0000 0.03960  0.82240  0.13370  Biso   1.000  C
  C20      1.0000 0.46040  0.82240  0.36630  Biso   1.000  C
  H25      1.0000 0.00480  0.23860  0.85470  Biso   1.000  H
  H26      1.0000 0.49520  0.23860  0.64530  Biso   1.000  H
  H27      1.0000 0.99520  0.76140  0.14530  Biso   1.000  H
  H28      1.0000 0.50480  0.76140  0.35470  Biso   1.000  H
  C21      1.0000 0.00170  0.06050  0.87450  Biso   1.000  C
  C22      1.0000 0.49830  0.06050  0.62550  Biso   1.000  C
  C23      1.0000 0.99830  0.93950  0.12550  Biso   1.000  C
  C24      1.0000 0.50170  0.93950  0.37450  Biso   1.000  C
  C25      1.0000 0.11780  0.03790  0.86530  Biso   1.000  C
  C26      1.0000 0.38220  0.03790  0.63470  Biso   1.000  C
  C27      1.0000 0.88220  0.96210  0.13470  Biso   1.000  C
  C28      1.0000 0.61780  0.96210  0.36530  Biso   1.000  C
  C29      1.0000 0.93360  0.97260  0.89450  Biso   1.000  C
  C30      1.0000 0.56640  0.97260  0.60550  Biso   1.000  C
  C31      1.0000 0.06640  0.02740  0.10550  Biso   1.000  C
  C32      1.0000 0.43360  0.02740  0.39450  Biso   1.000  C
  C33      1.0000 0.96400  0.84240  0.91640  Biso   1.000  C
  C34      1.0000 0.53600  0.84240  0.58360  Biso   1.000  C
  C35      1.0000 0.03600  0.15760  0.08360  Biso   1.000  C
  C36      1.0000 0.46400  0.15760  0.41640  Biso   1.000  C
  C37      1.0000 0.18670  0.74630  0.78530  Biso   1.000  C
  C38      1.0000 0.31330  0.74630  0.71470  Biso   1.000  C
  C39      1.0000 0.81330  0.25370  0.21470  Biso   1.000  C
  C40      1.0000 0.68670  0.25370  0.28530  Biso   1.000  C
  H29      1.0000 0.14190  0.78780  0.81140  Biso   1.000  H
  H30      1.0000 0.35810  0.78780  0.68860  Biso   1.000  H
  H31      1.0000 0.85810  0.21220  0.18860  Biso   1.000  H
  H32      1.0000 0.64190  0.21220  0.31140  Biso   1.000  H
  C41      1.0000 0.18390  0.62230  0.78520  Biso   1.000  C
  C42      1.0000 0.31610  0.62230  0.71480  Biso   1.000  C
  C43      1.0000 0.81610  0.37770  0.21480  Biso   1.000  C
  C44      1.0000 0.68390  0.37770  0.28520  Biso   1.000  C
  H33      1.0000 0.13610  0.58230  0.80960  Biso   1.000  H
  H34      1.0000 0.36390  0.58230  0.69040  Biso   1.000  H
  H35      1.0000 0.86390  0.41770  0.19040  Biso   1.000  H
  H36      1.0000 0.63610  0.41770  0.30960  Biso   1.000  H
  C45      1.0000 0.25000  0.55810  0.75000  Biso   1.000  C
  C46      1.0000 0.75000  0.44190  0.25000  Biso   1.000  C
  C47      1.0000 0.25000  0.42430  0.75000  Biso   1.000  C
  C48      1.0000 0.75000  0.57570  0.25000  Biso   1.000  C
  C49      1.0000 0.35220  0.35860  0.77600  Biso   1.000  C
  C50      1.0000 0.14780  0.35860  0.72400  Biso   1.000  C
  C51      1.0000 0.64780  0.64140  0.22400  Biso   1.000  C
  C52      1.0000 0.85220  0.64140  0.27600  Biso   1.000  C
  H37      1.0000 0.42310  0.39840  0.79300  Biso   1.000  H
  H38      1.0000 0.07690  0.39840  0.70700  Biso   1.000  H
  H39      1.0000 0.57690  0.60160  0.20700  Biso   1.000  H
  H40      1.0000 0.92310  0.60160  0.29300  Biso   1.000  H
  C53      1.0000 0.34880  0.23550  0.77670  Biso   1.000  C
  C54      1.0000 0.15120  0.23550  0.72330  Biso   1.000  C
  C55      1.0000 0.65120  0.76450  0.22330  Biso   1.000  C
  C56      1.0000 0.84880  0.76450  0.27670  Biso   1.000  C
  H41      1.0000 0.41840  0.19330  0.79650  Biso   1.000  H
  H42      1.0000 0.08160  0.19330  0.70350  Biso   1.000  H
  H43      1.0000 0.58160  0.80670  0.20350  Biso   1.000  H
  H44      1.0000 0.91840  0.80670  0.29650  Biso   1.000  H
  C57      1.0000 0.70420  0.63500  0.97730  Biso   1.000  C
  C58      1.0000 0.79580  0.63500  0.52270  Biso   1.000  C
  C59      1.0000 0.29580  0.36500  0.02270  Biso   1.000  C
  C60      1.0000 0.20420  0.36500  0.47730  Biso   1.000  C
  H45      1.0000 0.78060  0.62360  0.98060  Biso   1.000  H
  H46      1.0000 0.71940  0.62360  0.51940  Biso   1.000  H
  H47      1.0000 0.21940  0.37640  0.01940  Biso   1.000  H
  H48      1.0000 0.28060  0.37640  0.48060  Biso   1.000  H
  C61      1.0000 0.64550  0.53820  0.99550  Biso   1.000  C
  C62      1.0000 0.85450  0.53820  0.50450  Biso   1.000  C
  C63      1.0000 0.35450  0.46180  0.00450  Biso   1.000  C
  C64      1.0000 0.14550  0.46180  0.49550  Biso   1.000  C
  H49      1.0000 0.68260  0.46420  0.01090  Biso   1.000  H
  H50      1.0000 0.81740  0.46420  0.48910  Biso   1.000  H
  H51      1.0000 0.31740  0.53580  0.98910  Biso   1.000  H
  H52      1.0000 0.18260  0.53580  0.51090  Biso   1.000  H
  C65      1.0000 0.53280  0.55130  0.99080  Biso   1.000  C
  C66      1.0000 0.96720  0.55130  0.50920  Biso   1.000  C
  C67      1.0000 0.46720  0.44870  0.00920  Biso   1.000  C
  C68      1.0000 0.03280  0.44870  0.49080  Biso   1.000  C
  C69      1.0000 0.48800  0.66280  0.97040  Biso   1.000  C
  C70      1.0000 0.01200  0.66280  0.52960  Biso   1.000  C
  C71      1.0000 0.51200  0.33720  0.02960  Biso   1.000  C
  C72      1.0000 0.98800  0.33720  0.47040  Biso   1.000  C
  H53      1.0000 0.41280  0.67780  0.96880  Biso   1.000  H
  H54      1.0000 0.08720  0.67780  0.53120  Biso   1.000  H
  H55      1.0000 0.58720  0.32220  0.03120  Biso   1.000  H
  H56      1.0000 0.91280  0.32220  0.46880  Biso   1.000  H
  C73      1.0000 0.55010  0.75430  0.95190  Biso   1.000  C
  C74      1.0000 0.94990  0.75430  0.54810  Biso   1.000  C
  C75      1.0000 0.44990  0.24570  0.04810  Biso   1.000  C
  C76      1.0000 0.05010  0.24570  0.45190  Biso   1.000  C
  H57      1.0000 0.51440  0.82870  0.93590  Biso   1.000  H
  H58      1.0000 0.98560  0.82870  0.56410  Biso   1.000  H
  H59      1.0000 0.48560  0.17130  0.06410  Biso   1.000  H
  H60      1.0000 0.01440  0.17130  0.43590  Biso   1.000  H
  O49      1.0000 0.84910  0.37050  0.96600  Biso   1.000  O
  O50      1.0000 0.65090  0.37050  0.53400  Biso   1.000  O
  O51      1.0000 0.15090  0.62950  0.03400  Biso   1.000  O
  O52      1.0000 0.34910  0.62950  0.46600  Biso   1.000  O
  O53      1.0000 0.76100  0.39120  0.82840  Biso   1.000  O
  O54      1.0000 0.73900  0.39120  0.67160  Biso   1.000  O
  O55      1.0000 0.23900  0.60880  0.17160  Biso   1.000  O
  O56      1.0000 0.26100  0.60880  0.32840  Biso   1.000  O
