data_image0
_cell_length_a       8.7
_cell_length_b       11.962
_cell_length_c       7.034
_cell_angle_alpha    90
_cell_angle_beta     98.35
_cell_angle_gamma    90

_symmetry_space_group_name_H-M    "P 1"
_symmetry_int_tables_number       1

loop_
  _symmetry_equiv_pos_as_xyz
  'x, y, z'

loop_
  _atom_site_label
  _atom_site_occupancy
  _atom_site_fract_x
  _atom_site_fract_y
  _atom_site_fract_z
  _atom_site_thermal_displace_type
  _atom_site_B_iso_or_equiv
  _atom_site_type_symbol
  Cu1      1.0000 0.25140  0.25640  0.32010  Biso   1.000  Cu
  Cu2      1.0000 0.74860  0.75640  0.17990  Biso   1.000  Cu
  Cu3      1.0000 0.74860  0.74360  0.67990  Biso   1.000  Cu
  Cu4      1.0000 0.25140  0.24360  0.82010  Biso   1.000  Cu
  Cl1      1.0000 0.06270  0.32990  0.09110  Biso   1.000  Cl
  Cl2      1.0000 0.93730  0.82990  0.40890  Biso   1.000  Cl
  Cl3      1.0000 0.93730  0.67010  0.90890  Biso   1.000  Cl
  Cl4      1.0000 0.06270  0.17010  0.59110  Biso   1.000  Cl
  Cl5      1.0000 0.45320  0.18820  0.53650  Biso   1.000  Cl
  Cl6      1.0000 0.54680  0.68820  0.96350  Biso   1.000  Cl
  Cl7      1.0000 0.54680  0.81180  0.46350  Biso   1.000  Cl
  Cl8      1.0000 0.45320  0.31180  0.03650  Biso   1.000  Cl
  N1       1.0000 0.25540  0.39540  0.48180  Biso   1.000  N
  N2       1.0000 0.74460  0.89540  0.01820  Biso   1.000  N
  N3       1.0000 0.74460  0.60460  0.51820  Biso   1.000  N
  N4       1.0000 0.25540  0.10460  0.98180  Biso   1.000  N
  N5       1.0000 0.23760  0.11260  0.17330  Biso   1.000  N
  N6       1.0000 0.76240  0.61260  0.32670  Biso   1.000  N
  N7       1.0000 0.76240  0.88740  0.82670  Biso   1.000  N
  N8       1.0000 0.23760  0.38740  0.67330  Biso   1.000  N
  N9       1.0000 0.24190  0.93820  0.09780  Biso   1.000  N
  N10      1.0000 0.75810  0.43820  0.40220  Biso   1.000  N
  N11      1.0000 0.75810  0.06180  0.90220  Biso   1.000  N
  N12      1.0000 0.24190  0.56180  0.59780  Biso   1.000  N
  N13      1.0000 0.23780  0.82170  0.11840  Biso   1.000  N
  N14      1.0000 0.76220  0.32170  0.38160  Biso   1.000  N
  N15      1.0000 0.76220  0.17830  0.88160  Biso   1.000  N
  N16      1.0000 0.23780  0.67830  0.61840  Biso   1.000  N
  C1       1.0000 0.22890  0.01170  0.23770  Biso   1.000  C
  C2       1.0000 0.77110  0.51170  0.26230  Biso   1.000  C
  C3       1.0000 0.77110  0.98830  0.76230  Biso   1.000  C
  C4       1.0000 0.22890  0.48830  0.73770  Biso   1.000  C
  C5       1.0000 0.26010  0.50110  0.44160  Biso   1.000  C
  C6       1.0000 0.73990  0.00110  0.05840  Biso   1.000  C
  C7       1.0000 0.73990  0.49890  0.55840  Biso   1.000  C
  C8       1.0000 0.26010  0.99890  0.94160  Biso   1.000  C
  C9       1.0000 0.28690  0.55360  0.25630  Biso   1.000  C
  C10      1.0000 0.71310  0.05360  0.24370  Biso   1.000  C
  C11      1.0000 0.71310  0.44640  0.74370  Biso   1.000  C
  C12      1.0000 0.28690  0.94640  0.75630  Biso   1.000  C
