data_image0
_cell_length_a       9.2741
_cell_length_b       11.697
_cell_length_c       17.8322
_cell_angle_alpha    90
_cell_angle_beta     90
_cell_angle_gamma    90

_symmetry_space_group_name_H-M    "P 1"
_symmetry_int_tables_number       1

loop_
  _symmetry_equiv_pos_as_xyz
  'x, y, z'

loop_
  _atom_site_label
  _atom_site_occupancy
  _atom_site_fract_x
  _atom_site_fract_y
  _atom_site_fract_z
  _atom_site_thermal_displace_type
  _atom_site_B_iso_or_equiv
  _atom_site_type_symbol
  Cu1      1.0000 0.64707  0.24111  0.42613  Biso   1.000  Cu
  Cu2      1.0000 0.85293  0.75889  0.92613  Biso   1.000  Cu
  Cu3      1.0000 0.35293  0.74111  0.07387  Biso   1.000  Cu
  Cu4      1.0000 0.14707  0.25889  0.57387  Biso   1.000  Cu
  O1       1.0000 0.47230  0.25020  0.49030  Biso   1.000  O
  O2       1.0000 0.02770  0.74980  0.99030  Biso   1.000  O
  O3       1.0000 0.52770  0.75020  0.00970  Biso   1.000  O
  O4       1.0000 0.97230  0.24980  0.50970  Biso   1.000  O
  O5       1.0000 0.25860  0.33910  0.49850  Biso   1.000  O
  O6       1.0000 0.24140  0.66090  0.99850  Biso   1.000  O
  O7       1.0000 0.74140  0.83910  0.00150  Biso   1.000  O
  O8       1.0000 0.75860  0.16090  0.50150  Biso   1.000  O
  O9       1.0000 0.55530  0.07480  0.37090  Biso   1.000  O
  O10      1.0000 0.94470  0.92520  0.87090  Biso   1.000  O
  O11      1.0000 0.44470  0.57480  0.12910  Biso   1.000  O
  O12      1.0000 0.05530  0.42520  0.62910  Biso   1.000  O
  H1       1.0000 0.60400  0.03600  0.36000  Biso   1.000  H
  H2       1.0000 0.89600  0.96400  0.86000  Biso   1.000  H
  H3       1.0000 0.39600  0.53600  0.14000  Biso   1.000  H
  H4       1.0000 0.10400  0.46400  0.64000  Biso   1.000  H
  H5       1.0000 0.48500  0.06300  0.37700  Biso   1.000  H
  H6       1.0000 0.01500  0.93700  0.87700  Biso   1.000  H
  H7       1.0000 0.51500  0.56300  0.12300  Biso   1.000  H
  H8       1.0000 0.98500  0.43700  0.62300  Biso   1.000  H
  N1       1.0000 0.79430  0.26100  0.34610  Biso   1.000  N
  N2       1.0000 0.70570  0.73900  0.84610  Biso   1.000  N
  N3       1.0000 0.20570  0.76100  0.15390  Biso   1.000  N
  N4       1.0000 0.29430  0.23900  0.65390  Biso   1.000  N
  N5       1.0000 0.52860  0.33740  0.35770  Biso   1.000  N
  N6       1.0000 0.97140  0.66260  0.85770  Biso   1.000  N
  N7       1.0000 0.47140  0.83740  0.14230  Biso   1.000  N
  N8       1.0000 0.02860  0.16260  0.64230  Biso   1.000  N
  H9       1.0000 0.48280  0.28980  0.32510  Biso   1.000  H
  H10      1.0000 0.01720  0.71020  0.82510  Biso   1.000  H
  H11      1.0000 0.51720  0.78980  0.17490  Biso   1.000  H
  H12      1.0000 0.98280  0.21020  0.67490  Biso   1.000  H
  N9       1.0000 0.01050  0.60140  0.44770  Biso   1.000  N
  N10      1.0000 0.48950  0.39860  0.94770  Biso   1.000  N
  N11      1.0000 0.98950  0.10140  0.05230  Biso   1.000  N
  N12      1.0000 0.51050  0.89860  0.55230  Biso   1.000  N
  H13      1.0000 0.92930  0.61270  0.46970  Biso   1.000  H
  H14      1.0000 0.57070  0.38730  0.96970  Biso   1.000  H
  H15      1.0000 0.07070  0.11270  0.03030  Biso   1.000  H
  H16      1.0000 0.42930  0.88730  0.53030  Biso   1.000  H
  N13      1.0000 0.21930  0.62850  0.40290  Biso   1.000  N
  N14      1.0000 0.28070  0.37150  0.90290  Biso   1.000  N
  N15      1.0000 0.78070  0.12850  0.09710  Biso   1.000  N
  N16      1.0000 0.71930  0.87150  0.59710  Biso   1.000  N
  H17      1.0000 0.29880  0.66190  0.39100  Biso   1.000  H
  H18      1.0000 0.20120  0.33810  0.89100  Biso   1.000  H
  H19      1.0000 0.70120  0.16190  0.10900  Biso   1.000  H
  H20      1.0000 0.79880  0.83810  0.60900  Biso   1.000  H
  C1       1.0000 0.91360  0.20000  0.33530  Biso   1.000  C
  C2       1.0000 0.58640  0.80000  0.83530  Biso   1.000  C
  C3       1.0000 0.08640  0.70000  0.16470  Biso   1.000  C
  C4       1.0000 0.41360  0.30000  0.66470  Biso   1.000  C
  H21      1.0000 0.93330  0.13950  0.36760  Biso   1.000  H
  H22      1.0000 0.56670  0.86050  0.86760  Biso   1.000  H
  H23      1.0000 0.06670  0.63950  0.13240  Biso   1.000  H
  H24      1.0000 0.43330  0.36050  0.63240  Biso   1.000  H
  C5       1.0000 0.01060  0.22360  0.27710  Biso   1.000  C
  C6       1.0000 0.48940  0.77640  0.77710  Biso   1.000  C
  C7       1.0000 0.98940  0.72360  0.22290  Biso   1.000  C
  C8       1.0000 0.51060  0.27640  0.72290  Biso   1.000  C
  H25      1.0000 0.09300  0.17950  0.27030  Biso   1.000  H
  H26      1.0000 0.40700  0.82050  0.77030  Biso   1.000  H
  H27      1.0000 0.90700  0.67950  0.22970  Biso   1.000  H
  H28      1.0000 0.59300  0.32050  0.72970  Biso   1.000  H
  C9       1.0000 0.98030  0.31380  0.23050  Biso   1.000  C
  C10      1.0000 0.51970  0.68620  0.73050  Biso   1.000  C
  C11      1.0000 0.01970  0.81380  0.26950  Biso   1.000  C
  C12      1.0000 0.48030  0.18620  0.76950  Biso   1.000  C
  H29      1.0000 0.04380  0.33270  0.19210  Biso   1.000  H
  H30      1.0000 0.45620  0.66730  0.69210  Biso   1.000  H
  H31      1.0000 0.95620  0.83270  0.30790  Biso   1.000  H
  H32      1.0000 0.54380  0.16730  0.80790  Biso   1.000  H
  C13      1.0000 0.85650  0.37600  0.24040  Biso   1.000  C
  C14      1.0000 0.64350  0.62400  0.74040  Biso   1.000  C
  C15      1.0000 0.14350  0.87600  0.25960  Biso   1.000  C
  C16      1.0000 0.35650  0.12400  0.75960  Biso   1.000  C
  H33      1.0000 0.83520  0.43680  0.20870  Biso   1.000  H
  H34      1.0000 0.66480  0.56320  0.70870  Biso   1.000  H
  H35      1.0000 0.16480  0.93680  0.29130  Biso   1.000  H
  H36      1.0000 0.33520  0.06320  0.79130  Biso   1.000  H
  C17      1.0000 0.76350  0.34740  0.29810  Biso   1.000  C
  C18      1.0000 0.73650  0.65260  0.79810  Biso   1.000  C
  C19      1.0000 0.23650  0.84740  0.20190  Biso   1.000  C
  C20      1.0000 0.26350  0.15260  0.70190  Biso   1.000  C
  C21      1.0000 0.62630  0.41090  0.31350  Biso   1.000  C
  C22      1.0000 0.87370  0.58910  0.81350  Biso   1.000  C
  C23      1.0000 0.37370  0.91090  0.18650  Biso   1.000  C
  C24      1.0000 0.12630  0.08910  0.68650  Biso   1.000  C
  H37      1.0000 0.64720  0.48040  0.34120  Biso   1.000  H
  H38      1.0000 0.85280  0.51960  0.84120  Biso   1.000  H
  H39      1.0000 0.35280  0.98040  0.15880  Biso   1.000  H
  H40      1.0000 0.14720  0.01960  0.65880  Biso   1.000  H
  H41      1.0000 0.58050  0.43200  0.26660  Biso   1.000  H
  H42      1.0000 0.91950  0.56800  0.76660  Biso   1.000  H
  H43      1.0000 0.41950  0.93200  0.23340  Biso   1.000  H
  H44      1.0000 0.08050  0.06800  0.73340  Biso   1.000  H
  C25      1.0000 0.41610  0.39730  0.40220  Biso   1.000  C
  C26      1.0000 0.08390  0.60270  0.90220  Biso   1.000  C
  C27      1.0000 0.58390  0.89730  0.09780  Biso   1.000  C
  C28      1.0000 0.91610  0.10270  0.59780  Biso   1.000  C
  H45      1.0000 0.46000  0.46710  0.42240  Biso   1.000  H
  H46      1.0000 0.04000  0.53290  0.92240  Biso   1.000  H
  H47      1.0000 0.54000  0.96710  0.07760  Biso   1.000  H
  H48      1.0000 0.96000  0.03290  0.57760  Biso   1.000  H
  C29      1.0000 0.37900  0.32120  0.46870  Biso   1.000  C
  C30      1.0000 0.12100  0.67880  0.96870  Biso   1.000  C
  C31      1.0000 0.62100  0.82120  0.03130  Biso   1.000  C
  C32      1.0000 0.87900  0.17880  0.53130  Biso   1.000  C
  C33      1.0000 0.28770  0.43410  0.35340  Biso   1.000  C
  C34      1.0000 0.21230  0.56590  0.85340  Biso   1.000  C
  C35      1.0000 0.71230  0.93410  0.14660  Biso   1.000  C
  C36      1.0000 0.78770  0.06590  0.64660  Biso   1.000  C
  H49      1.0000 0.32470  0.46800  0.30770  Biso   1.000  H
  H50      1.0000 0.17530  0.53200  0.80770  Biso   1.000  H
  H51      1.0000 0.67530  0.96800  0.19230  Biso   1.000  H
  H52      1.0000 0.82470  0.03200  0.69230  Biso   1.000  H
  H53      1.0000 0.23370  0.36640  0.33950  Biso   1.000  H
  H54      1.0000 0.26630  0.63360  0.83950  Biso   1.000  H
  H55      1.0000 0.76630  0.86640  0.16050  Biso   1.000  H
  H56      1.0000 0.73370  0.13360  0.66050  Biso   1.000  H
  C37      1.0000 0.18770  0.51630  0.38900  Biso   1.000  C
  C38      1.0000 0.31230  0.48370  0.88900  Biso   1.000  C
  C39      1.0000 0.81230  0.01630  0.11100  Biso   1.000  C
  C40      1.0000 0.68770  0.98370  0.61100  Biso   1.000  C
  C41      1.0000 0.05510  0.50040  0.41850  Biso   1.000  C
  C42      1.0000 0.44490  0.49960  0.91850  Biso   1.000  C
  C43      1.0000 0.94490  0.00040  0.08150  Biso   1.000  C
  C44      1.0000 0.55510  0.99960  0.58150  Biso   1.000  C
  H57      1.0000 0.00340  0.43230  0.41870  Biso   1.000  H
  H58      1.0000 0.49660  0.56770  0.91870  Biso   1.000  H
  H59      1.0000 0.99660  0.93230  0.08130  Biso   1.000  H
  H60      1.0000 0.50340  0.06770  0.58130  Biso   1.000  H
  C45      1.0000 0.10930  0.67820  0.43720  Biso   1.000  C
  C46      1.0000 0.39070  0.32180  0.93720  Biso   1.000  C
  C47      1.0000 0.89070  0.17820  0.06280  Biso   1.000  C
  C48      1.0000 0.60930  0.82180  0.56280  Biso   1.000  C
  H61      1.0000 0.10380  0.75470  0.45130  Biso   1.000  H
  H62      1.0000 0.39620  0.24530  0.95130  Biso   1.000  H
  H63      1.0000 0.89620  0.25470  0.04870  Biso   1.000  H
  H64      1.0000 0.60380  0.74530  0.54870  Biso   1.000  H
  Cl1      1.0000 0.69902  0.49212  0.55194  Biso   1.000  Cl
  Cl2      1.0000 0.80098  0.50788  0.05194  Biso   1.000  Cl
  Cl3      1.0000 0.30098  0.99212  0.94806  Biso   1.000  Cl
  Cl4      1.0000 0.19902  0.00788  0.44806  Biso   1.000  Cl
  O13      1.0000 0.78620  0.59300  0.56130  Biso   1.000  O
  O14      1.0000 0.71380  0.40700  0.06130  Biso   1.000  O
  O15      1.0000 0.21380  0.09300  0.93870  Biso   1.000  O
  O16      1.0000 0.28620  0.90700  0.43870  Biso   1.000  O
  O17      1.0000 0.72790  0.44320  0.47940  Biso   1.000  O
  O18      1.0000 0.77210  0.55680  0.97940  Biso   1.000  O
  O19      1.0000 0.27210  0.94320  0.02060  Biso   1.000  O
  O20      1.0000 0.22790  0.05680  0.52060  Biso   1.000  O
  O21      1.0000 0.55050  0.52250  0.55900  Biso   1.000  O
  O22      1.0000 0.94950  0.47750  0.05900  Biso   1.000  O
  O23      1.0000 0.44950  0.02250  0.94100  Biso   1.000  O
  O24      1.0000 0.05050  0.97750  0.44100  Biso   1.000  O
  O25      1.0000 0.73620  0.41080  0.60890  Biso   1.000  O
  O26      1.0000 0.76380  0.58920  0.10890  Biso   1.000  O
  O27      1.0000 0.26380  0.91080  0.89110  Biso   1.000  O
  O28      1.0000 0.23620  0.08920  0.39110  Biso   1.000  O
  Cl5      1.0000 0.61790  0.74150  0.34736  Biso   1.000  Cl
  Cl6      1.0000 0.88210  0.25850  0.84736  Biso   1.000  Cl
  Cl7      1.0000 0.38210  0.24150  0.15264  Biso   1.000  Cl
  Cl8      1.0000 0.11790  0.75850  0.65264  Biso   1.000  Cl
  O29      1.0000 0.51070  0.71500  0.39980  Biso   1.000  O
  O30      1.0000 0.98930  0.28500  0.89980  Biso   1.000  O
  O31      1.0000 0.48930  0.21500  0.10020  Biso   1.000  O
  O32      1.0000 0.01070  0.78500  0.60020  Biso   1.000  O
  O33      1.0000 0.63960  0.85740  0.33360  Biso   1.000  O
  O34      1.0000 0.86040  0.14260  0.83360  Biso   1.000  O
  O35      1.0000 0.36040  0.35740  0.16640  Biso   1.000  O
  O36      1.0000 0.13960  0.64260  0.66640  Biso   1.000  O
  O37      1.0000 0.58740  0.69290  0.27330  Biso   1.000  O
  O38      1.0000 0.91260  0.30710  0.77330  Biso   1.000  O
  O39      1.0000 0.41260  0.19290  0.22670  Biso   1.000  O
  O40      1.0000 0.08740  0.80710  0.72670  Biso   1.000  O
  O41      1.0000 0.74840  0.68290  0.36910  Biso   1.000  O
  O42      1.0000 0.75160  0.31710  0.86910  Biso   1.000  O
  O43      1.0000 0.25160  0.18290  0.13090  Biso   1.000  O
  O44      1.0000 0.24840  0.81710  0.63090  Biso   1.000  O
  O45      1.0000 0.46570  0.75000  0.34160  Biso   1.000  O
  O46      1.0000 0.03430  0.25000  0.84160  Biso   1.000  O
  O47      1.0000 0.53430  0.25000  0.15840  Biso   1.000  O
  O48      1.0000 0.96570  0.75000  0.65840  Biso   1.000  O
  O49      1.0000 0.67100  0.70800  0.27410  Biso   1.000  O
  O50      1.0000 0.82900  0.29200  0.77410  Biso   1.000  O
  O51      1.0000 0.32900  0.20800  0.22590  Biso   1.000  O
  O52      1.0000 0.17100  0.79200  0.72590  Biso   1.000  O
  O53      1.0000 0.66300  0.66170  0.40180  Biso   1.000  O
  O54      1.0000 0.83700  0.33830  0.90180  Biso   1.000  O
  O55      1.0000 0.33700  0.16170  0.09820  Biso   1.000  O
  O56      1.0000 0.16300  0.83830  0.59820  Biso   1.000  O
  O57      1.0000 0.67800  0.85190  0.36510  Biso   1.000  O
  O58      1.0000 0.82200  0.14810  0.86510  Biso   1.000  O
  O59      1.0000 0.32200  0.35190  0.13490  Biso   1.000  O
  O60      1.0000 0.17800  0.64810  0.63490  Biso   1.000  O
  O61      1.0000 0.68900  0.83180  0.39110  Biso   1.000  O
  O62      1.0000 0.81100  0.16820  0.89110  Biso   1.000  O
  O63      1.0000 0.31100  0.33180  0.10890  Biso   1.000  O
  O64      1.0000 0.18900  0.66820  0.60890  Biso   1.000  O
  O65      1.0000 0.53400  0.67700  0.40290  Biso   1.000  O
  O66      1.0000 0.96600  0.32300  0.90290  Biso   1.000  O
  O67      1.0000 0.46600  0.17700  0.09710  Biso   1.000  O
  O68      1.0000 0.03400  0.82300  0.59710  Biso   1.000  O
  O69      1.0000 0.72300  0.66690  0.31940  Biso   1.000  O
  O70      1.0000 0.77700  0.33310  0.81940  Biso   1.000  O
  O71      1.0000 0.27700  0.16690  0.18060  Biso   1.000  O
  O72      1.0000 0.22300  0.83310  0.68060  Biso   1.000  O
  O73      1.0000 0.52100  0.79100  0.29710  Biso   1.000  O
  O74      1.0000 0.97900  0.20900  0.79710  Biso   1.000  O
  O75      1.0000 0.47900  0.29100  0.20290  Biso   1.000  O
  O76      1.0000 0.02100  0.70900  0.70290  Biso   1.000  O
