data_image0
_cell_length_a       11.7403
_cell_length_b       11.89
_cell_length_c       12.254
_cell_angle_alpha    71.339
_cell_angle_beta     81.936
_cell_angle_gamma    80.917

_symmetry_space_group_name_H-M    "P 1"
_symmetry_int_tables_number       1

loop_
  _symmetry_equiv_pos_as_xyz
  'x, y, z'

loop_
  _atom_site_label
  _atom_site_occupancy
  _atom_site_fract_x
  _atom_site_fract_y
  _atom_site_fract_z
  _atom_site_thermal_displace_type
  _atom_site_B_iso_or_equiv
  _atom_site_type_symbol
  Cu1      1.0000 0.00000  0.00000  0.00000  Biso   1.000  Cu
  Cu2      1.0000 0.50000  0.50000  0.50000  Biso   1.000  Cu
  S1       1.0000 0.70993  0.75043  0.14087  Biso   1.000  S
  S2       1.0000 0.29007  0.24957  0.85913  Biso   1.000  S
  N1       1.0000 0.64630  0.44210  0.58340  Biso   1.000  N
  N2       1.0000 0.35370  0.55790  0.41660  Biso   1.000  N
  N3       1.0000 0.84420  0.04780  0.93700  Biso   1.000  N
  N4       1.0000 0.15580  0.95220  0.06300  Biso   1.000  N
  O1       1.0000 0.07780  0.06190  0.82820  Biso   1.000  O
  O2       1.0000 0.92220  0.93810  0.17180  Biso   1.000  O
  O3       1.0000 0.44660  0.33890  0.56420  Biso   1.000  O
  O4       1.0000 0.55340  0.66110  0.43580  Biso   1.000  O
  O5       1.0000 0.59430  0.44620  0.33460  Biso   1.000  O
  O6       1.0000 0.40570  0.55380  0.66540  Biso   1.000  O
  N5       1.0000 0.00370  0.24830  0.50910  Biso   1.000  N
  N6       1.0000 0.99630  0.75170  0.49090  Biso   1.000  N
  C1       1.0000 0.72300  0.35160  0.56800  Biso   1.000  C
  C2       1.0000 0.27700  0.64840  0.43200  Biso   1.000  C
  C3       1.0000 0.81630  0.00790  0.85490  Biso   1.000  C
  C4       1.0000 0.18370  0.99210  0.14510  Biso   1.000  C
  C5       1.0000 0.66240  0.17300  0.92570  Biso   1.000  C
  C6       1.0000 0.33760  0.82700  0.07430  Biso   1.000  C
  C7       1.0000 0.71260  0.04620  0.80650  Biso   1.000  C
  C8       1.0000 0.28740  0.95380  0.19350  Biso   1.000  C
  C9       1.0000 0.63480  0.13080  0.83940  Biso   1.000  C
  C10      1.0000 0.36520  0.86920  0.16060  Biso   1.000  C
  C11      1.0000 0.82470  0.31220  0.61990  Biso   1.000  C
  C12      1.0000 0.17530  0.68780  0.38010  Biso   1.000  C
  C13      1.0000 0.90570  0.20860  0.59940  Biso   1.000  C
  C14      1.0000 0.09430  0.79140  0.40060  Biso   1.000  C
  C15      1.0000 0.07570  0.14510  0.47930  Biso   1.000  C
  C16      1.0000 0.92430  0.85490  0.52070  Biso   1.000  C
  C17      1.0000 0.34820  0.26120  0.21340  Biso   1.000  C
  C18      1.0000 0.65180  0.73880  0.78660  Biso   1.000  C
  C19      1.0000 0.44030  0.30860  0.11910  Biso   1.000  C
  C20      1.0000 0.55970  0.69140  0.88090  Biso   1.000  C
  C21      1.0000 0.76810  0.12820  0.97150  Biso   1.000  C
  C22      1.0000 0.23190  0.87180  0.02850  Biso   1.000  C
  C23      1.0000 0.58530  0.26790  0.96690  Biso   1.000  C
  C24      1.0000 0.41470  0.73210  0.03310  Biso   1.000  C
  C25      1.0000 0.14920  0.22930  0.27320  Biso   1.000  C
  C26      1.0000 0.85080  0.77070  0.72680  Biso   1.000  C
  C27      1.0000 0.37140  0.21150  0.32710  Biso   1.000  C
  C28      1.0000 0.62860  0.78850  0.67290  Biso   1.000  C
  C29      1.0000 0.76830  0.46370  0.71260  Biso   1.000  C
  C30      1.0000 0.23170  0.53630  0.28740  Biso   1.000  C
  H1       1.0000 0.78200  0.50400  0.76230  Biso   1.000  H
  H2       1.0000 0.21800  0.49600  0.23770  Biso   1.000  H
  C31      1.0000 0.67120  0.49670  0.65540  Biso   1.000  C
  C32      1.0000 0.32880  0.50330  0.34460  Biso   1.000  C
  H3       1.0000 0.61950  0.56050  0.66710  Biso   1.000  H
  H4       1.0000 0.38050  0.43950  0.33290  Biso   1.000  H
  C33      1.0000 0.23540  0.26810  0.18770  Biso   1.000  C
  C34      1.0000 0.76460  0.73190  0.81230  Biso   1.000  C
  C35      1.0000 0.17220  0.18310  0.38770  Biso   1.000  C
  C36      1.0000 0.82780  0.81690  0.61230  Biso   1.000  C
  O7       1.0000 0.00340  0.81800  0.98550  Biso   1.000  O
  O8       1.0000 0.99660  0.18200  0.01450  Biso   1.000  O
  C37      1.0000 0.28500  0.17400  0.41370  Biso   1.000  C
  C38      1.0000 0.71500  0.82600  0.58630  Biso   1.000  C
  C39      1.0000 0.84520  0.37050  0.69580  Biso   1.000  C
  C40      1.0000 0.15480  0.62950  0.30420  Biso   1.000  C
  S3       1.0000 0.78035  0.17894  0.29039  Biso   1.000  S
  S4       1.0000 0.21965  0.82106  0.70961  Biso   1.000  S
  O9       1.0000 0.85920  0.63990  0.40170  Biso   1.000  O
  O10      1.0000 0.14080  0.36010  0.59830  Biso   1.000  O
  O11      1.0000 0.65110  0.84530  0.05230  Biso   1.000  O
  O12      1.0000 0.34890  0.15470  0.94770  Biso   1.000  O
  N7       1.0000 0.49820  0.21660  0.06440  Biso   1.000  N
  N8       1.0000 0.50180  0.78340  0.93560  Biso   1.000  N
  O13      1.0000 0.57600  0.00710  0.24710  Biso   1.000  O
  O14      1.0000 0.42400  0.99290  0.75290  Biso   1.000  O
  O15      1.0000 0.56790  0.12900  0.55090  Biso   1.000  O
  O16      1.0000 0.43210  0.87100  0.44910  Biso   1.000  O
  O17      1.0000 0.92060  0.43720  0.31900  Biso   1.000  O
  O18      1.0000 0.07940  0.56280  0.68100  Biso   1.000  O
  O19      1.0000 0.62500  0.67390  0.21470  Biso   1.000  O
  O20      1.0000 0.37500  0.32610  0.78530  Biso   1.000  O
  O21      1.0000 0.74460  0.81830  0.21580  Biso   1.000  O
  O22      1.0000 0.25540  0.18170  0.78420  Biso   1.000  O
  O23      1.0000 0.80720  0.68800  0.09900  Biso   1.000  O
  O24      1.0000 0.19280  0.31200  0.90100  Biso   1.000  O
  O25      1.0000 0.77000  0.05350  0.29200  Biso   1.000  O
  O26      1.0000 0.23000  0.94650  0.70800  Biso   1.000  O
  O27      1.0000 0.79500  0.17400  0.40200  Biso   1.000  O
  O28      1.0000 0.20500  0.82600  0.59800  Biso   1.000  O
  O29      1.0000 0.87000  0.20600  0.22200  Biso   1.000  O
  O30      1.0000 0.13000  0.79400  0.77800  Biso   1.000  O
  O31      1.0000 0.68000  0.23500  0.25300  Biso   1.000  O
  O32      1.0000 0.32000  0.76500  0.74700  Biso   1.000  O
  O33      1.0000 0.66270  0.63660  0.14970  Biso   1.000  O
  O34      1.0000 0.33730  0.36340  0.85030  Biso   1.000  O
  O35      1.0000 0.70070  0.76760  0.25270  Biso   1.000  O
  O36      1.0000 0.29930  0.23240  0.74730  Biso   1.000  O
  O37      1.0000 0.83600  0.72800  0.09900  Biso   1.000  O
  O38      1.0000 0.16400  0.27200  0.90100  Biso   1.000  O
  O39      1.0000 0.89350  0.12700  0.25380  Biso   1.000  O
  O40      1.0000 0.10650  0.87300  0.74620  Biso   1.000  O
  O41      1.0000 0.71800  0.24420  0.18960  Biso   1.000  O
  O42      1.0000 0.28200  0.75580  0.81040  Biso   1.000  O
  O43      1.0000 0.79280  0.26810  0.34720  Biso   1.000  O
  O44      1.0000 0.20720  0.73190  0.65280  Biso   1.000  O
  O45      1.0000 0.71300  0.08840  0.36660  Biso   1.000  O
  O46      1.0000 0.28700  0.91160  0.63340  Biso   1.000  O
  O47      1.0000 0.76750  0.46400  0.04500  Biso   1.000  O
  O48      1.0000 0.23250  0.53600  0.95500  Biso   1.000  O
  O49      1.0000 0.02880  0.53330  0.10600  Biso   1.000  O
  O50      1.0000 0.97120  0.46670  0.89400  Biso   1.000  O
  H5       1.0000 0.87700  0.95700  0.82600  Biso   1.000  H
  H6       1.0000 0.12300  0.04300  0.17400  Biso   1.000  H
  H7       1.0000 0.21600  0.30400  0.11300  Biso   1.000  H
  H8       1.0000 0.78400  0.69600  0.88700  Biso   1.000  H
  H9       1.0000 0.47700  0.28200  0.55300  Biso   1.000  H
  H10      1.0000 0.52300  0.71800  0.44700  Biso   1.000  H
  H11      1.0000 0.44100  0.21000  0.34000  Biso   1.000  H
  H12      1.0000 0.55900  0.79000  0.66000  Biso   1.000  H
  H13      1.0000 0.54200  0.32100  0.90500  Biso   1.000  H
  H14      1.0000 0.45800  0.67900  0.09500  Biso   1.000  H
  H15      1.0000 0.69500  0.02100  0.74800  Biso   1.000  H
  H16      1.0000 0.30500  0.97900  0.25200  Biso   1.000  H
  H17      1.0000 0.41100  0.37500  0.05800  Biso   1.000  H
  H18      1.0000 0.58900  0.62500  0.94200  Biso   1.000  H
  H19      1.0000 0.70400  0.31400  0.52000  Biso   1.000  H
  H20      1.0000 0.29600  0.68600  0.48000  Biso   1.000  H
  H21      1.0000 0.97100  0.31100  0.43800  Biso   1.000  H
  H22      1.0000 0.02900  0.68900  0.56200  Biso   1.000  H
  H23      1.0000 0.61200  0.50800  0.28000  Biso   1.000  H
  H24      1.0000 0.38800  0.49200  0.72000  Biso   1.000  H
  H25      1.0000 0.90400  0.34800  0.72900  Biso   1.000  H
  H26      1.0000 0.09600  0.65200  0.27100  Biso   1.000  H
  H27      1.0000 0.93900  0.15600  0.67300  Biso   1.000  H
  H28      1.0000 0.06100  0.84400  0.32700  Biso   1.000  H
  H29      1.0000 0.07700  0.22900  0.26400  Biso   1.000  H
  H30      1.0000 0.92300  0.77100  0.73600  Biso   1.000  H
  H31      1.0000 0.29800  0.14700  0.48500  Biso   1.000  H
  H32      1.0000 0.70200  0.85300  0.51500  Biso   1.000  H
  H33      1.0000 0.56000  0.15900  0.81100  Biso   1.000  H
  H34      1.0000 0.44000  0.84100  0.18900  Biso   1.000  H
  H35      1.0000 0.11800  0.08800  0.80900  Biso   1.000  H
  H36      1.0000 0.88200  0.91200  0.19100  Biso   1.000  H
  H37      1.0000 0.52600  0.15700  0.11500  Biso   1.000  H
  H38      1.0000 0.47400  0.84300  0.88500  Biso   1.000  H
  H39      1.0000 0.44600  0.19700  0.02500  Biso   1.000  H
  H40      1.0000 0.55400  0.80300  0.97500  Biso   1.000  H
  H41      1.0000 0.09900  0.10500  0.53500  Biso   1.000  H
  H42      1.0000 0.90100  0.89500  0.46500  Biso   1.000  H
  H43      1.0000 0.79700  0.15700  0.03400  Biso   1.000  H
  H44      1.0000 0.20300  0.84300  0.96600  Biso   1.000  H
  H45      1.0000 0.63400  0.30900  0.99500  Biso   1.000  H
  H46      1.0000 0.36600  0.69100  0.00500  Biso   1.000  H
  H47      1.0000 0.02600  0.09900  0.45300  Biso   1.000  H
  H48      1.0000 0.97400  0.90100  0.54700  Biso   1.000  H
  H49      1.0000 0.63900  0.39500  0.32700  Biso   1.000  H
  H50      1.0000 0.36100  0.60500  0.67300  Biso   1.000  H
  H51      1.0000 0.49900  0.32900  0.14600  Biso   1.000  H
  H52      1.0000 0.50100  0.67100  0.85400  Biso   1.000  H
  H53      1.0000 0.86300  0.16100  0.57200  Biso   1.000  H
  H54      1.0000 0.13700  0.83900  0.42800  Biso   1.000  H
  H55      1.0000 0.02500  0.80300  0.94300  Biso   1.000  H
  H56      1.0000 0.97500  0.19700  0.05700  Biso   1.000  H
  H57      1.0000 0.04400  0.28800  0.52900  Biso   1.000  H
  H58      1.0000 0.95600  0.71200  0.47100  Biso   1.000  H
