data_image0
_cell_length_a       9.3215
_cell_length_b       18.3383
_cell_length_c       7.8408
_cell_angle_alpha    90
_cell_angle_beta     105.988
_cell_angle_gamma    90

_symmetry_space_group_name_H-M    "P 1"
_symmetry_int_tables_number       1

loop_
  _symmetry_equiv_pos_as_xyz
  'x, y, z'

loop_
  _atom_site_label
  _atom_site_occupancy
  _atom_site_fract_x
  _atom_site_fract_y
  _atom_site_fract_z
  _atom_site_thermal_displace_type
  _atom_site_B_iso_or_equiv
  _atom_site_type_symbol
  Cu1      1.0000 0.44022  0.03863  0.17976  Biso   1.000  Cu
  Cu2      1.0000 0.55978  0.53863  0.32024  Biso   1.000  Cu
  Cu3      1.0000 0.55978  0.96137  0.82024  Biso   1.000  Cu
  Cu4      1.0000 0.44022  0.46137  0.67976  Biso   1.000  Cu
  K1       1.0000 0.83502  0.95087  0.58330  Biso   1.000  K
  K2       1.0000 0.16498  0.45087  0.91670  Biso   1.000  K
  K3       1.0000 0.16498  0.04913  0.41670  Biso   1.000  K
  K4       1.0000 0.83502  0.54913  0.08330  Biso   1.000  K
  S1       1.0000 0.52913  0.84667  0.54501  Biso   1.000  S
  S2       1.0000 0.47087  0.34667  0.95499  Biso   1.000  S
  S3       1.0000 0.47087  0.15333  0.45499  Biso   1.000  S
  S4       1.0000 0.52913  0.65333  0.04501  Biso   1.000  S
  O1       1.0000 0.23585  0.05965  0.07250  Biso   1.000  O
  O2       1.0000 0.76415  0.55965  0.42750  Biso   1.000  O
  O3       1.0000 0.76415  0.94035  0.92750  Biso   1.000  O
  O4       1.0000 0.23585  0.44035  0.57250  Biso   1.000  O
  O5       1.0000 0.64891  0.01318  0.27848  Biso   1.000  O
  O6       1.0000 0.35109  0.51318  0.22152  Biso   1.000  O
  O7       1.0000 0.35109  0.98682  0.72152  Biso   1.000  O
  O8       1.0000 0.64891  0.48682  0.77848  Biso   1.000  O
  N1       1.0000 0.38490  0.95725  0.31530  Biso   1.000  N
  N2       1.0000 0.61510  0.45725  0.18470  Biso   1.000  N
  N3       1.0000 0.61510  0.04275  0.68470  Biso   1.000  N
  N4       1.0000 0.38490  0.54275  0.81530  Biso   1.000  N
  O9       1.0000 0.87873  0.05427  0.31240  Biso   1.000  O
  O10      1.0000 0.12127  0.55427  0.18760  Biso   1.000  O
  O11      1.0000 0.12127  0.94573  0.68760  Biso   1.000  O
  O12      1.0000 0.87873  0.44573  0.81240  Biso   1.000  O
  C1       1.0000 0.43650  0.15028  0.92370  Biso   1.000  C
  C2       1.0000 0.56350  0.65028  0.57630  Biso   1.000  C
  C3       1.0000 0.56350  0.84972  0.07630  Biso   1.000  C
  C4       1.0000 0.43650  0.34972  0.42370  Biso   1.000  C
  H1       1.0000 0.48710  0.18350  0.86760  Biso   1.000  H
  H2       1.0000 0.51290  0.68350  0.63240  Biso   1.000  H
  H3       1.0000 0.51290  0.81650  0.13240  Biso   1.000  H
  H4       1.0000 0.48710  0.31650  0.36760  Biso   1.000  H
  N5       1.0000 0.51705  0.10946  0.04660  Biso   1.000  N
  N6       1.0000 0.48295  0.60946  0.45340  Biso   1.000  N
  N7       1.0000 0.48295  0.89054  0.95340  Biso   1.000  N
  N8       1.0000 0.51705  0.39054  0.54660  Biso   1.000  N
  C5       1.0000 0.44490  0.91084  0.41050  Biso   1.000  C
  C6       1.0000 0.55510  0.41084  0.08950  Biso   1.000  C
  C7       1.0000 0.55510  0.08916  0.58950  Biso   1.000  C
  C8       1.0000 0.44490  0.58916  0.91050  Biso   1.000  C
  C9       1.0000 0.74370  0.05692  0.24090  Biso   1.000  C
  C10      1.0000 0.25630  0.55692  0.25910  Biso   1.000  C
  C11      1.0000 0.25630  0.94308  0.75910  Biso   1.000  C
  C12      1.0000 0.74370  0.44308  0.74090  Biso   1.000  C
  C13      1.0000 0.18460  0.10412  0.93840  Biso   1.000  C
  C14      1.0000 0.81540  0.60412  0.56160  Biso   1.000  C
  C15      1.0000 0.81540  0.89588  0.06160  Biso   1.000  C
  C16      1.0000 0.18460  0.39588  0.43840  Biso   1.000  C
  C17      1.0000 0.20740  0.19589  0.71990  Biso   1.000  C
  C18      1.0000 0.79260  0.69589  0.78010  Biso   1.000  C
  C19      1.0000 0.79260  0.80411  0.28010  Biso   1.000  C
  C20      1.0000 0.20740  0.30411  0.21990  Biso   1.000  C
  H5       1.0000 0.26840  0.22700  0.67270  Biso   1.000  H
  H6       1.0000 0.73160  0.72700  0.82730  Biso   1.000  H
  H7       1.0000 0.73160  0.77300  0.32730  Biso   1.000  H
  H8       1.0000 0.26840  0.27300  0.17270  Biso   1.000  H
  C21      1.0000 0.96590  0.15171  0.71890  Biso   1.000  C
  C22      1.0000 0.03410  0.65171  0.78110  Biso   1.000  C
  C23      1.0000 0.03410  0.84829  0.28110  Biso   1.000  C
  C24      1.0000 0.96590  0.34829  0.21890  Biso   1.000  C
  H9       1.0000 0.86070  0.15190  0.66940  Biso   1.000  H
  H10      1.0000 0.13930  0.65190  0.83060  Biso   1.000  H
  H11      1.0000 0.13930  0.84810  0.33060  Biso   1.000  H
  H12      1.0000 0.86070  0.34810  0.16940  Biso   1.000  H
  C25      1.0000 0.05530  0.19686  0.64640  Biso   1.000  C
  C26      1.0000 0.94470  0.69686  0.85360  Biso   1.000  C
  C27      1.0000 0.94470  0.80314  0.35360  Biso   1.000  C
  C28      1.0000 0.05530  0.30314  0.14640  Biso   1.000  C
  H13      1.0000 0.01170  0.22760  0.54820  Biso   1.000  H
  H14      1.0000 0.98830  0.72760  0.95180  Biso   1.000  H
  H15      1.0000 0.98830  0.77240  0.45180  Biso   1.000  H
  H16      1.0000 0.01170  0.27240  0.04820  Biso   1.000  H
  C29      1.0000 0.68200  0.11439  0.09800  Biso   1.000  C
  C30      1.0000 0.31800  0.61439  0.40200  Biso   1.000  C
  C31      1.0000 0.31800  0.88561  0.90200  Biso   1.000  C
  C32      1.0000 0.68200  0.38561  0.59800  Biso   1.000  C
  H17      1.0000 0.71690  0.10200  0.99170  Biso   1.000  H
  H18      1.0000 0.28310  0.60200  0.50830  Biso   1.000  H
  H19      1.0000 0.28310  0.89800  0.00830  Biso   1.000  H
  H20      1.0000 0.71690  0.39800  0.49170  Biso   1.000  H
  C33      1.0000 0.27510  0.14986  0.86370  Biso   1.000  C
  C34      1.0000 0.72490  0.64986  0.63630  Biso   1.000  C
  C35      1.0000 0.72490  0.85014  0.13630  Biso   1.000  C
  C36      1.0000 0.27510  0.35014  0.36370  Biso   1.000  C
  C37      1.0000 0.02840  0.10724  0.86040  Biso   1.000  C
  C38      1.0000 0.97160  0.60724  0.63960  Biso   1.000  C
  C39      1.0000 0.97160  0.89276  0.13960  Biso   1.000  C
  C40      1.0000 0.02840  0.39276  0.36040  Biso   1.000  C
  H21      1.0000 0.96500  0.07760  0.90760  Biso   1.000  H
  H22      1.0000 0.03500  0.57760  0.59240  Biso   1.000  H
  H23      1.0000 0.03500  0.92240  0.09240  Biso   1.000  H
  H24      1.0000 0.96500  0.42240  0.40760  Biso   1.000  H
  C41      1.0000 0.74000  0.18963  0.16120  Biso   1.000  C
  C42      1.0000 0.26000  0.68963  0.33880  Biso   1.000  C
  C43      1.0000 0.26000  0.81037  0.83880  Biso   1.000  C
  C44      1.0000 0.74000  0.31037  0.66120  Biso   1.000  C
  H25      1.0000 0.70590  0.22470  0.06420  Biso   1.000  H
  H26      1.0000 0.29410  0.72470  0.43580  Biso   1.000  H
  H27      1.0000 0.29410  0.77530  0.93580  Biso   1.000  H
  H28      1.0000 0.70590  0.27530  0.56420  Biso   1.000  H
  H29      1.0000 0.84940  0.18880  0.19910  Biso   1.000  H
  H30      1.0000 0.15060  0.68880  0.30090  Biso   1.000  H
  H31      1.0000 0.15060  0.81120  0.80090  Biso   1.000  H
  H32      1.0000 0.84940  0.31120  0.69910  Biso   1.000  H
  H33      1.0000 0.70240  0.20400  0.26130  Biso   1.000  H
  H34      1.0000 0.29760  0.70400  0.23870  Biso   1.000  H
  H35      1.0000 0.29760  0.79600  0.73870  Biso   1.000  H
  H36      1.0000 0.70240  0.29600  0.76130  Biso   1.000  H
