data_image0
_cell_length_a       23.717
_cell_length_b       23.717
_cell_length_c       22.033
_cell_angle_alpha    90
_cell_angle_beta     90
_cell_angle_gamma    120

_symmetry_space_group_name_H-M    "P 1"
_symmetry_int_tables_number       1

loop_
  _symmetry_equiv_pos_as_xyz
  'x, y, z'

loop_
  _atom_site_label
  _atom_site_occupancy
  _atom_site_fract_x
  _atom_site_fract_y
  _atom_site_fract_z
  _atom_site_thermal_displace_type
  _atom_site_B_iso_or_equiv
  _atom_site_type_symbol
  Cu1      1.0000 0.50000  0.50000  0.50000  Biso   1.000  Cu
  Cu2      1.0000 0.50000  0.00000  0.50000  Biso   1.000  Cu
  Cu3      1.0000 0.00000  0.50000  0.50000  Biso   1.000  Cu
  Cu4      1.0000 0.50000  0.50000  0.00000  Biso   1.000  Cu
  Cu5      1.0000 0.00000  0.50000  0.00000  Biso   1.000  Cu
  Cu6      1.0000 0.50000  0.00000  0.00000  Biso   1.000  Cu
  V1       1.0000 0.58724  0.25433  0.31068  Biso   1.000  V
  V2       1.0000 0.74567  0.33291  0.31068  Biso   1.000  V
  V3       1.0000 0.66709  0.41276  0.31068  Biso   1.000  V
  V4       1.0000 0.41276  0.74567  0.31068  Biso   1.000  V
  V5       1.0000 0.25433  0.66709  0.31068  Biso   1.000  V
  V6       1.0000 0.33291  0.58724  0.31068  Biso   1.000  V
  V7       1.0000 0.25433  0.58724  0.18932  Biso   1.000  V
  V8       1.0000 0.33291  0.74567  0.18932  Biso   1.000  V
  V9       1.0000 0.41276  0.66709  0.18932  Biso   1.000  V
  V10      1.0000 0.74567  0.41276  0.18932  Biso   1.000  V
  V11      1.0000 0.66709  0.25433  0.18932  Biso   1.000  V
  V12      1.0000 0.58724  0.33291  0.18932  Biso   1.000  V
  V13      1.0000 0.41276  0.74567  0.68932  Biso   1.000  V
  V14      1.0000 0.25433  0.66709  0.68932  Biso   1.000  V
  V15      1.0000 0.33291  0.58724  0.68932  Biso   1.000  V
  V16      1.0000 0.58724  0.25433  0.68932  Biso   1.000  V
  V17      1.0000 0.74567  0.33291  0.68932  Biso   1.000  V
  V18      1.0000 0.66709  0.41276  0.68932  Biso   1.000  V
  V19      1.0000 0.74567  0.41276  0.81068  Biso   1.000  V
  V20      1.0000 0.66709  0.25433  0.81068  Biso   1.000  V
  V21      1.0000 0.58724  0.33291  0.81068  Biso   1.000  V
  V22      1.0000 0.25433  0.58724  0.81068  Biso   1.000  V
  V23      1.0000 0.33291  0.74567  0.81068  Biso   1.000  V
  V24      1.0000 0.41276  0.66709  0.81068  Biso   1.000  V
  S1       1.0000 0.53040  0.37220  0.46450  Biso   1.000  S
  S2       1.0000 0.62780  0.15820  0.46450  Biso   1.000  S
  S3       1.0000 0.84180  0.46960  0.46450  Biso   1.000  S
  S4       1.0000 0.46960  0.62780  0.46450  Biso   1.000  S
  S5       1.0000 0.37220  0.84180  0.46450  Biso   1.000  S
  S6       1.0000 0.15820  0.53040  0.46450  Biso   1.000  S
  S7       1.0000 0.37220  0.53040  0.03550  Biso   1.000  S
  S8       1.0000 0.15820  0.62780  0.03550  Biso   1.000  S
  S9       1.0000 0.46960  0.84180  0.03550  Biso   1.000  S
  S10      1.0000 0.62780  0.46960  0.03550  Biso   1.000  S
  S11      1.0000 0.84180  0.37220  0.03550  Biso   1.000  S
  S12      1.0000 0.53040  0.15820  0.03550  Biso   1.000  S
  S13      1.0000 0.46960  0.62780  0.53550  Biso   1.000  S
  S14      1.0000 0.37220  0.84180  0.53550  Biso   1.000  S
  S15      1.0000 0.15820  0.53040  0.53550  Biso   1.000  S
  S16      1.0000 0.53040  0.37220  0.53550  Biso   1.000  S
  S17      1.0000 0.62780  0.15820  0.53550  Biso   1.000  S
  S18      1.0000 0.84180  0.46960  0.53550  Biso   1.000  S
  S19      1.0000 0.62780  0.46960  0.96450  Biso   1.000  S
  S20      1.0000 0.84180  0.37220  0.96450  Biso   1.000  S
  S21      1.0000 0.53040  0.15820  0.96450  Biso   1.000  S
  S22      1.0000 0.37220  0.53040  0.96450  Biso   1.000  S
  S23      1.0000 0.15820  0.62780  0.96450  Biso   1.000  S
  S24      1.0000 0.46960  0.84180  0.96450  Biso   1.000  S
  S25      1.0000 0.36270  0.38880  0.46300  Biso   1.000  S
  S26      1.0000 0.61120  0.97390  0.46300  Biso   1.000  S
  S27      1.0000 0.02610  0.63730  0.46300  Biso   1.000  S
  S28      1.0000 0.63730  0.61120  0.46300  Biso   1.000  S
  S29      1.0000 0.38880  0.02610  0.46300  Biso   1.000  S
  S30      1.0000 0.97390  0.36270  0.46300  Biso   1.000  S
  S31      1.0000 0.38880  0.36270  0.03700  Biso   1.000  S
  S32      1.0000 0.97390  0.61120  0.03700  Biso   1.000  S
  S33      1.0000 0.63730  0.02610  0.03700  Biso   1.000  S
  S34      1.0000 0.61120  0.63730  0.03700  Biso   1.000  S
  S35      1.0000 0.02610  0.38880  0.03700  Biso   1.000  S
  S36      1.0000 0.36270  0.97390  0.03700  Biso   1.000  S
  S37      1.0000 0.63730  0.61120  0.53700  Biso   1.000  S
  S38      1.0000 0.38880  0.02610  0.53700  Biso   1.000  S
  S39      1.0000 0.97390  0.36270  0.53700  Biso   1.000  S
  S40      1.0000 0.36270  0.38880  0.53700  Biso   1.000  S
  S41      1.0000 0.61120  0.97390  0.53700  Biso   1.000  S
  S42      1.0000 0.02610  0.63730  0.53700  Biso   1.000  S
  S43      1.0000 0.61120  0.63730  0.96300  Biso   1.000  S
  S44      1.0000 0.02610  0.38880  0.96300  Biso   1.000  S
  S45      1.0000 0.36270  0.97390  0.96300  Biso   1.000  S
  S46      1.0000 0.38880  0.36270  0.96300  Biso   1.000  S
  S47      1.0000 0.97390  0.61120  0.96300  Biso   1.000  S
  S48      1.0000 0.63730  0.02610  0.96300  Biso   1.000  S
  O1       1.0000 0.60250  0.20500  0.25000  Biso   1.000  O
  O2       1.0000 0.79500  0.39750  0.25000  Biso   1.000  O
  O3       1.0000 0.60250  0.39750  0.25000  Biso   1.000  O
  O4       1.0000 0.39750  0.79500  0.25000  Biso   1.000  O
  O5       1.0000 0.20500  0.60250  0.25000  Biso   1.000  O
  O6       1.0000 0.39750  0.60250  0.25000  Biso   1.000  O
  O7       1.0000 0.39750  0.79500  0.75000  Biso   1.000  O
  O8       1.0000 0.20500  0.60250  0.75000  Biso   1.000  O
  O9       1.0000 0.39750  0.60250  0.75000  Biso   1.000  O
  O10      1.0000 0.60250  0.20500  0.75000  Biso   1.000  O
  O11      1.0000 0.79500  0.39750  0.75000  Biso   1.000  O
  O12      1.0000 0.60250  0.39750  0.75000  Biso   1.000  O
  O13      1.0000 0.52870  0.19610  0.35480  Biso   1.000  O
  O14      1.0000 0.80390  0.33260  0.35480  Biso   1.000  O
  O15      1.0000 0.66740  0.47130  0.35480  Biso   1.000  O
  O16      1.0000 0.47130  0.80390  0.35480  Biso   1.000  O
  O17      1.0000 0.19610  0.66740  0.35480  Biso   1.000  O
  O18      1.0000 0.33260  0.52870  0.35480  Biso   1.000  O
  O19      1.0000 0.19610  0.52870  0.14520  Biso   1.000  O
  O20      1.0000 0.33260  0.80390  0.14520  Biso   1.000  O
  O21      1.0000 0.47130  0.66740  0.14520  Biso   1.000  O
  O22      1.0000 0.80390  0.47130  0.14520  Biso   1.000  O
  O23      1.0000 0.66740  0.19610  0.14520  Biso   1.000  O
  O24      1.0000 0.52870  0.33260  0.14520  Biso   1.000  O
  O25      1.0000 0.47130  0.80390  0.64520  Biso   1.000  O
  O26      1.0000 0.19610  0.66740  0.64520  Biso   1.000  O
  O27      1.0000 0.33260  0.52870  0.64520  Biso   1.000  O
  O28      1.0000 0.52870  0.19610  0.64520  Biso   1.000  O
  O29      1.0000 0.80390  0.33260  0.64520  Biso   1.000  O
  O30      1.0000 0.66740  0.47130  0.64520  Biso   1.000  O
  O31      1.0000 0.80390  0.47130  0.85480  Biso   1.000  O
  O32      1.0000 0.66740  0.19610  0.85480  Biso   1.000  O
  O33      1.0000 0.52870  0.33260  0.85480  Biso   1.000  O
  O34      1.0000 0.19610  0.52870  0.85480  Biso   1.000  O
  O35      1.0000 0.33260  0.80390  0.85480  Biso   1.000  O
  O36      1.0000 0.47130  0.66740  0.85480  Biso   1.000  O
  O37      1.0000 0.53910  0.26950  0.25000  Biso   1.000  O
  O38      1.0000 0.73050  0.26960  0.25000  Biso   1.000  O
  O39      1.0000 0.73040  0.46090  0.25000  Biso   1.000  O
  O40      1.0000 0.46090  0.73050  0.25000  Biso   1.000  O
  O41      1.0000 0.26950  0.73040  0.25000  Biso   1.000  O
  O42      1.0000 0.26960  0.53910  0.25000  Biso   1.000  O
  O43      1.0000 0.46090  0.73050  0.75000  Biso   1.000  O
  O44      1.0000 0.26950  0.73040  0.75000  Biso   1.000  O
  O45      1.0000 0.26960  0.53910  0.75000  Biso   1.000  O
  O46      1.0000 0.53910  0.26950  0.75000  Biso   1.000  O
  O47      1.0000 0.73050  0.26960  0.75000  Biso   1.000  O
  O48      1.0000 0.73040  0.46090  0.75000  Biso   1.000  O
  O49      1.0000 0.66670  0.33330  0.25000  Biso   1.000  O
  O50      1.0000 0.33330  0.66670  0.25000  Biso   1.000  O
  O51      1.0000 0.33330  0.66670  0.75000  Biso   1.000  O
  O52      1.0000 0.66670  0.33330  0.75000  Biso   1.000  O
  O53      1.0000 0.60230  0.33280  0.34730  Biso   1.000  O
  O54      1.0000 0.66720  0.26950  0.34730  Biso   1.000  O
  O55      1.0000 0.73050  0.39770  0.34730  Biso   1.000  O
  O56      1.0000 0.39770  0.66720  0.34730  Biso   1.000  O
  O57      1.0000 0.33280  0.73050  0.34730  Biso   1.000  O
  O58      1.0000 0.26950  0.60230  0.34730  Biso   1.000  O
  O59      1.0000 0.33280  0.60230  0.15270  Biso   1.000  O
  O60      1.0000 0.26950  0.66720  0.15270  Biso   1.000  O
  O61      1.0000 0.39770  0.73050  0.15270  Biso   1.000  O
  O62      1.0000 0.66720  0.39770  0.15270  Biso   1.000  O
  O63      1.0000 0.73050  0.33280  0.15270  Biso   1.000  O
  O64      1.0000 0.60230  0.26950  0.15270  Biso   1.000  O
  O65      1.0000 0.39770  0.66720  0.65270  Biso   1.000  O
  O66      1.0000 0.33280  0.73050  0.65270  Biso   1.000  O
  O67      1.0000 0.26950  0.60230  0.65270  Biso   1.000  O
  O68      1.0000 0.60230  0.33280  0.65270  Biso   1.000  O
  O69      1.0000 0.66720  0.26950  0.65270  Biso   1.000  O
  O70      1.0000 0.73050  0.39770  0.65270  Biso   1.000  O
  O71      1.0000 0.66720  0.39770  0.84730  Biso   1.000  O
  O72      1.0000 0.73050  0.33280  0.84730  Biso   1.000  O
  O73      1.0000 0.60230  0.26950  0.84730  Biso   1.000  O
  O74      1.0000 0.33280  0.60230  0.84730  Biso   1.000  O
  O75      1.0000 0.26950  0.66720  0.84730  Biso   1.000  O
  O76      1.0000 0.39770  0.73050  0.84730  Biso   1.000  O
  O77      1.0000 0.49810  0.39650  0.50000  Biso   1.000  O
  O78      1.0000 0.60350  0.10160  0.50000  Biso   1.000  O
  O79      1.0000 0.89840  0.50190  0.50000  Biso   1.000  O
  O80      1.0000 0.50190  0.60350  0.50000  Biso   1.000  O
  O81      1.0000 0.39650  0.89840  0.50000  Biso   1.000  O
  O82      1.0000 0.10160  0.49810  0.50000  Biso   1.000  O
  O83      1.0000 0.39650  0.49810  0.00000  Biso   1.000  O
  O84      1.0000 0.10160  0.60350  0.00000  Biso   1.000  O
  O85      1.0000 0.50190  0.89840  0.00000  Biso   1.000  O
  O86      1.0000 0.60350  0.50190  0.00000  Biso   1.000  O
  O87      1.0000 0.89840  0.39650  0.00000  Biso   1.000  O
  O88      1.0000 0.49810  0.10160  0.00000  Biso   1.000  O
  O89      1.0000 0.39990  0.45220  0.50000  Biso   1.000  O
  O90      1.0000 0.54780  0.94770  0.50000  Biso   1.000  O
  O91      1.0000 0.05230  0.60010  0.50000  Biso   1.000  O
  O92      1.0000 0.60010  0.54780  0.50000  Biso   1.000  O
  O93      1.0000 0.45220  0.05230  0.50000  Biso   1.000  O
  O94      1.0000 0.94770  0.39990  0.50000  Biso   1.000  O
  O95      1.0000 0.45220  0.39990  0.00000  Biso   1.000  O
  O96      1.0000 0.94770  0.54780  0.00000  Biso   1.000  O
  O97      1.0000 0.60010  0.05230  0.00000  Biso   1.000  O
  O98      1.0000 0.54780  0.60010  0.00000  Biso   1.000  O
  O99      1.0000 0.05230  0.45220  0.00000  Biso   1.000  O
  O100     1.0000 0.39990  0.94770  0.00000  Biso   1.000  O
  C1       1.0000 0.50000  0.50000  0.71580  Biso   1.000  C
  C2       1.0000 0.50000  0.00000  0.71580  Biso   1.000  C
  C3       1.0000 0.00000  0.50000  0.71580  Biso   1.000  C
  C4       1.0000 0.50000  0.50000  0.78420  Biso   1.000  C
  C5       1.0000 0.00000  0.50000  0.78420  Biso   1.000  C
  C6       1.0000 0.50000  0.00000  0.78420  Biso   1.000  C
  C7       1.0000 0.50000  0.50000  0.28420  Biso   1.000  C
  C8       1.0000 0.50000  0.00000  0.28420  Biso   1.000  C
  C9       1.0000 0.00000  0.50000  0.28420  Biso   1.000  C
  C10      1.0000 0.50000  0.50000  0.21580  Biso   1.000  C
  C11      1.0000 0.00000  0.50000  0.21580  Biso   1.000  C
  C12      1.0000 0.50000  0.00000  0.21580  Biso   1.000  C
  C13      1.0000 0.46100  0.51540  0.68310  Biso   1.000  C
  C14      1.0000 0.48460  0.94560  0.68310  Biso   1.000  C
  C15      1.0000 0.05440  0.53900  0.68310  Biso   1.000  C
  C16      1.0000 0.53900  0.48460  0.68310  Biso   1.000  C
  C17      1.0000 0.51540  0.05440  0.68310  Biso   1.000  C
  C18      1.0000 0.94560  0.46100  0.68310  Biso   1.000  C
  C19      1.0000 0.51540  0.46100  0.81690  Biso   1.000  C
  C20      1.0000 0.94560  0.48460  0.81690  Biso   1.000  C
  C21      1.0000 0.53900  0.05440  0.81690  Biso   1.000  C
  C22      1.0000 0.48460  0.53900  0.81690  Biso   1.000  C
  C23      1.0000 0.05440  0.51540  0.81690  Biso   1.000  C
  C24      1.0000 0.46100  0.94560  0.81690  Biso   1.000  C
  C25      1.0000 0.53900  0.48460  0.31690  Biso   1.000  C
  C26      1.0000 0.51540  0.05440  0.31690  Biso   1.000  C
  C27      1.0000 0.94560  0.46100  0.31690  Biso   1.000  C
  C28      1.0000 0.46100  0.51540  0.31690  Biso   1.000  C
  C29      1.0000 0.48460  0.94560  0.31690  Biso   1.000  C
  C30      1.0000 0.05440  0.53900  0.31690  Biso   1.000  C
  C31      1.0000 0.48460  0.53900  0.18310  Biso   1.000  C
  C32      1.0000 0.05440  0.51540  0.18310  Biso   1.000  C
  C33      1.0000 0.46100  0.94560  0.18310  Biso   1.000  C
  C34      1.0000 0.51540  0.46100  0.18310  Biso   1.000  C
  C35      1.0000 0.94560  0.48460  0.18310  Biso   1.000  C
  C36      1.0000 0.53900  0.05440  0.18310  Biso   1.000  C
  H1       1.0000 0.43410  0.52690  0.70390  Biso   1.000  H
  H2       1.0000 0.47310  0.90720  0.70390  Biso   1.000  H
  H3       1.0000 0.09280  0.56590  0.70390  Biso   1.000  H
  H4       1.0000 0.56590  0.47310  0.70390  Biso   1.000  H
  H5       1.0000 0.52690  0.09280  0.70390  Biso   1.000  H
  H6       1.0000 0.90720  0.43410  0.70390  Biso   1.000  H
  H7       1.0000 0.52690  0.43410  0.79610  Biso   1.000  H
  H8       1.0000 0.90720  0.47310  0.79610  Biso   1.000  H
  H9       1.0000 0.56590  0.09280  0.79610  Biso   1.000  H
  H10      1.0000 0.47310  0.56590  0.79610  Biso   1.000  H
  H11      1.0000 0.09280  0.52690  0.79610  Biso   1.000  H
  H12      1.0000 0.43410  0.90720  0.79610  Biso   1.000  H
  H13      1.0000 0.56590  0.47310  0.29610  Biso   1.000  H
  H14      1.0000 0.52690  0.09280  0.29610  Biso   1.000  H
  H15      1.0000 0.90720  0.43410  0.29610  Biso   1.000  H
  H16      1.0000 0.43410  0.52690  0.29610  Biso   1.000  H
  H17      1.0000 0.47310  0.90720  0.29610  Biso   1.000  H
  H18      1.0000 0.09280  0.56590  0.29610  Biso   1.000  H
  H19      1.0000 0.47310  0.56590  0.20390  Biso   1.000  H
  H20      1.0000 0.09280  0.52690  0.20390  Biso   1.000  H
  H21      1.0000 0.43410  0.90720  0.20390  Biso   1.000  H
  H22      1.0000 0.52690  0.43410  0.20390  Biso   1.000  H
  H23      1.0000 0.90720  0.47310  0.20390  Biso   1.000  H
  H24      1.0000 0.56590  0.09280  0.20390  Biso   1.000  H
  C37      1.0000 0.45930  0.51480  0.62120  Biso   1.000  C
  C38      1.0000 0.48520  0.94450  0.62120  Biso   1.000  C
  C39      1.0000 0.05550  0.54070  0.62120  Biso   1.000  C
  C40      1.0000 0.54070  0.48520  0.62120  Biso   1.000  C
  C41      1.0000 0.51480  0.05550  0.62120  Biso   1.000  C
  C42      1.0000 0.94450  0.45930  0.62120  Biso   1.000  C
  C43      1.0000 0.51480  0.45930  0.87880  Biso   1.000  C
  C44      1.0000 0.94450  0.48520  0.87880  Biso   1.000  C
  C45      1.0000 0.54070  0.05550  0.87880  Biso   1.000  C
  C46      1.0000 0.48520  0.54070  0.87880  Biso   1.000  C
  C47      1.0000 0.05550  0.51480  0.87880  Biso   1.000  C
  C48      1.0000 0.45930  0.94450  0.87880  Biso   1.000  C
  C49      1.0000 0.54070  0.48520  0.37880  Biso   1.000  C
  C50      1.0000 0.51480  0.05550  0.37880  Biso   1.000  C
  C51      1.0000 0.94450  0.45930  0.37880  Biso   1.000  C
  C52      1.0000 0.45930  0.51480  0.37880  Biso   1.000  C
  C53      1.0000 0.48520  0.94450  0.37880  Biso   1.000  C
  C54      1.0000 0.05550  0.54070  0.37880  Biso   1.000  C
  C55      1.0000 0.48520  0.54070  0.12120  Biso   1.000  C
  C56      1.0000 0.05550  0.51480  0.12120  Biso   1.000  C
  C57      1.0000 0.45930  0.94450  0.12120  Biso   1.000  C
  C58      1.0000 0.51480  0.45930  0.12120  Biso   1.000  C
  C59      1.0000 0.94450  0.48520  0.12120  Biso   1.000  C
  C60      1.0000 0.54070  0.05550  0.12120  Biso   1.000  C
  H25      1.0000 0.43110  0.52420  0.60000  Biso   1.000  H
  H26      1.0000 0.47580  0.90690  0.60000  Biso   1.000  H
  H27      1.0000 0.09310  0.56890  0.60000  Biso   1.000  H
  H28      1.0000 0.56890  0.47580  0.60000  Biso   1.000  H
  H29      1.0000 0.52420  0.09310  0.60000  Biso   1.000  H
  H30      1.0000 0.90690  0.43110  0.60000  Biso   1.000  H
  H31      1.0000 0.52420  0.43110  0.90000  Biso   1.000  H
  H32      1.0000 0.90690  0.47580  0.90000  Biso   1.000  H
  H33      1.0000 0.56890  0.09310  0.90000  Biso   1.000  H
  H34      1.0000 0.47580  0.56890  0.90000  Biso   1.000  H
  H35      1.0000 0.09310  0.52420  0.90000  Biso   1.000  H
  H36      1.0000 0.43110  0.90690  0.90000  Biso   1.000  H
  H37      1.0000 0.56890  0.47580  0.40000  Biso   1.000  H
  H38      1.0000 0.52420  0.09310  0.40000  Biso   1.000  H
  H39      1.0000 0.90690  0.43110  0.40000  Biso   1.000  H
  H40      1.0000 0.43110  0.52420  0.40000  Biso   1.000  H
  H41      1.0000 0.47580  0.90690  0.40000  Biso   1.000  H
  H42      1.0000 0.09310  0.56890  0.40000  Biso   1.000  H
  H43      1.0000 0.47580  0.56890  0.10000  Biso   1.000  H
  H44      1.0000 0.09310  0.52420  0.10000  Biso   1.000  H
  H45      1.0000 0.43110  0.90690  0.10000  Biso   1.000  H
  H46      1.0000 0.52420  0.43110  0.10000  Biso   1.000  H
  H47      1.0000 0.90690  0.47580  0.10000  Biso   1.000  H
  H48      1.0000 0.56890  0.09310  0.10000  Biso   1.000  H
  C61      1.0000 0.60900  0.39800  0.50000  Biso   1.000  C
  C62      1.0000 0.60200  0.21100  0.50000  Biso   1.000  C
  C63      1.0000 0.78900  0.39100  0.50000  Biso   1.000  C
  C64      1.0000 0.39100  0.60200  0.50000  Biso   1.000  C
  C65      1.0000 0.39800  0.78900  0.50000  Biso   1.000  C
  C66      1.0000 0.21100  0.60900  0.50000  Biso   1.000  C
  C67      1.0000 0.39800  0.60900  0.00000  Biso   1.000  C
  C68      1.0000 0.21100  0.60200  0.00000  Biso   1.000  C
  C69      1.0000 0.39100  0.78900  0.00000  Biso   1.000  C
  C70      1.0000 0.60200  0.39100  0.00000  Biso   1.000  C
  C71      1.0000 0.78900  0.39800  0.00000  Biso   1.000  C
  C72      1.0000 0.60900  0.21100  0.00000  Biso   1.000  C
  C73      1.0000 0.50200  0.29300  0.50000  Biso   1.000  C
  C74      1.0000 0.70700  0.20900  0.50000  Biso   1.000  C
  C75      1.0000 0.79100  0.49800  0.50000  Biso   1.000  C
  C76      1.0000 0.49800  0.70700  0.50000  Biso   1.000  C
  C77      1.0000 0.29300  0.79100  0.50000  Biso   1.000  C
  C78      1.0000 0.20900  0.50200  0.50000  Biso   1.000  C
  C79      1.0000 0.29300  0.50200  0.00000  Biso   1.000  C
  C80      1.0000 0.20900  0.70700  0.00000  Biso   1.000  C
  C81      1.0000 0.49800  0.79100  0.00000  Biso   1.000  C
  C82      1.0000 0.70700  0.49800  0.00000  Biso   1.000  C
  C83      1.0000 0.79100  0.29300  0.00000  Biso   1.000  C
  C84      1.0000 0.50200  0.20900  0.00000  Biso   1.000  C
  C85      1.0000 0.29600  0.39600  0.43000  Biso   1.000  C
  C86      1.0000 0.60400  0.90000  0.43000  Biso   1.000  C
  C87      1.0000 0.10000  0.70400  0.43000  Biso   1.000  C
  C88      1.0000 0.70400  0.60400  0.43000  Biso   1.000  C
  C89      1.0000 0.39600  0.10000  0.43000  Biso   1.000  C
  C90      1.0000 0.90000  0.29600  0.43000  Biso   1.000  C
  C91      1.0000 0.39600  0.29600  0.07000  Biso   1.000  C
  C92      1.0000 0.90000  0.60400  0.07000  Biso   1.000  C
  C93      1.0000 0.70400  0.10000  0.07000  Biso   1.000  C
  C94      1.0000 0.60400  0.70400  0.07000  Biso   1.000  C
  C95      1.0000 0.10000  0.39600  0.07000  Biso   1.000  C
  C96      1.0000 0.29600  0.90000  0.07000  Biso   1.000  C
  C97      1.0000 0.70400  0.60400  0.57000  Biso   1.000  C
  C98      1.0000 0.39600  0.10000  0.57000  Biso   1.000  C
  C99      1.0000 0.90000  0.29600  0.57000  Biso   1.000  C
  C100     1.0000 0.29600  0.39600  0.57000  Biso   1.000  C
  C101     1.0000 0.60400  0.90000  0.57000  Biso   1.000  C
  C102     1.0000 0.10000  0.70400  0.57000  Biso   1.000  C
  C103     1.0000 0.60400  0.70400  0.93000  Biso   1.000  C
  C104     1.0000 0.10000  0.39600  0.93000  Biso   1.000  C
  C105     1.0000 0.29600  0.90000  0.93000  Biso   1.000  C
  C106     1.0000 0.39600  0.29600  0.93000  Biso   1.000  C
  C107     1.0000 0.90000  0.60400  0.93000  Biso   1.000  C
  C108     1.0000 0.70400  0.10000  0.93000  Biso   1.000  C
  C109     1.0000 0.35700  0.31800  0.50000  Biso   1.000  C
  C110     1.0000 0.68200  0.03900  0.50000  Biso   1.000  C
  C111     1.0000 0.96100  0.64300  0.50000  Biso   1.000  C
  C112     1.0000 0.64300  0.68200  0.50000  Biso   1.000  C
  C113     1.0000 0.31800  0.96100  0.50000  Biso   1.000  C
  C114     1.0000 0.03900  0.35700  0.50000  Biso   1.000  C
  C115     1.0000 0.31800  0.35700  0.00000  Biso   1.000  C
  C116     1.0000 0.03900  0.68200  0.00000  Biso   1.000  C
  C117     1.0000 0.64300  0.96100  0.00000  Biso   1.000  C
  C118     1.0000 0.68200  0.64300  0.00000  Biso   1.000  C
  C119     1.0000 0.96100  0.31800  0.00000  Biso   1.000  C
  C120     1.0000 0.35700  0.03900  0.00000  Biso   1.000  C
  N1       1.0000 0.50000  0.50000  0.59180  Biso   1.000  N
  N2       1.0000 0.50000  0.00000  0.59180  Biso   1.000  N
  N3       1.0000 0.00000  0.50000  0.59180  Biso   1.000  N
  N4       1.0000 0.50000  0.50000  0.90820  Biso   1.000  N
  N5       1.0000 0.00000  0.50000  0.90820  Biso   1.000  N
  N6       1.0000 0.50000  0.00000  0.90820  Biso   1.000  N
  N7       1.0000 0.50000  0.50000  0.40820  Biso   1.000  N
  N8       1.0000 0.50000  0.00000  0.40820  Biso   1.000  N
  N9       1.0000 0.00000  0.50000  0.40820  Biso   1.000  N
  N10      1.0000 0.50000  0.50000  0.09180  Biso   1.000  N
  N11      1.0000 0.00000  0.50000  0.09180  Biso   1.000  N
  N12      1.0000 0.50000  0.00000  0.09180  Biso   1.000  N
