data_image0
_cell_length_a       12.859
_cell_length_b       9.672
_cell_length_c       12.247
_cell_angle_alpha    90
_cell_angle_beta     113.52
_cell_angle_gamma    90

_symmetry_space_group_name_H-M    "P 1"
_symmetry_int_tables_number       1

loop_
  _symmetry_equiv_pos_as_xyz
  'x, y, z'

loop_
  _atom_site_label
  _atom_site_occupancy
  _atom_site_fract_x
  _atom_site_fract_y
  _atom_site_fract_z
  _atom_site_thermal_displace_type
  _atom_site_B_iso_or_equiv
  _atom_site_type_symbol
  Cu1      1.0000 0.48468  0.23760  0.75450  Biso   1.000  Cu
  Cu2      1.0000 0.01532  0.73760  0.74550  Biso   1.000  Cu
  Cu3      1.0000 0.51532  0.76240  0.24550  Biso   1.000  Cu
  Cu4      1.0000 0.98468  0.26240  0.25450  Biso   1.000  Cu
  N1       1.0000 0.46010  0.03830  0.73410  Biso   1.000  N
  N2       1.0000 0.03990  0.53830  0.76590  Biso   1.000  N
  N3       1.0000 0.53990  0.96170  0.26590  Biso   1.000  N
  N4       1.0000 0.96010  0.46170  0.23410  Biso   1.000  N
  C1       1.0000 0.49770  0.97400  0.65880  Biso   1.000  C
  C2       1.0000 0.00230  0.47400  0.84120  Biso   1.000  C
  C3       1.0000 0.50230  0.02600  0.34120  Biso   1.000  C
  C4       1.0000 0.99770  0.52600  0.15880  Biso   1.000  C
  C5       1.0000 0.49380  0.83410  0.64230  Biso   1.000  C
  C6       1.0000 0.00620  0.33410  0.85770  Biso   1.000  C
  C7       1.0000 0.50620  0.16590  0.35770  Biso   1.000  C
  C8       1.0000 0.99380  0.66590  0.14230  Biso   1.000  C
  C9       1.0000 0.45020  0.75340  0.70750  Biso   1.000  C
  C10      1.0000 0.04980  0.25340  0.79250  Biso   1.000  C
  C11      1.0000 0.54980  0.24660  0.29250  Biso   1.000  C
  C12      1.0000 0.95020  0.74660  0.20750  Biso   1.000  C
  C13      1.0000 0.41090  0.81530  0.78280  Biso   1.000  C
  C14      1.0000 0.08910  0.31530  0.71720  Biso   1.000  C
  C15      1.0000 0.58910  0.18470  0.21720  Biso   1.000  C
  C16      1.0000 0.91090  0.68470  0.28280  Biso   1.000  C
  C17      1.0000 0.41700  0.95980  0.79590  Biso   1.000  C
  C18      1.0000 0.08300  0.45980  0.70410  Biso   1.000  C
  C19      1.0000 0.58300  0.04020  0.20410  Biso   1.000  C
  C20      1.0000 0.91700  0.54020  0.29590  Biso   1.000  C
  N5       1.0000 0.37620  0.01670  0.87400  Biso   1.000  N
  N6       1.0000 0.12380  0.51670  0.62600  Biso   1.000  N
  N7       1.0000 0.62380  0.98330  0.12600  Biso   1.000  N
  N8       1.0000 0.87620  0.48330  0.37400  Biso   1.000  N
  C21      1.0000 0.36700  0.15140  0.90510  Biso   1.000  C
  C22      1.0000 0.13300  0.65140  0.59490  Biso   1.000  C
  C23      1.0000 0.63300  0.84860  0.09490  Biso   1.000  C
  C24      1.0000 0.86700  0.34860  0.40510  Biso   1.000  C
  C25      1.0000 0.31680  0.17300  0.98590  Biso   1.000  C
  C26      1.0000 0.18320  0.67300  0.51410  Biso   1.000  C
  C27      1.0000 0.68320  0.82700  0.01410  Biso   1.000  C
  C28      1.0000 0.81680  0.32700  0.48590  Biso   1.000  C
  C29      1.0000 0.30550  0.30430  0.02050  Biso   1.000  C
  C30      1.0000 0.19450  0.80430  0.47950  Biso   1.000  C
  C31      1.0000 0.69450  0.69570  0.97950  Biso   1.000  C
  C32      1.0000 0.80550  0.19570  0.52050  Biso   1.000  C
  C33      1.0000 0.34140  0.41380  0.97240  Biso   1.000  C
  C34      1.0000 0.15860  0.91380  0.52760  Biso   1.000  C
  C35      1.0000 0.65860  0.58620  0.02760  Biso   1.000  C
  C36      1.0000 0.84140  0.08620  0.47240  Biso   1.000  C
  C37      1.0000 0.38980  0.38710  0.89360  Biso   1.000  C
  C38      1.0000 0.11020  0.88710  0.60640  Biso   1.000  C
  C39      1.0000 0.61020  0.61290  0.10640  Biso   1.000  C
  C40      1.0000 0.88980  0.11290  0.39360  Biso   1.000  C
  N9       1.0000 0.40360  0.25740  0.85930  Biso   1.000  N
  N10      1.0000 0.09640  0.75740  0.64070  Biso   1.000  N
  N11      1.0000 0.59640  0.74260  0.14070  Biso   1.000  N
  N12      1.0000 0.90360  0.24260  0.35930  Biso   1.000  N
  O1       1.0000 0.54350  0.43100  0.76160  Biso   1.000  O
  O2       1.0000 0.95650  0.93100  0.73840  Biso   1.000  O
  O3       1.0000 0.45650  0.56900  0.23840  Biso   1.000  O
  O4       1.0000 0.04350  0.06900  0.26160  Biso   1.000  O
  O5       1.0000 0.58730  0.26630  0.66700  Biso   1.000  O
  O6       1.0000 0.91270  0.76630  0.83300  Biso   1.000  O
  O7       1.0000 0.41270  0.73370  0.33300  Biso   1.000  O
  O8       1.0000 0.08730  0.23370  0.16700  Biso   1.000  O
  C41      1.0000 0.59790  0.39070  0.70100  Biso   1.000  C
  C42      1.0000 0.90210  0.89070  0.79900  Biso   1.000  C
  C43      1.0000 0.40210  0.60930  0.29900  Biso   1.000  C
  C44      1.0000 0.09790  0.10930  0.20100  Biso   1.000  C
  C45      1.0000 0.67220  0.48810  0.67110  Biso   1.000  C
  C46      1.0000 0.82780  0.98810  0.82890  Biso   1.000  C
  C47      1.0000 0.32780  0.51190  0.32890  Biso   1.000  C
  C48      1.0000 0.17220  0.01190  0.17110  Biso   1.000  C
  O9       1.0000 0.31210  0.33230  0.59880  Biso   1.000  O
  O10      1.0000 0.18790  0.83230  0.90120  Biso   1.000  O
  O11      1.0000 0.68790  0.66770  0.40120  Biso   1.000  O
  O12      1.0000 0.81210  0.16770  0.09880  Biso   1.000  O
  N13      1.0000 0.25430  0.27650  0.50240  Biso   1.000  N
  N14      1.0000 0.24570  0.77650  0.99760  Biso   1.000  N
  N15      1.0000 0.74570  0.72350  0.49760  Biso   1.000  N
  N16      1.0000 0.75430  0.22350  0.00240  Biso   1.000  N
  O13      1.0000 0.29330  0.19010  0.45750  Biso   1.000  O
  O14      1.0000 0.20670  0.69010  0.04250  Biso   1.000  O
  O15      1.0000 0.70670  0.80990  0.54250  Biso   1.000  O
  O16      1.0000 0.79330  0.30990  0.95750  Biso   1.000  O
  O17      1.0000 0.65520  0.17990  0.95310  Biso   1.000  O
  O18      1.0000 0.84480  0.67990  0.54690  Biso   1.000  O
  O19      1.0000 0.34480  0.82010  0.04690  Biso   1.000  O
  O20      1.0000 0.15520  0.32010  0.45310  Biso   1.000  O
  H1       1.0000 0.53250  0.03770  0.60920  Biso   1.000  H
  H2       1.0000 0.96750  0.53770  0.89080  Biso   1.000  H
  H3       1.0000 0.46750  0.96230  0.39080  Biso   1.000  H
  H4       1.0000 0.03250  0.46230  0.10920  Biso   1.000  H
  H5       1.0000 0.52430  0.78780  0.58040  Biso   1.000  H
  H6       1.0000 0.97570  0.28780  0.91960  Biso   1.000  H
  H7       1.0000 0.47570  0.21220  0.41960  Biso   1.000  H
  H8       1.0000 0.02430  0.71220  0.08040  Biso   1.000  H
  H9       1.0000 0.44610  0.64230  0.69770  Biso   1.000  H
  H10      1.0000 0.05390  0.14230  0.80230  Biso   1.000  H
  H11      1.0000 0.55390  0.35770  0.30230  Biso   1.000  H
  H12      1.0000 0.94610  0.85770  0.19770  Biso   1.000  H
  H13      1.0000 0.37670  0.75470  0.83490  Biso   1.000  H
  H14      1.0000 0.12330  0.25470  0.66510  Biso   1.000  H
  H15      1.0000 0.62330  0.24530  0.16510  Biso   1.000  H
  H16      1.0000 0.87670  0.74530  0.33490  Biso   1.000  H
  H17      1.0000 0.34360  0.94170  0.91760  Biso   1.000  H
  H18      1.0000 0.15640  0.44170  0.58240  Biso   1.000  H
  H19      1.0000 0.65640  0.05830  0.08240  Biso   1.000  H
  H20      1.0000 0.84360  0.55830  0.41760  Biso   1.000  H
  H21      1.0000 0.28890  0.08580  0.02230  Biso   1.000  H
  H22      1.0000 0.21110  0.58580  0.47770  Biso   1.000  H
  H23      1.0000 0.71110  0.91420  0.97770  Biso   1.000  H
  H24      1.0000 0.78890  0.41420  0.52230  Biso   1.000  H
  H25      1.0000 0.26690  0.32270  0.08290  Biso   1.000  H
  H26      1.0000 0.23310  0.82270  0.41710  Biso   1.000  H
  H27      1.0000 0.73310  0.67730  0.91710  Biso   1.000  H
  H28      1.0000 0.76690  0.17730  0.58290  Biso   1.000  H
  H29      1.0000 0.33190  0.51860  0.99740  Biso   1.000  H
  H30      1.0000 0.16810  0.01860  0.50260  Biso   1.000  H
  H31      1.0000 0.66810  0.48140  0.00260  Biso   1.000  H
  H32      1.0000 0.83190  0.98140  0.49740  Biso   1.000  H
  H33      1.0000 0.41840  0.47330  0.85690  Biso   1.000  H
  H34      1.0000 0.08160  0.97330  0.64310  Biso   1.000  H
  H35      1.0000 0.58160  0.52670  0.14310  Biso   1.000  H
  H36      1.0000 0.91840  0.02670  0.35690  Biso   1.000  H
  H37      1.0000 0.71100  0.43470  0.61960  Biso   1.000  H
  H38      1.0000 0.78900  0.93470  0.88040  Biso   1.000  H
  H39      1.0000 0.28900  0.56530  0.38040  Biso   1.000  H
  H40      1.0000 0.21100  0.06530  0.11960  Biso   1.000  H
  H41      1.0000 0.73740  0.52720  0.75210  Biso   1.000  H
  H42      1.0000 0.76260  0.02720  0.74790  Biso   1.000  H
  H43      1.0000 0.26260  0.47280  0.24790  Biso   1.000  H
  H44      1.0000 0.23740  0.97280  0.25210  Biso   1.000  H
  H45      1.0000 0.62190  0.57320  0.61970  Biso   1.000  H
  H46      1.0000 0.87810  0.07320  0.88030  Biso   1.000  H
  H47      1.0000 0.37810  0.42680  0.38030  Biso   1.000  H
  H48      1.0000 0.12190  0.92680  0.11970  Biso   1.000  H
