data_image0
_cell_length_a       7.9726
_cell_length_b       15.8243
_cell_length_c       11.1938
_cell_angle_alpha    90
_cell_angle_beta     102.858
_cell_angle_gamma    90

_symmetry_space_group_name_H-M    "P 1"
_symmetry_int_tables_number       1

loop_
  _symmetry_equiv_pos_as_xyz
  'x, y, z'

loop_
  _atom_site_label
  _atom_site_occupancy
  _atom_site_fract_x
  _atom_site_fract_y
  _atom_site_fract_z
  _atom_site_thermal_displace_type
  _atom_site_B_iso_or_equiv
  _atom_site_type_symbol
  Cu1      1.0000 0.35983  0.03731  0.03630  Biso   1.000  Cu
  Cu2      1.0000 0.14017  0.53731  0.46370  Biso   1.000  Cu
  Cu3      1.0000 0.64017  0.96269  0.96370  Biso   1.000  Cu
  Cu4      1.0000 0.85983  0.46269  0.53630  Biso   1.000  Cu
  O1       1.0000 0.24795  0.92755  0.99628  Biso   1.000  O
  O2       1.0000 0.25205  0.42755  0.50372  Biso   1.000  O
  O3       1.0000 0.75205  0.07245  0.00372  Biso   1.000  O
  O4       1.0000 0.74795  0.57245  0.49628  Biso   1.000  O
  O5       1.0000 0.46153  0.87419  0.91575  Biso   1.000  O
  O6       1.0000 0.03847  0.37419  0.58425  Biso   1.000  O
  O7       1.0000 0.53847  0.12581  0.08425  Biso   1.000  O
  O8       1.0000 0.96153  0.62581  0.41575  Biso   1.000  O
  O9       1.0000 0.33700  0.63495  0.63236  Biso   1.000  O
  O10      1.0000 0.16300  0.13495  0.86764  Biso   1.000  O
  O11      1.0000 0.66300  0.36505  0.36764  Biso   1.000  O
  O12      1.0000 0.83700  0.86505  0.13236  Biso   1.000  O
  O13      1.0000 0.11170  0.55341  0.63255  Biso   1.000  O
  O14      1.0000 0.38830  0.05341  0.86745  Biso   1.000  O
  O15      1.0000 0.88830  0.44659  0.36745  Biso   1.000  O
  O16      1.0000 0.61170  0.94659  0.13255  Biso   1.000  O
  N1       1.0000 0.27080  0.05565  0.18375  Biso   1.000  N
  N2       1.0000 0.22920  0.55565  0.31625  Biso   1.000  N
  N3       1.0000 0.72920  0.94435  0.81625  Biso   1.000  N
  N4       1.0000 0.77080  0.44435  0.68375  Biso   1.000  N
  N5       1.0000 0.08160  0.06848  0.29888  Biso   1.000  N
  N6       1.0000 0.41840  0.56848  0.20112  Biso   1.000  N
  N7       1.0000 0.91840  0.93152  0.70112  Biso   1.000  N
  N8       1.0000 0.58160  0.43152  0.79888  Biso   1.000  N
  C1       1.0000 0.31470  0.87121  0.94123  Biso   1.000  C
  C2       1.0000 0.18530  0.37121  0.55877  Biso   1.000  C
  C3       1.0000 0.68530  0.12879  0.05877  Biso   1.000  C
  C4       1.0000 0.81470  0.62879  0.44123  Biso   1.000  C
  C5       1.0000 0.20840  0.79401  0.89859  Biso   1.000  C
  C6       1.0000 0.29160  0.29401  0.60141  Biso   1.000  C
  C7       1.0000 0.79160  0.20599  0.10141  Biso   1.000  C
  C8       1.0000 0.70840  0.70599  0.39859  Biso   1.000  C
  C9       1.0000 0.26010  0.73935  0.81624  Biso   1.000  C
  C10      1.0000 0.23990  0.23935  0.68376  Biso   1.000  C
  C11      1.0000 0.73990  0.26065  0.18376  Biso   1.000  C
  C12      1.0000 0.76010  0.76065  0.31624  Biso   1.000  C
  H1       1.0000 0.36300  0.74890  0.79240  Biso   1.000  H
  H2       1.0000 0.13700  0.24890  0.70760  Biso   1.000  H
  H3       1.0000 0.63700  0.25110  0.20760  Biso   1.000  H
  H4       1.0000 0.86300  0.75110  0.29240  Biso   1.000  H
  C13      1.0000 0.15790  0.67047  0.76952  Biso   1.000  C
  C14      1.0000 0.34210  0.17047  0.73048  Biso   1.000  C
  C15      1.0000 0.84210  0.32953  0.23048  Biso   1.000  C
  C16      1.0000 0.65790  0.82953  0.26952  Biso   1.000  C
  C17      1.0000 0.00550  0.65543  0.80720  Biso   1.000  C
  C18      1.0000 0.49450  0.15543  0.69280  Biso   1.000  C
  C19      1.0000 0.99450  0.34457  0.19280  Biso   1.000  C
  C20      1.0000 0.50550  0.84457  0.30720  Biso   1.000  C
  H5       1.0000 0.93790  0.60910  0.77620  Biso   1.000  H
  H6       1.0000 0.56210  0.10910  0.72380  Biso   1.000  H
  H7       1.0000 0.06210  0.39090  0.22380  Biso   1.000  H
  H8       1.0000 0.43790  0.89090  0.27620  Biso   1.000  H
  C21      1.0000 0.95300  0.70914  0.89100  Biso   1.000  C
  C22      1.0000 0.54700  0.20914  0.60900  Biso   1.000  C
  C23      1.0000 0.04700  0.29086  0.10900  Biso   1.000  C
  C24      1.0000 0.45300  0.79086  0.39100  Biso   1.000  C
  C25      1.0000 0.05480  0.77876  0.93500  Biso   1.000  C
  C26      1.0000 0.44520  0.27876  0.56500  Biso   1.000  C
  C27      1.0000 0.94520  0.22124  0.06500  Biso   1.000  C
  C28      1.0000 0.55480  0.72124  0.43500  Biso   1.000  C
  H9       1.0000 0.01990  0.81560  0.98950  Biso   1.000  H
  H10      1.0000 0.48010  0.31560  0.51050  Biso   1.000  H
  H11      1.0000 0.98010  0.18440  0.01050  Biso   1.000  H
  H12      1.0000 0.51990  0.68440  0.48950  Biso   1.000  H
  C29      1.0000 0.20960  0.61675  0.67240  Biso   1.000  C
  C30      1.0000 0.29040  0.11675  0.82760  Biso   1.000  C
  C31      1.0000 0.79040  0.38325  0.32760  Biso   1.000  C
  C32      1.0000 0.70960  0.88325  0.17240  Biso   1.000  C
  C33      1.0000 0.78640  0.69170  0.93120  Biso   1.000  C
  C34      1.0000 0.71360  0.19170  0.56880  Biso   1.000  C
  C35      1.0000 0.21360  0.30830  0.06880  Biso   1.000  C
  C36      1.0000 0.28640  0.80830  0.43120  Biso   1.000  C
  H13      1.0000 0.79580  0.63900  0.97470  Biso   1.000  H
  H14      1.0000 0.70420  0.13900  0.52530  Biso   1.000  H
  H15      1.0000 0.20420  0.36100  0.02530  Biso   1.000  H
  H16      1.0000 0.29580  0.86100  0.47470  Biso   1.000  H
  H17      1.0000 0.76520  0.73640  0.98390  Biso   1.000  H
  H18      1.0000 0.73480  0.23640  0.51610  Biso   1.000  H
  H19      1.0000 0.23480  0.26360  0.01610  Biso   1.000  H
  H20      1.0000 0.26520  0.76360  0.48390  Biso   1.000  H
  H21      1.0000 0.69300  0.68860  0.86040  Biso   1.000  H
  H22      1.0000 0.80700  0.18860  0.63960  Biso   1.000  H
  H23      1.0000 0.30700  0.31140  0.13960  Biso   1.000  H
  H24      1.0000 0.19300  0.81140  0.36040  Biso   1.000  H
  C37      1.0000 0.11910  0.03000  0.20140  Biso   1.000  C
  C38      1.0000 0.38090  0.53000  0.29860  Biso   1.000  C
  C39      1.0000 0.88090  0.97000  0.79860  Biso   1.000  C
  C40      1.0000 0.61910  0.47000  0.70140  Biso   1.000  C
  H25      1.0000 0.04870  0.99060  0.15270  Biso   1.000  H
  H26      1.0000 0.45130  0.49060  0.34730  Biso   1.000  H
  H27      1.0000 0.95130  0.00940  0.84730  Biso   1.000  H
  H28      1.0000 0.54870  0.50940  0.65270  Biso   1.000  H
  C41      1.0000 0.33070  0.11360  0.27570  Biso   1.000  C
  C42      1.0000 0.16930  0.61360  0.22430  Biso   1.000  C
  C43      1.0000 0.66930  0.88640  0.72430  Biso   1.000  C
  C44      1.0000 0.83070  0.38640  0.77570  Biso   1.000  C
  H29      1.0000 0.43470  0.14240  0.28720  Biso   1.000  H
  H30      1.0000 0.06530  0.64240  0.21280  Biso   1.000  H
  H31      1.0000 0.56530  0.85760  0.71280  Biso   1.000  H
  H32      1.0000 0.93470  0.35760  0.78720  Biso   1.000  H
  C45      1.0000 0.21450  0.12188  0.34640  Biso   1.000  C
  C46      1.0000 0.28550  0.62188  0.15360  Biso   1.000  C
  C47      1.0000 0.78550  0.87812  0.65360  Biso   1.000  C
  C48      1.0000 0.71450  0.37812  0.84640  Biso   1.000  C
  H33      1.0000 0.22330  0.15700  0.41410  Biso   1.000  H
  H34      1.0000 0.27670  0.65700  0.08590  Biso   1.000  H
  H35      1.0000 0.77670  0.84300  0.58590  Biso   1.000  H
  H36      1.0000 0.72330  0.34300  0.91410  Biso   1.000  H
  C49      1.0000 0.92150  0.05840  0.34310  Biso   1.000  C
  C50      1.0000 0.57850  0.55840  0.15690  Biso   1.000  C
  C51      1.0000 0.07850  0.94160  0.65690  Biso   1.000  C
  C52      1.0000 0.42150  0.44160  0.84310  Biso   1.000  C
  H37      1.0000 0.82840  0.04420  0.27430  Biso   1.000  H
  H38      1.0000 0.67160  0.54420  0.22570  Biso   1.000  H
  H39      1.0000 0.17160  0.95580  0.72570  Biso   1.000  H
  H40      1.0000 0.32840  0.45580  0.77430  Biso   1.000  H
  H41      1.0000 0.89340  0.11180  0.37630  Biso   1.000  H
  H42      1.0000 0.60660  0.61180  0.12370  Biso   1.000  H
  H43      1.0000 0.10660  0.88820  0.62370  Biso   1.000  H
  H44      1.0000 0.39340  0.38820  0.87630  Biso   1.000  H
  C53      1.0000 0.93480  0.99039  0.44080  Biso   1.000  C
  C54      1.0000 0.56520  0.49039  0.05920  Biso   1.000  C
  C55      1.0000 0.06520  0.00961  0.55920  Biso   1.000  C
  C56      1.0000 0.43480  0.50961  0.94080  Biso   1.000  C
  H45      1.0000 0.96580  0.93740  0.40790  Biso   1.000  H
  H46      1.0000 0.53420  0.43740  0.09210  Biso   1.000  H
  H47      1.0000 0.03420  0.06260  0.59210  Biso   1.000  H
  H48      1.0000 0.46580  0.56260  0.90790  Biso   1.000  H
  H49      1.0000 0.82260  0.98300  0.45950  Biso   1.000  H
  H50      1.0000 0.67740  0.48300  0.04050  Biso   1.000  H
  H51      1.0000 0.17740  0.01700  0.54050  Biso   1.000  H
  H52      1.0000 0.32260  0.51700  0.95950  Biso   1.000  H
