data_image0
_cell_length_a       24.131
_cell_length_b       10.203
_cell_length_c       20.077
_cell_angle_alpha    90
_cell_angle_beta     90
_cell_angle_gamma    90

_symmetry_space_group_name_H-M    "P 1"
_symmetry_int_tables_number       1

loop_
  _symmetry_equiv_pos_as_xyz
  'x, y, z'

loop_
  _atom_site_label
  _atom_site_occupancy
  _atom_site_fract_x
  _atom_site_fract_y
  _atom_site_fract_z
  _atom_site_thermal_displace_type
  _atom_site_B_iso_or_equiv
  _atom_site_type_symbol
  C1       1.0000 0.33830  0.17740  0.51000  Biso   1.000  C
  C2       1.0000 0.66170  0.82260  0.01000  Biso   1.000  C
  C3       1.0000 0.83830  0.32260  0.51000  Biso   1.000  C
  C4       1.0000 0.16170  0.67740  0.01000  Biso   1.000  C
  H1       1.0000 0.31840  0.09760  0.50160  Biso   1.000  H
  H2       1.0000 0.68160  0.90240  0.00160  Biso   1.000  H
  H3       1.0000 0.81840  0.40240  0.50160  Biso   1.000  H
  H4       1.0000 0.18160  0.59760  0.00160  Biso   1.000  H
  H5       1.0000 0.31450  0.23860  0.53230  Biso   1.000  H
  H6       1.0000 0.68550  0.76140  0.03230  Biso   1.000  H
  H7       1.0000 0.81450  0.26140  0.53230  Biso   1.000  H
  H8       1.0000 0.18550  0.73860  0.03230  Biso   1.000  H
  H9       1.0000 0.36990  0.15910  0.53760  Biso   1.000  H
  H10      1.0000 0.63010  0.84090  0.03760  Biso   1.000  H
  H11      1.0000 0.86990  0.34090  0.53760  Biso   1.000  H
  H12      1.0000 0.13010  0.65910  0.03760  Biso   1.000  H
  C5       1.0000 0.37410  0.37340  0.45420  Biso   1.000  C
  C6       1.0000 0.62590  0.62660  0.95420  Biso   1.000  C
  C7       1.0000 0.87410  0.12660  0.45420  Biso   1.000  C
  C8       1.0000 0.12590  0.87340  0.95420  Biso   1.000  C
  H13      1.0000 0.39390  0.38150  0.49540  Biso   1.000  H
  H14      1.0000 0.60610  0.61850  0.99540  Biso   1.000  H
  H15      1.0000 0.89390  0.11850  0.49540  Biso   1.000  H
  H16      1.0000 0.10610  0.88150  0.99540  Biso   1.000  H
  H17      1.0000 0.34160  0.42770  0.45550  Biso   1.000  H
  H18      1.0000 0.65840  0.57230  0.95550  Biso   1.000  H
  H19      1.0000 0.84160  0.07230  0.45550  Biso   1.000  H
  H20      1.0000 0.15840  0.92770  0.95550  Biso   1.000  H
  H21      1.0000 0.39750  0.40080  0.41810  Biso   1.000  H
  H22      1.0000 0.60250  0.59920  0.91810  Biso   1.000  H
  H23      1.0000 0.89750  0.09920  0.41810  Biso   1.000  H
  H24      1.0000 0.10250  0.90080  0.91810  Biso   1.000  H
  C9       1.0000 0.40900  0.14460  0.41910  Biso   1.000  C
  C10      1.0000 0.59100  0.85540  0.91910  Biso   1.000  C
  C11      1.0000 0.90900  0.35540  0.41910  Biso   1.000  C
  C12      1.0000 0.09100  0.64460  0.91910  Biso   1.000  C
  H25      1.0000 0.44080  0.16060  0.44660  Biso   1.000  H
  H26      1.0000 0.55920  0.83940  0.94660  Biso   1.000  H
  H27      1.0000 0.94080  0.33940  0.44660  Biso   1.000  H
  H28      1.0000 0.05920  0.66060  0.94660  Biso   1.000  H
  H29      1.0000 0.41770  0.16560  0.37370  Biso   1.000  H
  H30      1.0000 0.58230  0.83440  0.87370  Biso   1.000  H
  H31      1.0000 0.91770  0.33440  0.37370  Biso   1.000  H
  H32      1.0000 0.08230  0.66560  0.87370  Biso   1.000  H
  H33      1.0000 0.39870  0.05390  0.42210  Biso   1.000  H
  H34      1.0000 0.60130  0.94610  0.92210  Biso   1.000  H
  H35      1.0000 0.89870  0.44610  0.42210  Biso   1.000  H
  H36      1.0000 0.10130  0.55390  0.92210  Biso   1.000  H
  C13      1.0000 0.24397  0.30060  0.31440  Biso   1.000  C
  C14      1.0000 0.75603  0.69940  0.81440  Biso   1.000  C
  C15      1.0000 0.74397  0.19940  0.31440  Biso   1.000  C
  C16      1.0000 0.25603  0.80060  0.81440  Biso   1.000  C
  C17      1.0000 0.22992  0.17440  0.29560  Biso   1.000  C
  C18      1.0000 0.77008  0.82560  0.79560  Biso   1.000  C
  C19      1.0000 0.72992  0.32560  0.29560  Biso   1.000  C
  C20      1.0000 0.27008  0.67440  0.79560  Biso   1.000  C
  H37      1.0000 0.20430  0.16120  0.26170  Biso   1.000  H
  H38      1.0000 0.79570  0.83880  0.76170  Biso   1.000  H
  H39      1.0000 0.70430  0.33880  0.26170  Biso   1.000  H
  H40      1.0000 0.29570  0.66120  0.76170  Biso   1.000  H
  C21      1.0000 0.25372  0.06790  0.32710  Biso   1.000  C
  C22      1.0000 0.74628  0.93210  0.82710  Biso   1.000  C
  C23      1.0000 0.75372  0.43210  0.32710  Biso   1.000  C
  C24      1.0000 0.24628  0.56790  0.82710  Biso   1.000  C
  C25      1.0000 0.29470  0.08820  0.37500  Biso   1.000  C
  C26      1.0000 0.70530  0.91180  0.87500  Biso   1.000  C
  C27      1.0000 0.79470  0.41180  0.37500  Biso   1.000  C
  C28      1.0000 0.20530  0.58820  0.87500  Biso   1.000  C
  H41      1.0000 0.31130  0.01630  0.39530  Biso   1.000  H
  H42      1.0000 0.68870  0.98370  0.89530  Biso   1.000  H
  H43      1.0000 0.81130  0.48370  0.39530  Biso   1.000  H
  H44      1.0000 0.18870  0.51630  0.89530  Biso   1.000  H
  C29      1.0000 0.31130  0.21370  0.39310  Biso   1.000  C
  C30      1.0000 0.68870  0.78630  0.89310  Biso   1.000  C
  C31      1.0000 0.81130  0.28630  0.39310  Biso   1.000  C
  C32      1.0000 0.18870  0.71370  0.89310  Biso   1.000  C
  C33      1.0000 0.28449  0.31950  0.36320  Biso   1.000  C
  C34      1.0000 0.71551  0.68050  0.86320  Biso   1.000  C
  C35      1.0000 0.78449  0.18050  0.36320  Biso   1.000  C
  C36      1.0000 0.21551  0.81950  0.86320  Biso   1.000  C
  H45      1.0000 0.29380  0.40430  0.37600  Biso   1.000  H
  H46      1.0000 0.70620  0.59570  0.87600  Biso   1.000  H
  H47      1.0000 0.79380  0.09570  0.37600  Biso   1.000  H
  H48      1.0000 0.20620  0.90430  0.87600  Biso   1.000  H
  C37      1.0000 0.21597  0.41880  0.28360  Biso   1.000  C
  C38      1.0000 0.78403  0.58120  0.78360  Biso   1.000  C
  C39      1.0000 0.71597  0.08120  0.28360  Biso   1.000  C
  C40      1.0000 0.28403  0.91880  0.78360  Biso   1.000  C
  C41      1.0000 0.23616  0.93140  0.31040  Biso   1.000  C
  C42      1.0000 0.76384  0.06860  0.81040  Biso   1.000  C
  C43      1.0000 0.73616  0.56860  0.31040  Biso   1.000  C
  C44      1.0000 0.26384  0.43140  0.81040  Biso   1.000  C
  C45      1.0000 0.35760  0.23570  0.44420  Biso   1.000  C
  C46      1.0000 0.64240  0.76430  0.94420  Biso   1.000  C
  C47      1.0000 0.85760  0.26430  0.44420  Biso   1.000  C
  C48      1.0000 0.14240  0.73570  0.94420  Biso   1.000  C
  C49      1.0000 0.08890  0.65760  0.31390  Biso   1.000  C
  C50      1.0000 0.91110  0.34240  0.81390  Biso   1.000  C
  C51      1.0000 0.58890  0.84240  0.31390  Biso   1.000  C
  C52      1.0000 0.41110  0.15760  0.81390  Biso   1.000  C
  H49      1.0000 0.08320  0.60800  0.27560  Biso   1.000  H
  H50      1.0000 0.91680  0.39200  0.77560  Biso   1.000  H
  H51      1.0000 0.58320  0.89200  0.27560  Biso   1.000  H
  H52      1.0000 0.41680  0.10800  0.77560  Biso   1.000  H
  C53      1.0000 0.12600  0.77180  0.38970  Biso   1.000  C
  C54      1.0000 0.87400  0.22820  0.88970  Biso   1.000  C
  C55      1.0000 0.62600  0.72820  0.38970  Biso   1.000  C
  C56      1.0000 0.37400  0.27180  0.88970  Biso   1.000  C
  H53      1.0000 0.15210  0.81870  0.41400  Biso   1.000  H
  H54      1.0000 0.84790  0.18130  0.91400  Biso   1.000  H
  H55      1.0000 0.65210  0.68130  0.41400  Biso   1.000  H
  H56      1.0000 0.34790  0.31870  0.91400  Biso   1.000  H
  C57      1.0000 0.07380  0.75010  0.40960  Biso   1.000  C
  C58      1.0000 0.92620  0.24990  0.90960  Biso   1.000  C
  C59      1.0000 0.57380  0.74990  0.40960  Biso   1.000  C
  C60      1.0000 0.42620  0.25010  0.90960  Biso   1.000  C
  H57      1.0000 0.05730  0.77870  0.44880  Biso   1.000  H
  H58      1.0000 0.94270  0.22130  0.94880  Biso   1.000  H
  H59      1.0000 0.55730  0.72130  0.44880  Biso   1.000  H
  H60      1.0000 0.44270  0.27870  0.94880  Biso   1.000  H
  C61      1.0000 0.99190  0.63140  0.35770  Biso   1.000  C
  C62      1.0000 0.00810  0.36860  0.85770  Biso   1.000  C
  C63      1.0000 0.49190  0.86860  0.35770  Biso   1.000  C
  C64      1.0000 0.50810  0.13140  0.85770  Biso   1.000  C
  H61      1.0000 0.97950  0.60810  0.40210  Biso   1.000  H
  H62      1.0000 0.02050  0.39190  0.90210  Biso   1.000  H
  H63      1.0000 0.47950  0.89190  0.40210  Biso   1.000  H
  H64      1.0000 0.52050  0.10810  0.90210  Biso   1.000  H
  H65      1.0000 0.99000  0.55350  0.33020  Biso   1.000  H
  H66      1.0000 0.01000  0.44650  0.83020  Biso   1.000  H
  H67      1.0000 0.49000  0.94650  0.33020  Biso   1.000  H
  H68      1.0000 0.51000  0.05350  0.83020  Biso   1.000  H
  C65      1.0000 0.95340  0.73690  0.32890  Biso   1.000  C
  C66      1.0000 0.04660  0.26310  0.82890  Biso   1.000  C
  C67      1.0000 0.45340  0.76310  0.32890  Biso   1.000  C
  C68      1.0000 0.54660  0.23690  0.82890  Biso   1.000  C
  H69      1.0000 0.91650  0.70010  0.32570  Biso   1.000  H
  H70      1.0000 0.08350  0.29990  0.82570  Biso   1.000  H
  H71      1.0000 0.41650  0.79990  0.32570  Biso   1.000  H
  H72      1.0000 0.58350  0.20010  0.82570  Biso   1.000  H
  H73      1.0000 0.95170  0.80880  0.36040  Biso   1.000  H
  H74      1.0000 0.04830  0.19120  0.86040  Biso   1.000  H
  H75      1.0000 0.45170  0.69120  0.36040  Biso   1.000  H
  H76      1.0000 0.54830  0.30880  0.86040  Biso   1.000  H
  C69      1.0000 0.96820  0.79120  0.26330  Biso   1.000  C
  C70      1.0000 0.03180  0.20880  0.76330  Biso   1.000  C
  C71      1.0000 0.46820  0.70880  0.26330  Biso   1.000  C
  C72      1.0000 0.53180  0.29120  0.76330  Biso   1.000  C
  H77      1.0000 0.96920  0.71990  0.23140  Biso   1.000  H
  H78      1.0000 0.03080  0.28010  0.73140  Biso   1.000  H
  H79      1.0000 0.46920  0.78010  0.23140  Biso   1.000  H
  H80      1.0000 0.53080  0.21990  0.73140  Biso   1.000  H
  H81      1.0000 0.00540  0.82700  0.26610  Biso   1.000  H
  H82      1.0000 0.99460  0.17300  0.76610  Biso   1.000  H
  H83      1.0000 0.50540  0.67300  0.26610  Biso   1.000  H
  H84      1.0000 0.49460  0.32700  0.76610  Biso   1.000  H
  C73      1.0000 0.93030  0.89620  0.23670  Biso   1.000  C
  C74      1.0000 0.06970  0.10380  0.73670  Biso   1.000  C
  C75      1.0000 0.43030  0.60380  0.23670  Biso   1.000  C
  C76      1.0000 0.56970  0.39620  0.73670  Biso   1.000  C
  H85      1.0000 0.92700  0.96530  0.26960  Biso   1.000  H
  H86      1.0000 0.07300  0.03470  0.76960  Biso   1.000  H
  H87      1.0000 0.42700  0.53470  0.26960  Biso   1.000  H
  H88      1.0000 0.57300  0.46530  0.76960  Biso   1.000  H
  H89      1.0000 0.94680  0.93400  0.19700  Biso   1.000  H
  H90      1.0000 0.05320  0.06600  0.69700  Biso   1.000  H
  H91      1.0000 0.44680  0.56600  0.19700  Biso   1.000  H
  H92      1.0000 0.55320  0.43400  0.69700  Biso   1.000  H
  C77      1.0000 0.82990  0.85550  0.25790  Biso   1.000  C
  C78      1.0000 0.17010  0.14450  0.75790  Biso   1.000  C
  C79      1.0000 0.32990  0.64450  0.25790  Biso   1.000  C
  C80      1.0000 0.67010  0.35550  0.75790  Biso   1.000  C
  H93      1.0000 0.82930  0.89370  0.30000  Biso   1.000  H
  H94      1.0000 0.17070  0.10630  0.80000  Biso   1.000  H
  H95      1.0000 0.32930  0.60630  0.30000  Biso   1.000  H
  H96      1.0000 0.67070  0.39370  0.80000  Biso   1.000  H
  C81      1.0000 0.80440  0.76290  0.16810  Biso   1.000  C
  C82      1.0000 0.19560  0.23710  0.66810  Biso   1.000  C
  C83      1.0000 0.30440  0.73710  0.16810  Biso   1.000  C
  C84      1.0000 0.69560  0.26290  0.66810  Biso   1.000  C
  H97      1.0000 0.78290  0.72200  0.13570  Biso   1.000  H
  H98      1.0000 0.21710  0.27800  0.63570  Biso   1.000  H
  H99      1.0000 0.28290  0.77800  0.13570  Biso   1.000  H
  H100     1.0000 0.71710  0.22200  0.63570  Biso   1.000  H
  C85      1.0000 0.85910  0.79210  0.16230  Biso   1.000  C
  C86      1.0000 0.14090  0.20790  0.66230  Biso   1.000  C
  C87      1.0000 0.35910  0.70790  0.16230  Biso   1.000  C
  C88      1.0000 0.64090  0.29210  0.66230  Biso   1.000  C
  H101     1.0000 0.88140  0.77680  0.12530  Biso   1.000  H
  H102     1.0000 0.11860  0.22320  0.62530  Biso   1.000  H
  H103     1.0000 0.38140  0.72320  0.12530  Biso   1.000  H
  H104     1.0000 0.61860  0.27680  0.62530  Biso   1.000  H
  C89      1.0000 0.50417  0.82090  0.07570  Biso   1.000  C
  C90      1.0000 0.49583  0.17910  0.57570  Biso   1.000  C
  C91      1.0000 0.00417  0.67910  0.07570  Biso   1.000  C
  C92      1.0000 0.99583  0.32090  0.57570  Biso   1.000  C
  C93      1.0000 0.52003  0.69660  0.09330  Biso   1.000  C
  C94      1.0000 0.47997  0.30340  0.59330  Biso   1.000  C
  C95      1.0000 0.02003  0.80340  0.09330  Biso   1.000  C
  C96      1.0000 0.97997  0.19660  0.59330  Biso   1.000  C
  H105     1.0000 0.54620  0.68390  0.12670  Biso   1.000  H
  H106     1.0000 0.45380  0.31610  0.62670  Biso   1.000  H
  H107     1.0000 0.04620  0.81610  0.12670  Biso   1.000  H
  H108     1.0000 0.95380  0.18390  0.62670  Biso   1.000  H
  C97      1.0000 0.49676  0.58940  0.06080  Biso   1.000  C
  C98      1.0000 0.50324  0.41060  0.56080  Biso   1.000  C
  C99      1.0000 0.99676  0.91060  0.06080  Biso   1.000  C
  C100     1.0000 0.00324  0.08940  0.56080  Biso   1.000  C
  C101     1.0000 0.45630  0.60990  0.01300  Biso   1.000  C
  C102     1.0000 0.54370  0.39010  0.51300  Biso   1.000  C
  C103     1.0000 0.95630  0.89010  0.01300  Biso   1.000  C
  C104     1.0000 0.04370  0.10990  0.51300  Biso   1.000  C
  H109     1.0000 0.44150  0.53820  0.99070  Biso   1.000  H
  H110     1.0000 0.55850  0.46180  0.49070  Biso   1.000  H
  H111     1.0000 0.94150  0.96180  0.99070  Biso   1.000  H
  H112     1.0000 0.05850  0.03820  0.49070  Biso   1.000  H
  C105     1.0000 0.43710  0.73570  0.99730  Biso   1.000  C
  C106     1.0000 0.56290  0.26430  0.49730  Biso   1.000  C
  C107     1.0000 0.93710  0.76430  0.99730  Biso   1.000  C
  C108     1.0000 0.06290  0.23570  0.49730  Biso   1.000  C
  C109     1.0000 0.46283  0.83960  0.02790  Biso   1.000  C
  C110     1.0000 0.53717  0.16040  0.52790  Biso   1.000  C
  C111     1.0000 0.96283  0.66040  0.02790  Biso   1.000  C
  C112     1.0000 0.03717  0.33960  0.52790  Biso   1.000  C
  H113     1.0000 0.45250  0.92450  0.01650  Biso   1.000  H
  H114     1.0000 0.54750  0.07550  0.51650  Biso   1.000  H
  H115     1.0000 0.95250  0.57550  0.01650  Biso   1.000  H
  H116     1.0000 0.04750  0.42450  0.51650  Biso   1.000  H
  C113     1.0000 0.53090  0.94010  0.10680  Biso   1.000  C
  C114     1.0000 0.46910  0.05990  0.60680  Biso   1.000  C
  C115     1.0000 0.03090  0.55990  0.10680  Biso   1.000  C
  C116     1.0000 0.96910  0.44010  0.60680  Biso   1.000  C
  C117     1.0000 0.51460  0.45290  0.07720  Biso   1.000  C
  C118     1.0000 0.48540  0.54710  0.57720  Biso   1.000  C
  C119     1.0000 0.01460  0.04710  0.07720  Biso   1.000  C
  C120     1.0000 0.98540  0.95290  0.57720  Biso   1.000  C
  C121     1.0000 0.39040  0.75570  0.94610  Biso   1.000  C
  C122     1.0000 0.60960  0.24430  0.44610  Biso   1.000  C
  C123     1.0000 0.89040  0.74430  0.94610  Biso   1.000  C
  C124     1.0000 0.10960  0.25570  0.44610  Biso   1.000  C
  C125     1.0000 0.41090  0.73030  0.87820  Biso   1.000  C
  C126     1.0000 0.58910  0.26970  0.37820  Biso   1.000  C
  C127     1.0000 0.91090  0.76970  0.87820  Biso   1.000  C
  C128     1.0000 0.08910  0.23030  0.37820  Biso   1.000  C
  H117     1.0000 0.42690  0.64420  0.87630  Biso   1.000  H
  H118     1.0000 0.57310  0.35580  0.37630  Biso   1.000  H
  H119     1.0000 0.92690  0.85580  0.87630  Biso   1.000  H
  H120     1.0000 0.07310  0.14420  0.37630  Biso   1.000  H
  H121     1.0000 0.43850  0.79430  0.86680  Biso   1.000  H
  H122     1.0000 0.56150  0.20570  0.36680  Biso   1.000  H
  H123     1.0000 0.93850  0.70570  0.86680  Biso   1.000  H
  H124     1.0000 0.06150  0.29430  0.36680  Biso   1.000  H
  H125     1.0000 0.38060  0.73580  0.84730  Biso   1.000  H
  H126     1.0000 0.61940  0.26420  0.34730  Biso   1.000  H
  H127     1.0000 0.88060  0.76420  0.84730  Biso   1.000  H
  H128     1.0000 0.11940  0.23580  0.34730  Biso   1.000  H
  C129     1.0000 0.34370  0.66100  0.95870  Biso   1.000  C
  C130     1.0000 0.65630  0.33900  0.45870  Biso   1.000  C
  C131     1.0000 0.84370  0.83900  0.95870  Biso   1.000  C
  C132     1.0000 0.15630  0.16100  0.45870  Biso   1.000  C
  H129     1.0000 0.35590  0.57350  0.94930  Biso   1.000  H
  H130     1.0000 0.64410  0.42650  0.44930  Biso   1.000  H
  H131     1.0000 0.85590  0.92650  0.94930  Biso   1.000  H
  H132     1.0000 0.14410  0.07350  0.44930  Biso   1.000  H
  H133     1.0000 0.31290  0.68250  0.93050  Biso   1.000  H
  H134     1.0000 0.68710  0.31750  0.43050  Biso   1.000  H
  H135     1.0000 0.81290  0.81750  0.93050  Biso   1.000  H
  H136     1.0000 0.18710  0.18250  0.43050  Biso   1.000  H
  H137     1.0000 0.33250  0.66670  0.00450  Biso   1.000  H
  H138     1.0000 0.66750  0.33330  0.50450  Biso   1.000  H
  H139     1.0000 0.83250  0.83330  0.00450  Biso   1.000  H
  H140     1.0000 0.16750  0.16670  0.50450  Biso   1.000  H
  C133     1.0000 0.36510  0.88980  0.95180  Biso   1.000  C
  C134     1.0000 0.63490  0.11020  0.45180  Biso   1.000  C
  C135     1.0000 0.86510  0.61020  0.95180  Biso   1.000  C
  C136     1.0000 0.13490  0.38980  0.45180  Biso   1.000  C
  H141     1.0000 0.33430  0.89670  0.92170  Biso   1.000  H
  H142     1.0000 0.66570  0.10330  0.42170  Biso   1.000  H
  H143     1.0000 0.83430  0.60330  0.92170  Biso   1.000  H
  H144     1.0000 0.16570  0.39670  0.42170  Biso   1.000  H
  H145     1.0000 0.39240  0.95480  0.94060  Biso   1.000  H
  H146     1.0000 0.60760  0.04520  0.44060  Biso   1.000  H
  H147     1.0000 0.89240  0.54520  0.94060  Biso   1.000  H
  H148     1.0000 0.10760  0.45480  0.44060  Biso   1.000  H
  H149     1.0000 0.35250  0.90370  0.99660  Biso   1.000  H
  H150     1.0000 0.64750  0.09630  0.49660  Biso   1.000  H
  H151     1.0000 0.85250  0.59630  0.99660  Biso   1.000  H
  H152     1.0000 0.14750  0.40370  0.49660  Biso   1.000  H
  C137     1.0000 0.41990  0.16920  0.12910  Biso   1.000  C
  C138     1.0000 0.58010  0.83080  0.62910  Biso   1.000  C
  C139     1.0000 0.91990  0.33080  0.12910  Biso   1.000  C
  C140     1.0000 0.08010  0.66920  0.62910  Biso   1.000  C
  H153     1.0000 0.42030  0.14200  0.08490  Biso   1.000  H
  H154     1.0000 0.57970  0.85800  0.58490  Biso   1.000  H
  H155     1.0000 0.92030  0.35800  0.08490  Biso   1.000  H
  H156     1.0000 0.07970  0.64200  0.58490  Biso   1.000  H
  C141     1.0000 0.44510  0.23150  0.22160  Biso   1.000  C
  C142     1.0000 0.55490  0.76850  0.72160  Biso   1.000  C
  C143     1.0000 0.94510  0.26850  0.22160  Biso   1.000  C
  C144     1.0000 0.05490  0.73150  0.72160  Biso   1.000  C
  H157     1.0000 0.46760  0.25550  0.25720  Biso   1.000  H
  H158     1.0000 0.53240  0.74450  0.75720  Biso   1.000  H
  H159     1.0000 0.96760  0.24450  0.25720  Biso   1.000  H
  H160     1.0000 0.03240  0.75550  0.75720  Biso   1.000  H
  C145     1.0000 0.39060  0.20650  0.22670  Biso   1.000  C
  C146     1.0000 0.60940  0.79350  0.72670  Biso   1.000  C
  C147     1.0000 0.89060  0.29350  0.22670  Biso   1.000  C
  C148     1.0000 0.10940  0.70650  0.72670  Biso   1.000  C
  H161     1.0000 0.36840  0.21790  0.26420  Biso   1.000  H
  H162     1.0000 0.63160  0.78210  0.76420  Biso   1.000  H
  H163     1.0000 0.86840  0.28210  0.26420  Biso   1.000  H
  H164     1.0000 0.13160  0.71790  0.76420  Biso   1.000  H
  C149     1.0000 0.31940  0.11400  0.15100  Biso   1.000  C
  C150     1.0000 0.68060  0.88600  0.65100  Biso   1.000  C
  C151     1.0000 0.81940  0.38600  0.15100  Biso   1.000  C
  C152     1.0000 0.18060  0.61400  0.65100  Biso   1.000  C
  H165     1.0000 0.30270  0.07390  0.18990  Biso   1.000  H
  H166     1.0000 0.69730  0.92610  0.68990  Biso   1.000  H
  H167     1.0000 0.80270  0.42610  0.18990  Biso   1.000  H
  H168     1.0000 0.19730  0.57390  0.68990  Biso   1.000  H
  H169     1.0000 0.32300  0.04690  0.11700  Biso   1.000  H
  H170     1.0000 0.67700  0.95310  0.61700  Biso   1.000  H
  H171     1.0000 0.82300  0.45310  0.11700  Biso   1.000  H
  H172     1.0000 0.17700  0.54690  0.61700  Biso   1.000  H
  C153     1.0000 0.28240  0.21780  0.12620  Biso   1.000  C
  C154     1.0000 0.71760  0.78220  0.62620  Biso   1.000  C
  C155     1.0000 0.78240  0.28220  0.12620  Biso   1.000  C
  C156     1.0000 0.21760  0.71780  0.62620  Biso   1.000  C
  H173     1.0000 0.28190  0.28710  0.15930  Biso   1.000  H
  H174     1.0000 0.71810  0.71290  0.65930  Biso   1.000  H
  H175     1.0000 0.78190  0.21290  0.15930  Biso   1.000  H
  H176     1.0000 0.21810  0.78710  0.65930  Biso   1.000  H
  H177     1.0000 0.24530  0.18170  0.12420  Biso   1.000  H
  H178     1.0000 0.75470  0.81830  0.62420  Biso   1.000  H
  H179     1.0000 0.74530  0.31830  0.12420  Biso   1.000  H
  H180     1.0000 0.25470  0.68170  0.62420  Biso   1.000  H
  C157     1.0000 0.29380  0.27870  0.06160  Biso   1.000  C
  C158     1.0000 0.70620  0.72130  0.56160  Biso   1.000  C
  C159     1.0000 0.79380  0.22130  0.06160  Biso   1.000  C
  C160     1.0000 0.20620  0.77870  0.56160  Biso   1.000  C
  H181     1.0000 0.29700  0.20900  0.02900  Biso   1.000  H
  H182     1.0000 0.70300  0.79100  0.52900  Biso   1.000  H
  H183     1.0000 0.79700  0.29100  0.02900  Biso   1.000  H
  H184     1.0000 0.20300  0.70900  0.52900  Biso   1.000  H
  H185     1.0000 0.32980  0.32060  0.06460  Biso   1.000  H
  H186     1.0000 0.67020  0.67940  0.56460  Biso   1.000  H
  H187     1.0000 0.82980  0.17940  0.06460  Biso   1.000  H
  H188     1.0000 0.17020  0.82060  0.56460  Biso   1.000  H
  C161     1.0000 0.25410  0.37670  0.03500  Biso   1.000  C
  C162     1.0000 0.74590  0.62330  0.53500  Biso   1.000  C
  C163     1.0000 0.75410  0.12330  0.03500  Biso   1.000  C
  C164     1.0000 0.24590  0.87670  0.53500  Biso   1.000  C
  H189     1.0000 0.25410  0.45320  0.06360  Biso   1.000  H
  H190     1.0000 0.74590  0.54680  0.56360  Biso   1.000  H
  H191     1.0000 0.75410  0.04680  0.06360  Biso   1.000  H
  H192     1.0000 0.24590  0.95320  0.56360  Biso   1.000  H
  H193     1.0000 0.26620  0.40410  0.99100  Biso   1.000  H
  H194     1.0000 0.73380  0.59590  0.49100  Biso   1.000  H
  H195     1.0000 0.76620  0.09590  0.99100  Biso   1.000  H
  H196     1.0000 0.23380  0.90410  0.49100  Biso   1.000  H
  C165     1.0000 0.15910  0.33430  0.07850  Biso   1.000  C
  C166     1.0000 0.84090  0.66570  0.57850  Biso   1.000  C
  C167     1.0000 0.65910  0.16570  0.07850  Biso   1.000  C
  C168     1.0000 0.34090  0.83430  0.57850  Biso   1.000  C
  H197     1.0000 0.16360  0.38050  0.11810  Biso   1.000  H
  H198     1.0000 0.83640  0.61950  0.61810  Biso   1.000  H
  H199     1.0000 0.66360  0.11950  0.11810  Biso   1.000  H
  H200     1.0000 0.33640  0.88050  0.61810  Biso   1.000  H
  C169     1.0000 0.17600  0.25480  0.98180  Biso   1.000  C
  C170     1.0000 0.82400  0.74520  0.48180  Biso   1.000  C
  C171     1.0000 0.67600  0.24520  0.98180  Biso   1.000  C
  C172     1.0000 0.32400  0.75480  0.48180  Biso   1.000  C
  H201     1.0000 0.19300  0.23110  0.94210  Biso   1.000  H
  H202     1.0000 0.80700  0.76890  0.44210  Biso   1.000  H
  H203     1.0000 0.69300  0.26890  0.94210  Biso   1.000  H
  H204     1.0000 0.30700  0.73110  0.44210  Biso   1.000  H
  C173     1.0000 0.12390  0.22480  0.00100  Biso   1.000  C
  C174     1.0000 0.87610  0.77520  0.50100  Biso   1.000  C
  C175     1.0000 0.62390  0.27520  0.00100  Biso   1.000  C
  C176     1.0000 0.37610  0.72480  0.50100  Biso   1.000  C
  H205     1.0000 0.09870  0.17870  0.97500  Biso   1.000  H
  H206     1.0000 0.90130  0.82130  0.47500  Biso   1.000  H
  H207     1.0000 0.59870  0.32130  0.97500  Biso   1.000  H
  H208     1.0000 0.40130  0.67870  0.47500  Biso   1.000  H
  Cu1      1.0000 0.20901  0.70832  0.27548  Biso   1.000  Cu
  Cu2      1.0000 0.79099  0.29168  0.77548  Biso   1.000  Cu
  Cu3      1.0000 0.70901  0.79168  0.27548  Biso   1.000  Cu
  Cu4      1.0000 0.29099  0.20832  0.77548  Biso   1.000  Cu
  Cu5      1.0000 0.53955  0.23010  0.11424  Biso   1.000  Cu
  Cu6      1.0000 0.46045  0.76990  0.61424  Biso   1.000  Cu
  Cu7      1.0000 0.03955  0.26990  0.11424  Biso   1.000  Cu
  Cu8      1.0000 0.96045  0.73010  0.61424  Biso   1.000  Cu
  N1       1.0000 0.13591  0.71570  0.32870  Biso   1.000  N
  N2       1.0000 0.86409  0.28430  0.82870  Biso   1.000  N
  N3       1.0000 0.63591  0.78430  0.32870  Biso   1.000  N
  N4       1.0000 0.36409  0.21570  0.82870  Biso   1.000  N
  N5       1.0000 0.05006  0.67840  0.36080  Biso   1.000  N
  N6       1.0000 0.94994  0.32160  0.86080  Biso   1.000  N
  N7       1.0000 0.55006  0.82160  0.36080  Biso   1.000  N
  N8       1.0000 0.44994  0.17840  0.86080  Biso   1.000  N
  N9       1.0000 0.87507  0.84750  0.22030  Biso   1.000  N
  N10      1.0000 0.12493  0.15250  0.72030  Biso   1.000  N
  N11      1.0000 0.37507  0.65250  0.22030  Biso   1.000  N
  N12      1.0000 0.62493  0.34750  0.72030  Biso   1.000  N
  N13      1.0000 0.78589  0.80370  0.22940  Biso   1.000  N
  N14      1.0000 0.21411  0.19630  0.72940  Biso   1.000  N
  N15      1.0000 0.28589  0.69630  0.22940  Biso   1.000  N
  N16      1.0000 0.71411  0.30370  0.72940  Biso   1.000  N
  N17      1.0000 0.46251  0.21770  0.15990  Biso   1.000  N
  N18      1.0000 0.53749  0.78230  0.65990  Biso   1.000  N
  N19      1.0000 0.96251  0.28230  0.15990  Biso   1.000  N
  N20      1.0000 0.03749  0.71770  0.65990  Biso   1.000  N
  N21      1.0000 0.37490  0.16290  0.16860  Biso   1.000  N
  N22      1.0000 0.62510  0.83710  0.66860  Biso   1.000  N
  N23      1.0000 0.87490  0.33710  0.16860  Biso   1.000  N
  N24      1.0000 0.12510  0.66290  0.66860  Biso   1.000  N
  N25      1.0000 0.19810  0.32450  0.03060  Biso   1.000  N
  N26      1.0000 0.80190  0.67550  0.53060  Biso   1.000  N
  N27      1.0000 0.69810  0.17550  0.03060  Biso   1.000  N
  N28      1.0000 0.30190  0.82450  0.53060  Biso   1.000  N
  N29      1.0000 0.11315  0.26940  0.06190  Biso   1.000  N
  N30      1.0000 0.88685  0.73060  0.56190  Biso   1.000  N
  N31      1.0000 0.61315  0.23060  0.06190  Biso   1.000  N
  N32      1.0000 0.38685  0.76940  0.56190  Biso   1.000  N
  O1       1.0000 0.22562  0.52700  0.31153  Biso   1.000  O
  O2       1.0000 0.77438  0.47300  0.81153  Biso   1.000  O
  O3       1.0000 0.72562  0.97300  0.31153  Biso   1.000  O
  O4       1.0000 0.27438  0.02700  0.81153  Biso   1.000  O
  O5       1.0000 0.18619  0.40130  0.23450  Biso   1.000  O
  O6       1.0000 0.81381  0.59870  0.73450  Biso   1.000  O
  O7       1.0000 0.68619  0.09870  0.23450  Biso   1.000  O
  O8       1.0000 0.31381  0.90130  0.73450  Biso   1.000  O
  O9       1.0000 0.20824  0.91170  0.25773  Biso   1.000  O
  O10      1.0000 0.79176  0.08830  0.75773  Biso   1.000  O
  O11      1.0000 0.70824  0.58830  0.25773  Biso   1.000  O
  O12      1.0000 0.29176  0.41170  0.75773  Biso   1.000  O
  O13      1.0000 0.24853  0.83730  0.34761  Biso   1.000  O
  O14      1.0000 0.75147  0.16270  0.84761  Biso   1.000  O
  O15      1.0000 0.74853  0.66270  0.34761  Biso   1.000  O
  O16      1.0000 0.25147  0.33730  0.84761  Biso   1.000  O
  O17      1.0000 0.17281  0.64680  0.18714  Biso   1.000  O
  O18      1.0000 0.82719  0.35320  0.68714  Biso   1.000  O
  O19      1.0000 0.67281  0.85320  0.18714  Biso   1.000  O
  O20      1.0000 0.32719  0.14680  0.68714  Biso   1.000  O
  H209     1.0000 0.14490  0.68250  0.17490  Biso   1.000  H
  H210     1.0000 0.85510  0.31750  0.67490  Biso   1.000  H
  H211     1.0000 0.64490  0.81750  0.17490  Biso   1.000  H
  H212     1.0000 0.35510  0.18250  0.67490  Biso   1.000  H
  H213     1.0000 0.16820  0.57030  0.20090  Biso   1.000  H
  H214     1.0000 0.83180  0.42970  0.70090  Biso   1.000  H
  H215     1.0000 0.66820  0.92970  0.20090  Biso   1.000  H
  H216     1.0000 0.33180  0.07030  0.70090  Biso   1.000  H
  O21      1.0000 0.52288  0.04740  0.07930  Biso   1.000  O
  O22      1.0000 0.47712  0.95260  0.57930  Biso   1.000  O
  O23      1.0000 0.02288  0.45260  0.07930  Biso   1.000  O
  O24      1.0000 0.97712  0.54740  0.57930  Biso   1.000  O
  O25      1.0000 0.55959  0.92310  0.15931  Biso   1.000  O
  O26      1.0000 0.44041  0.07690  0.65931  Biso   1.000  O
  O27      1.0000 0.05959  0.57690  0.15931  Biso   1.000  O
  O28      1.0000 0.94041  0.42310  0.65931  Biso   1.000  O
  O29      1.0000 0.54268  0.43300  0.13008  Biso   1.000  O
  O30      1.0000 0.45732  0.56700  0.63008  Biso   1.000  O
  O31      1.0000 0.04268  0.06700  0.13008  Biso   1.000  O
  O32      1.0000 0.95732  0.93300  0.63008  Biso   1.000  O
  O33      1.0000 0.50086  0.35780  0.04040  Biso   1.000  O
  O34      1.0000 0.49914  0.64220  0.54040  Biso   1.000  O
  O35      1.0000 0.00086  0.14220  0.04040  Biso   1.000  O
  O36      1.0000 0.99914  0.85780  0.54040  Biso   1.000  O
  O37      1.0000 0.57496  0.16660  0.20333  Biso   1.000  O
  O38      1.0000 0.42504  0.83340  0.70333  Biso   1.000  O
  O39      1.0000 0.07496  0.33340  0.20333  Biso   1.000  O
  O40      1.0000 0.92504  0.66660  0.70333  Biso   1.000  O
  H217     1.0000 0.60880  0.16940  0.20030  Biso   1.000  H
  H218     1.0000 0.39120  0.83060  0.70030  Biso   1.000  H
  H219     1.0000 0.10880  0.33060  0.20030  Biso   1.000  H
  H220     1.0000 0.89120  0.66940  0.70030  Biso   1.000  H
  H221     1.0000 0.56300  0.09120  0.19590  Biso   1.000  H
  H222     1.0000 0.43700  0.90880  0.69590  Biso   1.000  H
  H223     1.0000 0.06300  0.40880  0.19590  Biso   1.000  H
  H224     1.0000 0.93700  0.59120  0.69590  Biso   1.000  H
  O41      1.0000 0.66910  0.50900  0.13410  Biso   1.000  O
  O42      1.0000 0.33090  0.49100  0.63410  Biso   1.000  O
  O43      1.0000 0.16910  0.99100  0.13410  Biso   1.000  O
  O44      1.0000 0.83090  0.00900  0.63410  Biso   1.000  O
  H225     1.0000 0.68960  0.51590  0.16840  Biso   1.000  H
  H226     1.0000 0.31040  0.48410  0.66840  Biso   1.000  H
  H227     1.0000 0.18960  0.98410  0.16840  Biso   1.000  H
  H228     1.0000 0.81040  0.01590  0.66840  Biso   1.000  H
  H229     1.0000 0.63500  0.48700  0.13280  Biso   1.000  H
  H230     1.0000 0.36500  0.51300  0.63280  Biso   1.000  H
  H231     1.0000 0.13500  0.01300  0.13280  Biso   1.000  H
  H232     1.0000 0.86500  0.98700  0.63280  Biso   1.000  H
  O45      1.0000 0.58030  0.51400  0.25370  Biso   1.000  O
  O46      1.0000 0.41970  0.48600  0.75370  Biso   1.000  O
  O47      1.0000 0.08030  0.98600  0.25370  Biso   1.000  O
  O48      1.0000 0.91970  0.01400  0.75370  Biso   1.000  O
  H233     1.0000 0.60920  0.53750  0.27250  Biso   1.000  H
  H234     1.0000 0.39080  0.46250  0.77250  Biso   1.000  H
  H235     1.0000 0.10920  0.96250  0.27250  Biso   1.000  H
  H236     1.0000 0.89080  0.03750  0.77250  Biso   1.000  H
  H237     1.0000 0.58530  0.50690  0.21250  Biso   1.000  H
  H238     1.0000 0.41470  0.49310  0.71250  Biso   1.000  H
  H239     1.0000 0.08530  0.99310  0.21250  Biso   1.000  H
  H240     1.0000 0.91470  0.00690  0.71250  Biso   1.000  H
  C177     1.0000 0.33190  0.31200  0.50540  Biso   1.000  C
  C178     1.0000 0.66810  0.68800  0.00540  Biso   1.000  C
  C179     1.0000 0.83190  0.18800  0.50540  Biso   1.000  C
  C180     1.0000 0.16810  0.81200  0.00540  Biso   1.000  C
  C181     1.0000 0.40140  0.33600  0.41500  Biso   1.000  C
  C182     1.0000 0.59860  0.66400  0.91500  Biso   1.000  C
  C183     1.0000 0.90140  0.16400  0.41500  Biso   1.000  C
  C184     1.0000 0.09860  0.83600  0.91500  Biso   1.000  C
  C185     1.0000 0.37530  0.11200  0.47700  Biso   1.000  C
  C186     1.0000 0.62470  0.88800  0.97700  Biso   1.000  C
  C187     1.0000 0.87530  0.38800  0.47700  Biso   1.000  C
  C188     1.0000 0.12470  0.61200  0.97700  Biso   1.000  C
  H241     1.0000 0.36090  0.35470  0.52990  Biso   1.000  H
  H242     1.0000 0.63910  0.64530  0.02990  Biso   1.000  H
  H243     1.0000 0.86090  0.14530  0.52990  Biso   1.000  H
  H244     1.0000 0.13910  0.85470  0.02990  Biso   1.000  H
  H245     1.0000 0.31290  0.25130  0.53400  Biso   1.000  H
  H246     1.0000 0.68710  0.74870  0.03400  Biso   1.000  H
  H247     1.0000 0.81290  0.24870  0.53400  Biso   1.000  H
  H248     1.0000 0.18710  0.75130  0.03400  Biso   1.000  H
  H249     1.0000 0.30610  0.37650  0.48940  Biso   1.000  H
  H250     1.0000 0.69390  0.62350  0.98940  Biso   1.000  H
  H251     1.0000 0.80610  0.12350  0.48940  Biso   1.000  H
  H252     1.0000 0.19390  0.87650  0.98940  Biso   1.000  H
  H253     1.0000 0.43450  0.33400  0.44160  Biso   1.000  H
  H254     1.0000 0.56550  0.66600  0.94160  Biso   1.000  H
  H255     1.0000 0.93450  0.16600  0.44160  Biso   1.000  H
  H256     1.0000 0.06550  0.83400  0.94160  Biso   1.000  H
  H257     1.0000 0.38600  0.42290  0.41570  Biso   1.000  H
  H258     1.0000 0.61400  0.57710  0.91570  Biso   1.000  H
  H259     1.0000 0.88600  0.07710  0.41570  Biso   1.000  H
  H260     1.0000 0.11400  0.92290  0.91570  Biso   1.000  H
  H261     1.0000 0.41020  0.31240  0.37000  Biso   1.000  H
  H262     1.0000 0.58980  0.68760  0.87000  Biso   1.000  H
  H263     1.0000 0.91020  0.18760  0.37000  Biso   1.000  H
  H264     1.0000 0.08980  0.81240  0.87000  Biso   1.000  H
  H265     1.0000 0.40060  0.06590  0.44840  Biso   1.000  H
  H266     1.0000 0.59940  0.93410  0.94840  Biso   1.000  H
  H267     1.0000 0.90060  0.43410  0.44840  Biso   1.000  H
  H268     1.0000 0.09940  0.56590  0.94840  Biso   1.000  H
  H269     1.0000 0.34340  0.05790  0.48520  Biso   1.000  H
  H270     1.0000 0.65660  0.94210  0.98520  Biso   1.000  H
  H271     1.0000 0.84340  0.44210  0.48520  Biso   1.000  H
  H272     1.0000 0.15660  0.55790  0.98520  Biso   1.000  H
  H273     1.0000 0.39330  0.13170  0.51840  Biso   1.000  H
  H274     1.0000 0.60670  0.86830  0.01840  Biso   1.000  H
  H275     1.0000 0.89330  0.36830  0.51840  Biso   1.000  H
  H276     1.0000 0.10670  0.63170  0.01840  Biso   1.000  H
