data_image0
_cell_length_a       6.2523
_cell_length_b       13.0742
_cell_length_c       18.0207
_cell_angle_alpha    90
_cell_angle_beta     92.193
_cell_angle_gamma    90

_symmetry_space_group_name_H-M    "P 1"
_symmetry_int_tables_number       1

loop_
  _symmetry_equiv_pos_as_xyz
  'x, y, z'

loop_
  _atom_site_label
  _atom_site_occupancy
  _atom_site_fract_x
  _atom_site_fract_y
  _atom_site_fract_z
  _atom_site_thermal_displace_type
  _atom_site_B_iso_or_equiv
  _atom_site_type_symbol
  O1       1.0000 0.79020  0.78410  0.43657  Biso   1.000  O
  O2       1.0000 0.20980  0.28410  0.06343  Biso   1.000  O
  O3       1.0000 0.20980  0.21590  0.56343  Biso   1.000  O
  O4       1.0000 0.79020  0.71590  0.93657  Biso   1.000  O
  O5       1.0000 0.11780  0.00610  0.43260  Biso   1.000  O
  O6       1.0000 0.88220  0.50610  0.06740  Biso   1.000  O
  O7       1.0000 0.88220  0.99390  0.56740  Biso   1.000  O
  O8       1.0000 0.11780  0.49390  0.93260  Biso   1.000  O
  H1       1.0000 0.15880  0.94250  0.42940  Biso   1.000  H
  H2       1.0000 0.84120  0.44250  0.07060  Biso   1.000  H
  H3       1.0000 0.84120  0.05750  0.57060  Biso   1.000  H
  H4       1.0000 0.15880  0.55750  0.92940  Biso   1.000  H
  H5       1.0000 0.04100  0.00990  0.40990  Biso   1.000  H
  H6       1.0000 0.95900  0.50990  0.09010  Biso   1.000  H
  H7       1.0000 0.95900  0.99010  0.59010  Biso   1.000  H
  H8       1.0000 0.04100  0.49010  0.90990  Biso   1.000  H
  O9       1.0000 0.70090  0.02610  0.35360  Biso   1.000  O
  O10      1.0000 0.29910  0.52610  0.14640  Biso   1.000  O
  O11      1.0000 0.29910  0.97390  0.64640  Biso   1.000  O
  O12      1.0000 0.70090  0.47390  0.85360  Biso   1.000  O
  H9       1.0000 0.61660  0.98230  0.33350  Biso   1.000  H
  H10      1.0000 0.38340  0.48230  0.16650  Biso   1.000  H
  H11      1.0000 0.38340  0.01770  0.66650  Biso   1.000  H
  H12      1.0000 0.61660  0.51770  0.83350  Biso   1.000  H
  H13      1.0000 0.80530  0.03660  0.32580  Biso   1.000  H
  H14      1.0000 0.19470  0.53660  0.17420  Biso   1.000  H
  H15      1.0000 0.19470  0.96340  0.67420  Biso   1.000  H
  H16      1.0000 0.80530  0.46340  0.82580  Biso   1.000  H
  Cu1      1.0000 0.49222  0.76375  0.45740  Biso   1.000  Cu
  Cu2      1.0000 0.50778  0.26375  0.04260  Biso   1.000  Cu
  Cu3      1.0000 0.50778  0.23625  0.54260  Biso   1.000  Cu
  Cu4      1.0000 0.49222  0.73625  0.95740  Biso   1.000  Cu
  Cu5      1.0000 0.00000  0.50000  0.50000  Biso   1.000  Cu
  Cu6      1.0000 0.00000  0.00000  0.00000  Biso   1.000  Cu
  P1       1.0000 0.28319  0.57069  0.37424  Biso   1.000  P
  P2       1.0000 0.71681  0.07069  0.12576  Biso   1.000  P
  P3       1.0000 0.71681  0.42931  0.62576  Biso   1.000  P
  P4       1.0000 0.28319  0.92931  0.87424  Biso   1.000  P
  P5       1.0000 0.99810  0.72486  0.44528  Biso   1.000  P
  P6       1.0000 0.00190  0.22486  0.05472  Biso   1.000  P
  P7       1.0000 0.00190  0.27514  0.55472  Biso   1.000  P
  P8       1.0000 0.99810  0.77514  0.94528  Biso   1.000  P
  O13      1.0000 0.18800  0.79859  0.44904  Biso   1.000  O
  O14      1.0000 0.81200  0.29859  0.05096  Biso   1.000  O
  O15      1.0000 0.81200  0.20141  0.55096  Biso   1.000  O
  O16      1.0000 0.18800  0.70141  0.94904  Biso   1.000  O
  O17      1.0000 0.86700  0.55883  0.37237  Biso   1.000  O
  O18      1.0000 0.13300  0.05883  0.12763  Biso   1.000  O
  O19      1.0000 0.13300  0.44117  0.62763  Biso   1.000  O
  O20      1.0000 0.86700  0.94117  0.87237  Biso   1.000  O
  H17      1.0000 0.74620  0.58330  0.37070  Biso   1.000  H
  H18      1.0000 0.25380  0.08330  0.12930  Biso   1.000  H
  H19      1.0000 0.25380  0.41670  0.62930  Biso   1.000  H
  H20      1.0000 0.74620  0.91670  0.87070  Biso   1.000  H
  O21      1.0000 0.00590  0.65119  0.51174  Biso   1.000  O
  O22      1.0000 0.99410  0.15119  0.98826  Biso   1.000  O
  O23      1.0000 0.99410  0.34881  0.48826  Biso   1.000  O
  O24      1.0000 0.00590  0.84881  0.01174  Biso   1.000  O
  O25      1.0000 0.46350  0.64939  0.38669  Biso   1.000  O
  O26      1.0000 0.53650  0.14939  0.11331  Biso   1.000  O
  O27      1.0000 0.53650  0.35061  0.61331  Biso   1.000  O
  O28      1.0000 0.46350  0.85061  0.88669  Biso   1.000  O
  O29      1.0000 0.25790  0.50367  0.44355  Biso   1.000  O
  O30      1.0000 0.74210  0.00367  0.05645  Biso   1.000  O
  O31      1.0000 0.74210  0.49633  0.55645  Biso   1.000  O
  O32      1.0000 0.25790  0.99633  0.94355  Biso   1.000  O
  O33      1.0000 0.46690  0.65842  0.55363  Biso   1.000  O
  O34      1.0000 0.53310  0.15842  0.94637  Biso   1.000  O
  O35      1.0000 0.53310  0.34158  0.44637  Biso   1.000  O
  O36      1.0000 0.46690  0.84158  0.05363  Biso   1.000  O
  H21      1.0000 0.34950  0.63040  0.55170  Biso   1.000  H
  H22      1.0000 0.65050  0.13040  0.94830  Biso   1.000  H
  H23      1.0000 0.65050  0.36960  0.44830  Biso   1.000  H
  H24      1.0000 0.34950  0.86960  0.05170  Biso   1.000  H
  H25      1.0000 0.54660  0.60950  0.54740  Biso   1.000  H
  H26      1.0000 0.45340  0.10950  0.95260  Biso   1.000  H
  H27      1.0000 0.45340  0.39050  0.45260  Biso   1.000  H
  H28      1.0000 0.54660  0.89050  0.04740  Biso   1.000  H
  O37      1.0000 0.31080  0.50715  0.30548  Biso   1.000  O
  O38      1.0000 0.68920  0.00715  0.19452  Biso   1.000  O
  O39      1.0000 0.68920  0.49285  0.69452  Biso   1.000  O
  O40      1.0000 0.31080  0.99285  0.80548  Biso   1.000  O
  C1       1.0000 0.02390  0.64030  0.36448  Biso   1.000  C
  C2       1.0000 0.97610  0.14030  0.13552  Biso   1.000  C
  C3       1.0000 0.97610  0.35970  0.63552  Biso   1.000  C
  C4       1.0000 0.02390  0.85970  0.86448  Biso   1.000  C
  C5       1.0000 0.00090  0.68830  0.28610  Biso   1.000  C
  C6       1.0000 0.99910  0.18830  0.21390  Biso   1.000  C
  C7       1.0000 0.99910  0.31170  0.71390  Biso   1.000  C
  C8       1.0000 0.00090  0.81170  0.78610  Biso   1.000  C
  H29      1.0000 0.05470  0.63700  0.25190  Biso   1.000  H
  H30      1.0000 0.94530  0.13700  0.24810  Biso   1.000  H
  H31      1.0000 0.94530  0.36300  0.74810  Biso   1.000  H
  H32      1.0000 0.05470  0.86300  0.75190  Biso   1.000  H
  N1       1.0000 0.90910  0.82800  0.16302  Biso   1.000  N
  N2       1.0000 0.09090  0.32800  0.33698  Biso   1.000  N
  N3       1.0000 0.09090  0.17200  0.83698  Biso   1.000  N
  N4       1.0000 0.90910  0.67200  0.66302  Biso   1.000  N
  H33      1.0000 0.85210  0.88390  0.18370  Biso   1.000  H
  H34      1.0000 0.14790  0.38390  0.31630  Biso   1.000  H
  H35      1.0000 0.14790  0.11610  0.81630  Biso   1.000  H
  H36      1.0000 0.85210  0.61610  0.68370  Biso   1.000  H
  H37      1.0000 0.91230  0.83890  0.11380  Biso   1.000  H
  H38      1.0000 0.08770  0.33890  0.38620  Biso   1.000  H
  H39      1.0000 0.08770  0.16110  0.88620  Biso   1.000  H
  H40      1.0000 0.91230  0.66110  0.61380  Biso   1.000  H
  C9       1.0000 0.13640  0.78470  0.27492  Biso   1.000  C
  C10      1.0000 0.86360  0.28470  0.22508  Biso   1.000  C
  C11      1.0000 0.86360  0.21530  0.72508  Biso   1.000  C
  C12      1.0000 0.13640  0.71530  0.77492  Biso   1.000  C
  H41      1.0000 0.08090  0.84040  0.30400  Biso   1.000  H
  H42      1.0000 0.91910  0.34040  0.19600  Biso   1.000  H
  H43      1.0000 0.91910  0.15960  0.69600  Biso   1.000  H
  H44      1.0000 0.08090  0.65960  0.80400  Biso   1.000  H
  H45      1.0000 0.28290  0.77180  0.29210  Biso   1.000  H
  H46      1.0000 0.71710  0.27180  0.20790  Biso   1.000  H
  H47      1.0000 0.71710  0.22820  0.70790  Biso   1.000  H
  H48      1.0000 0.28290  0.72820  0.79210  Biso   1.000  H
  C13      1.0000 0.13190  0.81470  0.19317  Biso   1.000  C
  C14      1.0000 0.86810  0.31470  0.30683  Biso   1.000  C
  C15      1.0000 0.86810  0.18530  0.80683  Biso   1.000  C
  C16      1.0000 0.13190  0.68530  0.69317  Biso   1.000  C
  H49      1.0000 0.21000  0.87820  0.18750  Biso   1.000  H
  H50      1.0000 0.79000  0.37820  0.31250  Biso   1.000  H
  H51      1.0000 0.79000  0.12180  0.81250  Biso   1.000  H
  H52      1.0000 0.21000  0.62180  0.68750  Biso   1.000  H
  H53      1.0000 0.20270  0.76230  0.16500  Biso   1.000  H
  H54      1.0000 0.79730  0.26230  0.33500  Biso   1.000  H
  H55      1.0000 0.79730  0.23770  0.83500  Biso   1.000  H
  H56      1.0000 0.20270  0.73770  0.66500  Biso   1.000  H
  C17      1.0000 0.76840  0.73870  0.17665  Biso   1.000  C
  C18      1.0000 0.23160  0.23870  0.32335  Biso   1.000  C
  C19      1.0000 0.23160  0.26130  0.82335  Biso   1.000  C
  C20      1.0000 0.76840  0.76130  0.67665  Biso   1.000  C
  H57      1.0000 0.81660  0.68030  0.14850  Biso   1.000  H
  H58      1.0000 0.18340  0.18030  0.35150  Biso   1.000  H
  H59      1.0000 0.18340  0.31970  0.85150  Biso   1.000  H
  H60      1.0000 0.81660  0.81970  0.64850  Biso   1.000  H
  H61      1.0000 0.62300  0.75450  0.15970  Biso   1.000  H
  H62      1.0000 0.37700  0.25450  0.34030  Biso   1.000  H
  H63      1.0000 0.37700  0.24550  0.84030  Biso   1.000  H
  H64      1.0000 0.62300  0.74550  0.65970  Biso   1.000  H
  C21      1.0000 0.77140  0.71170  0.25883  Biso   1.000  C
  C22      1.0000 0.22860  0.21170  0.24117  Biso   1.000  C
  C23      1.0000 0.22860  0.28830  0.74117  Biso   1.000  C
  C24      1.0000 0.77140  0.78830  0.75883  Biso   1.000  C
  H65      1.0000 0.68130  0.65250  0.26650  Biso   1.000  H
  H66      1.0000 0.31870  0.15250  0.23350  Biso   1.000  H
  H67      1.0000 0.31870  0.34750  0.73350  Biso   1.000  H
  H68      1.0000 0.68130  0.84750  0.76650  Biso   1.000  H
  H69      1.0000 0.71550  0.76840  0.28690  Biso   1.000  H
  H70      1.0000 0.28450  0.26840  0.21310  Biso   1.000  H
  H71      1.0000 0.28450  0.23160  0.71310  Biso   1.000  H
  H72      1.0000 0.71550  0.73160  0.78690  Biso   1.000  H
  O41      1.0000 0.52390  0.88478  0.52334  Biso   1.000  O
  O42      1.0000 0.47610  0.38478  0.97666  Biso   1.000  O
  O43      1.0000 0.47610  0.11522  0.47666  Biso   1.000  O
  O44      1.0000 0.52390  0.61522  0.02334  Biso   1.000  O
  H73      1.0000 0.65130  0.89820  0.53010  Biso   1.000  H
  H74      1.0000 0.34870  0.39820  0.96990  Biso   1.000  H
  H75      1.0000 0.34870  0.10180  0.46990  Biso   1.000  H
  H76      1.0000 0.65130  0.60180  0.03010  Biso   1.000  H
  H77      1.0000 0.45400  0.88770  0.54710  Biso   1.000  H
  H78      1.0000 0.54600  0.38770  0.95290  Biso   1.000  H
  H79      1.0000 0.54600  0.11230  0.45290  Biso   1.000  H
  H80      1.0000 0.45400  0.61230  0.04710  Biso   1.000  H
