data_image0
_cell_length_a       6.8763
_cell_length_b       17.2608
_cell_length_c       15.152
_cell_angle_alpha    90
_cell_angle_beta     95.514
_cell_angle_gamma    90

_symmetry_space_group_name_H-M    "P 1"
_symmetry_int_tables_number       1

loop_
  _symmetry_equiv_pos_as_xyz
  'x, y, z'

loop_
  _atom_site_label
  _atom_site_occupancy
  _atom_site_fract_x
  _atom_site_fract_y
  _atom_site_fract_z
  _atom_site_thermal_displace_type
  _atom_site_B_iso_or_equiv
  _atom_site_type_symbol
  Cu1      1.0000 0.69363  0.03296  0.45858  Biso   1.000  Cu
  Cu2      1.0000 0.80637  0.53296  0.04142  Biso   1.000  Cu
  Cu3      1.0000 0.30637  0.96704  0.54142  Biso   1.000  Cu
  Cu4      1.0000 0.19363  0.46704  0.95858  Biso   1.000  Cu
  O1       1.0000 0.40860  0.07110  0.52413  Biso   1.000  O
  O2       1.0000 0.09140  0.57110  0.97587  Biso   1.000  O
  O3       1.0000 0.59140  0.92890  0.47587  Biso   1.000  O
  O4       1.0000 0.90860  0.42890  0.02413  Biso   1.000  O
  O5       1.0000 0.15870  0.12420  0.58529  Biso   1.000  O
  O6       1.0000 0.34130  0.62420  0.91471  Biso   1.000  O
  O7       1.0000 0.84130  0.87580  0.41471  Biso   1.000  O
  O8       1.0000 0.65870  0.37580  0.08529  Biso   1.000  O
  O9       1.0000 0.27290  0.36076  0.94759  Biso   1.000  O
  O10      1.0000 0.22710  0.86076  0.55241  Biso   1.000  O
  O11      1.0000 0.72710  0.63924  0.05241  Biso   1.000  O
  O12      1.0000 0.77290  0.13924  0.44759  Biso   1.000  O
  O13      1.0000 0.52160  0.38641  0.86767  Biso   1.000  O
  O14      1.0000 0.97840  0.88641  0.63233  Biso   1.000  O
  O15      1.0000 0.47840  0.61359  0.13233  Biso   1.000  O
  O16      1.0000 0.02160  0.11359  0.36767  Biso   1.000  O
  O17      1.0000 0.85470  0.02458  0.57251  Biso   1.000  O
  O18      1.0000 0.64530  0.52458  0.92749  Biso   1.000  O
  O19      1.0000 0.14530  0.97542  0.42749  Biso   1.000  O
  O20      1.0000 0.35470  0.47542  0.07251  Biso   1.000  O
  H1       1.0000 0.89200  0.98060  0.58860  Biso   1.000  H
  H2       1.0000 0.60800  0.48060  0.91140  Biso   1.000  H
  H3       1.0000 0.10800  0.01940  0.41140  Biso   1.000  H
  H4       1.0000 0.39200  0.51940  0.08860  Biso   1.000  H
  H5       1.0000 0.95500  0.05190  0.58310  Biso   1.000  H
  H6       1.0000 0.54500  0.55190  0.91690  Biso   1.000  H
  H7       1.0000 0.04500  0.94810  0.41690  Biso   1.000  H
  H8       1.0000 0.45500  0.44810  0.08310  Biso   1.000  H
  O21      1.0000 0.43570  0.09307  0.01330  Biso   1.000  O
  O22      1.0000 0.06430  0.59307  0.48670  Biso   1.000  O
  O23      1.0000 0.56430  0.90693  0.98670  Biso   1.000  O
  O24      1.0000 0.93570  0.40693  0.51330  Biso   1.000  O
  N1       1.0000 0.56570  0.03666  0.33311  Biso   1.000  N
  N2       1.0000 0.93430  0.53666  0.16689  Biso   1.000  N
  N3       1.0000 0.43430  0.96334  0.66689  Biso   1.000  N
  N4       1.0000 0.06570  0.46334  0.83311  Biso   1.000  N
  N5       1.0000 0.13250  0.05419  0.04081  Biso   1.000  N
  N6       1.0000 0.36750  0.55419  0.45919  Biso   1.000  N
  N7       1.0000 0.86750  0.94581  0.95919  Biso   1.000  N
  N8       1.0000 0.63250  0.44581  0.54081  Biso   1.000  N
  C1       1.0000 0.60210  0.98583  0.26962  Biso   1.000  C
  C2       1.0000 0.89790  0.48583  0.23038  Biso   1.000  C
  C3       1.0000 0.39790  0.01417  0.73038  Biso   1.000  C
  C4       1.0000 0.10210  0.51417  0.76962  Biso   1.000  C
  H9       1.0000 0.68640  0.94340  0.28500  Biso   1.000  H
  H10      1.0000 0.81360  0.44340  0.21500  Biso   1.000  H
  H11      1.0000 0.31360  0.05660  0.71500  Biso   1.000  H
  H12      1.0000 0.18640  0.55660  0.78500  Biso   1.000  H
  C5       1.0000 0.52220  0.99273  0.18313  Biso   1.000  C
  C6       1.0000 0.97780  0.49273  0.31687  Biso   1.000  C
  C7       1.0000 0.47780  0.00727  0.81687  Biso   1.000  C
  C8       1.0000 0.02220  0.50727  0.68313  Biso   1.000  C
  H13      1.0000 0.55200  0.95580  0.13990  Biso   1.000  H
  H14      1.0000 0.94800  0.45580  0.36010  Biso   1.000  H
  H15      1.0000 0.44800  0.04420  0.86010  Biso   1.000  H
  H16      1.0000 0.05200  0.54420  0.63990  Biso   1.000  H
  C9       1.0000 0.39810  0.05396  0.15984  Biso   1.000  C
  C10      1.0000 0.10190  0.55396  0.34016  Biso   1.000  C
  C11      1.0000 0.60190  0.94604  0.84016  Biso   1.000  C
  C12      1.0000 0.89810  0.44604  0.65984  Biso   1.000  C
  C13      1.0000 0.35430  0.10512  0.22584  Biso   1.000  C
  C14      1.0000 0.14570  0.60512  0.27416  Biso   1.000  C
  C15      1.0000 0.64570  0.89488  0.77416  Biso   1.000  C
  C16      1.0000 0.85430  0.39488  0.72584  Biso   1.000  C
  H17      1.0000 0.26510  0.14650  0.21270  Biso   1.000  H
  H18      1.0000 0.23490  0.64650  0.28730  Biso   1.000  H
  H19      1.0000 0.73490  0.85350  0.78730  Biso   1.000  H
  H20      1.0000 0.76510  0.35350  0.71270  Biso   1.000  H
  C17      1.0000 0.44240  0.09491  0.31064  Biso   1.000  C
  C18      1.0000 0.05760  0.59491  0.18936  Biso   1.000  C
  C19      1.0000 0.55760  0.90509  0.68936  Biso   1.000  C
  C20      1.0000 0.94240  0.40509  0.81064  Biso   1.000  C
  H21      1.0000 0.41430  0.13090  0.35520  Biso   1.000  H
  H22      1.0000 0.08570  0.63090  0.14480  Biso   1.000  H
  H23      1.0000 0.58570  0.86910  0.64480  Biso   1.000  H
  H24      1.0000 0.91430  0.36910  0.85520  Biso   1.000  H
  C21      1.0000 0.32330  0.06799  0.06430  Biso   1.000  C
  C22      1.0000 0.17670  0.56799  0.43570  Biso   1.000  C
  C23      1.0000 0.67670  0.93201  0.93570  Biso   1.000  C
  C24      1.0000 0.82330  0.43201  0.56430  Biso   1.000  C
  C25      1.0000 0.04980  0.06579  0.94937  Biso   1.000  C
  C26      1.0000 0.45020  0.56579  0.55063  Biso   1.000  C
  C27      1.0000 0.95020  0.93421  0.05063  Biso   1.000  C
  C28      1.0000 0.54980  0.43421  0.44937  Biso   1.000  C
  H25      1.0000 0.14530  0.09340  0.91590  Biso   1.000  H
  H26      1.0000 0.35470  0.59340  0.58410  Biso   1.000  H
  H27      1.0000 0.85470  0.90660  0.08410  Biso   1.000  H
  H28      1.0000 0.64530  0.40660  0.41590  Biso   1.000  H
  H29      1.0000 0.93070  0.09820  0.94860  Biso   1.000  H
  H30      1.0000 0.56930  0.59820  0.55140  Biso   1.000  H
  H31      1.0000 0.06930  0.90180  0.05140  Biso   1.000  H
  H32      1.0000 0.43070  0.40180  0.44860  Biso   1.000  H
  C29      1.0000 0.00130  0.01135  0.09472  Biso   1.000  C
  C30      1.0000 0.49870  0.51135  0.40528  Biso   1.000  C
  C31      1.0000 0.99870  0.98865  0.90528  Biso   1.000  C
  C32      1.0000 0.50130  0.48865  0.59472  Biso   1.000  C
  H33      1.0000 0.88080  0.04170  0.09990  Biso   1.000  H
  H34      1.0000 0.61920  0.54170  0.40010  Biso   1.000  H
  H35      1.0000 0.11920  0.95830  0.90010  Biso   1.000  H
  H36      1.0000 0.38080  0.45830  0.59990  Biso   1.000  H
  H37      1.0000 0.06650  0.00270  0.15510  Biso   1.000  H
  H38      1.0000 0.43350  0.50270  0.34490  Biso   1.000  H
  H39      1.0000 0.93350  0.99730  0.84490  Biso   1.000  H
  H40      1.0000 0.56650  0.49730  0.65510  Biso   1.000  H
  C33      1.0000 0.53490  0.23171  0.80893  Biso   1.000  C
  C34      1.0000 0.96510  0.73171  0.69107  Biso   1.000  C
  C35      1.0000 0.46510  0.76829  0.19107  Biso   1.000  C
  C36      1.0000 0.03490  0.26829  0.30893  Biso   1.000  C
  C37      1.0000 0.44040  0.23180  0.72365  Biso   1.000  C
  C38      1.0000 0.05960  0.73180  0.77635  Biso   1.000  C
  C39      1.0000 0.55960  0.76820  0.27635  Biso   1.000  C
  C40      1.0000 0.94040  0.26820  0.22365  Biso   1.000  C
  H41      1.0000 0.30630  0.24590  0.71510  Biso   1.000  H
  H42      1.0000 0.19370  0.74590  0.78490  Biso   1.000  H
  H43      1.0000 0.69370  0.75410  0.28490  Biso   1.000  H
  H44      1.0000 0.80630  0.25410  0.21510  Biso   1.000  H
  C41      1.0000 0.53760  0.21177  0.65048  Biso   1.000  C
  C42      1.0000 0.96240  0.71177  0.84952  Biso   1.000  C
  C43      1.0000 0.46240  0.78823  0.34952  Biso   1.000  C
  C44      1.0000 0.03760  0.28823  0.15048  Biso   1.000  C
  C45      1.0000 0.73470  0.19179  0.66307  Biso   1.000  C
  C46      1.0000 0.76530  0.69179  0.83693  Biso   1.000  C
  C47      1.0000 0.26530  0.80821  0.33693  Biso   1.000  C
  C48      1.0000 0.23470  0.30821  0.16307  Biso   1.000  C
  H45      1.0000 0.80320  0.17850  0.61370  Biso   1.000  H
  H46      1.0000 0.69680  0.67850  0.88630  Biso   1.000  H
  H47      1.0000 0.19680  0.82150  0.38630  Biso   1.000  H
  H48      1.0000 0.30320  0.32150  0.11370  Biso   1.000  H
  C49      1.0000 0.83050  0.19139  0.74787  Biso   1.000  C
  C50      1.0000 0.66950  0.69139  0.75213  Biso   1.000  C
  C51      1.0000 0.16950  0.80861  0.25213  Biso   1.000  C
  C52      1.0000 0.33050  0.30861  0.24787  Biso   1.000  C
  H49      1.0000 0.96470  0.17750  0.75640  Biso   1.000  H
  H50      1.0000 0.53530  0.67750  0.74360  Biso   1.000  H
  H51      1.0000 0.03530  0.82250  0.24360  Biso   1.000  H
  H52      1.0000 0.46470  0.32250  0.25640  Biso   1.000  H
  C53      1.0000 0.73130  0.21118  0.82051  Biso   1.000  C
  C54      1.0000 0.76870  0.71118  0.67949  Biso   1.000  C
  C55      1.0000 0.26870  0.78882  0.17949  Biso   1.000  C
  C56      1.0000 0.23130  0.28882  0.32051  Biso   1.000  C
  H53      1.0000 0.79810  0.21060  0.87840  Biso   1.000  H
  H54      1.0000 0.70190  0.71060  0.62160  Biso   1.000  H
  H55      1.0000 0.20190  0.78940  0.12160  Biso   1.000  H
  H56      1.0000 0.29810  0.28940  0.37840  Biso   1.000  H
  C57      1.0000 0.42520  0.20633  0.55914  Biso   1.000  C
  C58      1.0000 0.07480  0.70633  0.94086  Biso   1.000  C
  C59      1.0000 0.57480  0.79367  0.44086  Biso   1.000  C
  C60      1.0000 0.92520  0.29367  0.05914  Biso   1.000  C
  H57      1.0000 0.51620  0.20920  0.51240  Biso   1.000  H
  H58      1.0000 0.98380  0.70920  0.98760  Biso   1.000  H
  H59      1.0000 0.48380  0.79080  0.48760  Biso   1.000  H
  H60      1.0000 0.01620  0.29080  0.01240  Biso   1.000  H
  H61      1.0000 0.33050  0.24950  0.55030  Biso   1.000  H
  H62      1.0000 0.16950  0.74950  0.94970  Biso   1.000  H
  H63      1.0000 0.66950  0.75050  0.44970  Biso   1.000  H
  H64      1.0000 0.83050  0.25050  0.05030  Biso   1.000  H
  C61      1.0000 0.31820  0.12870  0.55452  Biso   1.000  C
  C62      1.0000 0.18180  0.62870  0.94548  Biso   1.000  C
  C63      1.0000 0.68180  0.87130  0.44548  Biso   1.000  C
  C64      1.0000 0.81820  0.37130  0.05452  Biso   1.000  C
  C65      1.0000 0.42460  0.25432  0.88643  Biso   1.000  C
  C66      1.0000 0.07540  0.75432  0.61357  Biso   1.000  C
  C67      1.0000 0.57540  0.74568  0.11357  Biso   1.000  C
  C68      1.0000 0.92460  0.24568  0.38643  Biso   1.000  C
  H65      1.0000 0.49050  0.23090  0.94100  Biso   1.000  H
  H66      1.0000 0.00950  0.73090  0.55900  Biso   1.000  H
  H67      1.0000 0.50950  0.76910  0.05900  Biso   1.000  H
  H68      1.0000 0.99050  0.26910  0.44100  Biso   1.000  H
  H69      1.0000 0.29120  0.23230  0.87740  Biso   1.000  H
  H70      1.0000 0.20880  0.73230  0.62260  Biso   1.000  H
  H71      1.0000 0.70880  0.76770  0.12260  Biso   1.000  H
  H72      1.0000 0.79120  0.26770  0.37740  Biso   1.000  H
  C69      1.0000 0.40860  0.34146  0.90024  Biso   1.000  C
  C70      1.0000 0.09140  0.84146  0.59976  Biso   1.000  C
  C71      1.0000 0.59140  0.65854  0.09976  Biso   1.000  C
  C72      1.0000 0.90860  0.15854  0.40024  Biso   1.000  C
