data_image0
_cell_length_a       12.55
_cell_length_b       12.5769
_cell_length_c       15.4112
_cell_angle_alpha    78.959
_cell_angle_beta     68.047
_cell_angle_gamma    88.571

_symmetry_space_group_name_H-M    "P 1"
_symmetry_int_tables_number       1

loop_
  _symmetry_equiv_pos_as_xyz
  'x, y, z'

loop_
  _atom_site_label
  _atom_site_occupancy
  _atom_site_fract_x
  _atom_site_fract_y
  _atom_site_fract_z
  _atom_site_thermal_displace_type
  _atom_site_B_iso_or_equiv
  _atom_site_type_symbol
  Cu1      1.0000 0.52960  0.70862  0.56197  Biso   1.000  Cu
  Cu2      1.0000 0.47040  0.29138  0.43803  Biso   1.000  Cu
  O1       1.0000 0.63520  0.86040  0.55388  Biso   1.000  O
  O2       1.0000 0.36480  0.13960  0.44612  Biso   1.000  O
  O3       1.0000 0.59255  0.64454  0.65579  Biso   1.000  O
  O4       1.0000 0.40745  0.35546  0.34421  Biso   1.000  O
  O5       1.0000 0.44348  0.73385  0.47782  Biso   1.000  O
  O6       1.0000 0.55652  0.26615  0.52218  Biso   1.000  O
  O7       1.0000 0.99820  0.48395  0.25051  Biso   1.000  O
  O8       1.0000 0.00180  0.51605  0.74949  Biso   1.000  O
  O9       1.0000 0.67080  0.99140  0.42590  Biso   1.000  O
  O10      1.0000 0.32920  0.00860  0.57410  Biso   1.000  O
  H1       1.0000 0.61700  0.95800  0.42200  Biso   1.000  H
  H2       1.0000 0.38300  0.04200  0.57800  Biso   1.000  H
  O11      1.0000 0.53960  0.88300  0.37553  Biso   1.000  O
  O12      1.0000 0.46040  0.11700  0.62447  Biso   1.000  O
  O13      1.0000 0.45310  0.51316  0.71671  Biso   1.000  O
  O14      1.0000 0.54690  0.48684  0.28329  Biso   1.000  O
  O15      1.0000 0.42850  0.04140  0.10630  Biso   1.000  O
  O16      1.0000 0.57150  0.95860  0.89370  Biso   1.000  O
  O17      1.0000 0.28980  0.95730  0.08234  Biso   1.000  O
  O18      1.0000 0.71020  0.04270  0.91766  Biso   1.000  O
  H3       1.0000 0.29970  0.01250  0.03920  Biso   1.000  H
  H4       1.0000 0.70030  0.98750  0.96080  Biso   1.000  H
  O19      1.0000 0.89620  0.95090  0.70601  Biso   1.000  O
  O20      1.0000 0.10380  0.04910  0.29399  Biso   1.000  O
  O21      1.0000 0.48140  0.22450  0.98122  Biso   1.000  O
  O22      1.0000 0.51860  0.77550  0.01878  Biso   1.000  O
  H5       1.0000 0.46980  0.16460  0.01930  Biso   1.000  H
  H6       1.0000 0.53020  0.83540  0.98070  Biso   1.000  H
  O23      1.0000 0.60090  0.25460  0.05030  Biso   1.000  O
  O24      1.0000 0.39910  0.74540  0.94970  Biso   1.000  O
  O25      1.0000 0.74640  0.63380  0.91858  Biso   1.000  O
  O26      1.0000 0.25360  0.36620  0.08142  Biso   1.000  O
  O27      1.0000 0.17220  0.62755  0.32701  Biso   1.000  O
  O28      1.0000 0.82780  0.37245  0.67299  Biso   1.000  O
  O29      1.0000 0.91800  0.30420  0.37755  Biso   1.000  O
  O30      1.0000 0.08200  0.69580  0.62245  Biso   1.000  O
  H7       1.0000 0.95590  0.36210  0.34540  Biso   1.000  H
  H8       1.0000 0.04410  0.63790  0.65460  Biso   1.000  H
  O31      1.0000 0.10310  0.93750  0.89806  Biso   1.000  O
  O32      1.0000 0.89690  0.06250  0.10194  Biso   1.000  O
  O33      1.0000 0.04780  0.29310  0.44490  Biso   1.000  O
  O34      1.0000 0.95220  0.70690  0.55510  Biso   1.000  O
  N1       1.0000 0.39700  0.75520  0.66583  Biso   1.000  N
  N2       1.0000 0.60300  0.24480  0.33417  Biso   1.000  N
  N3       1.0000 0.66570  0.66130  0.46056  Biso   1.000  N
  N4       1.0000 0.33430  0.33870  0.53944  Biso   1.000  N
  N5       1.0000 0.00980  0.64960  0.15892  Biso   1.000  N
  N6       1.0000 0.99020  0.35040  0.84108  Biso   1.000  N
  N7       1.0000 0.05050  0.76230  0.97164  Biso   1.000  N
  N8       1.0000 0.94950  0.23770  0.02836  Biso   1.000  N
  C1       1.0000 0.41430  0.81540  0.72310  Biso   1.000  C
  C2       1.0000 0.58570  0.18460  0.27690  Biso   1.000  C
  H9       1.0000 0.49070  0.83950  0.71060  Biso   1.000  H
  H10      1.0000 0.50930  0.16050  0.28940  Biso   1.000  H
  C3       1.0000 0.32620  0.84350  0.79910  Biso   1.000  C
  C4       1.0000 0.67380  0.15650  0.20090  Biso   1.000  C
  H11      1.0000 0.34140  0.88850  0.83660  Biso   1.000  H
  H12      1.0000 0.65860  0.11150  0.16340  Biso   1.000  H
  C5       1.0000 0.28860  0.71970  0.68610  Biso   1.000  C
  C6       1.0000 0.71140  0.28030  0.31390  Biso   1.000  C
  H13      1.0000 0.27490  0.67760  0.64600  Biso   1.000  H
  H14      1.0000 0.72510  0.32240  0.35400  Biso   1.000  H
  C7       1.0000 0.19690  0.74190  0.76250  Biso   1.000  C
  C8       1.0000 0.80310  0.25810  0.23750  Biso   1.000  C
  H15      1.0000 0.12170  0.71400  0.77560  Biso   1.000  H
  H16      1.0000 0.87830  0.28600  0.22440  Biso   1.000  H
  C9       1.0000 0.21520  0.80560  0.82030  Biso   1.000  C
  C10      1.0000 0.78480  0.19440  0.17970  Biso   1.000  C
  C11      1.0000 0.86090  0.60820  0.31720  Biso   1.000  C
  C12      1.0000 0.13910  0.39180  0.68280  Biso   1.000  C
  C13      1.0000 0.11820  0.83940  0.90150  Biso   1.000  C
  C14      1.0000 0.88180  0.16060  0.09850  Biso   1.000  C
  C15      1.0000 0.95490  0.79210  0.05290  Biso   1.000  C
  C16      1.0000 0.04510  0.20790  0.94710  Biso   1.000  C
  H17      1.0000 0.88270  0.75320  0.06190  Biso   1.000  H
  H18      1.0000 0.11730  0.24680  0.93810  Biso   1.000  H
  H19      1.0000 0.94440  0.87100  0.03920  Biso   1.000  H
  H20      1.0000 0.05560  0.12900  0.96080  Biso   1.000  H
  C17      1.0000 0.46540  0.80650  0.40300  Biso   1.000  C
  C18      1.0000 0.53460  0.19350  0.59700  Biso   1.000  C
  C19      1.0000 0.96300  0.57660  0.23950  Biso   1.000  C
  C20      1.0000 0.03700  0.42340  0.76050  Biso   1.000  C
  C21      1.0000 0.68620  0.94450  0.50400  Biso   1.000  C
  C22      1.0000 0.31380  0.05550  0.49600  Biso   1.000  C
  C23      1.0000 0.77230  0.00150  0.52580  Biso   1.000  C
  C24      1.0000 0.22770  0.99850  0.47420  Biso   1.000  C
  C25      1.0000 0.79830  0.95370  0.60350  Biso   1.000  C
  C26      1.0000 0.20170  0.04630  0.39650  Biso   1.000  C
  H21      1.0000 0.76110  0.88620  0.64100  Biso   1.000  H
  H22      1.0000 0.23890  0.11380  0.35900  Biso   1.000  H
  C27      1.0000 0.82560  0.10040  0.47060  Biso   1.000  C
  C28      1.0000 0.17440  0.89960  0.52940  Biso   1.000  C
  H23      1.0000 0.80690  0.13400  0.41780  Biso   1.000  H
  H24      1.0000 0.19310  0.86600  0.58220  Biso   1.000  H
  C29      1.0000 0.39680  0.79910  0.34220  Biso   1.000  C
  C30      1.0000 0.60320  0.20090  0.65780  Biso   1.000  C
  C31      1.0000 0.40980  0.88060  0.26470  Biso   1.000  C
  C32      1.0000 0.59020  0.11940  0.73530  Biso   1.000  C
  H25      1.0000 0.46350  0.93990  0.24890  Biso   1.000  H
  H26      1.0000 0.53650  0.06010  0.75110  Biso   1.000  H
  C33      1.0000 0.34460  0.87610  0.20950  Biso   1.000  C
  C34      1.0000 0.65540  0.12390  0.79050  Biso   1.000  C
  C35      1.0000 0.26700  0.78900  0.23210  Biso   1.000  C
  C36      1.0000 0.73300  0.21100  0.76790  Biso   1.000  C
  H27      1.0000 0.22310  0.78530  0.19400  Biso   1.000  H
  H28      1.0000 0.77690  0.21470  0.80600  Biso   1.000  H
  C37      1.0000 0.25350  0.70750  0.31030  Biso   1.000  C
  C38      1.0000 0.74650  0.29250  0.68970  Biso   1.000  C
  C39      1.0000 0.31810  0.71140  0.36560  Biso   1.000  C
  C40      1.0000 0.68190  0.28860  0.63440  Biso   1.000  C
  H29      1.0000 0.30890  0.65510  0.41900  Biso   1.000  H
  H30      1.0000 0.69110  0.34490  0.58100  Biso   1.000  H
  C41      1.0000 0.35850  0.96610  0.12770  Biso   1.000  C
  C42      1.0000 0.64150  0.03390  0.87230  Biso   1.000  C
  C43      1.0000 0.53650  0.56220  0.71820  Biso   1.000  C
  C44      1.0000 0.46350  0.43780  0.28180  Biso   1.000  C
  C45      1.0000 0.57750  0.52680  0.79920  Biso   1.000  C
  C46      1.0000 0.42250  0.47320  0.20080  Biso   1.000  C
  C47      1.0000 0.64580  0.59930  0.81700  Biso   1.000  C
  C48      1.0000 0.35420  0.40070  0.18300  Biso   1.000  C
  H31      1.0000 0.66900  0.66870  0.77670  Biso   1.000  H
  H32      1.0000 0.33100  0.33130  0.22330  Biso   1.000  H
  C49      1.0000 0.67950  0.56920  0.89390  Biso   1.000  C
  C50      1.0000 0.32050  0.43080  0.10610  Biso   1.000  C
  C51      1.0000 0.64600  0.46810  0.95140  Biso   1.000  C
  C52      1.0000 0.35400  0.53190  0.04860  Biso   1.000  C
  H33      1.0000 0.66760  0.44810  0.00490  Biso   1.000  H
  H34      1.0000 0.33240  0.55190  0.99510  Biso   1.000  H
  C53      1.0000 0.58130  0.39530  0.93210  Biso   1.000  C
  C54      1.0000 0.41870  0.60470  0.06790  Biso   1.000  C
  C55      1.0000 0.54570  0.42450  0.85610  Biso   1.000  C
  C56      1.0000 0.45430  0.57550  0.14390  Biso   1.000  C
  H35      1.0000 0.50010  0.37500  0.84330  Biso   1.000  H
  H36      1.0000 0.49990  0.62500  0.15670  Biso   1.000  H
  C57      1.0000 0.65740  0.61430  0.39200  Biso   1.000  C
  C58      1.0000 0.34260  0.38570  0.60800  Biso   1.000  C
  H37      1.0000 0.58300  0.59950  0.39310  Biso   1.000  H
  H38      1.0000 0.41700  0.40050  0.60690  Biso   1.000  H
  C59      1.0000 0.75140  0.58650  0.32020  Biso   1.000  C
  C60      1.0000 0.24860  0.41350  0.67980  Biso   1.000  C
  H39      1.0000 0.74170  0.55290  0.27330  Biso   1.000  H
  H40      1.0000 0.25830  0.44710  0.72670  Biso   1.000  H
  C61      1.0000 0.87070  0.65390  0.38880  Biso   1.000  C
  C62      1.0000 0.12930  0.34610  0.61120  Biso   1.000  C
  H41      1.0000 0.94430  0.66850  0.38950  Biso   1.000  H
  H42      1.0000 0.05570  0.33150  0.61050  Biso   1.000  H
  C63      1.0000 0.77220  0.67810  0.45930  Biso   1.000  C
  C64      1.0000 0.22780  0.32190  0.54070  Biso   1.000  C
  H43      1.0000 0.77970  0.70790  0.50910  Biso   1.000  H
  H44      1.0000 0.22030  0.29210  0.49090  Biso   1.000  H
  C65      1.0000 0.10320  0.62020  0.07770  Biso   1.000  C
  C66      1.0000 0.89680  0.37980  0.92230  Biso   1.000  C
  H45      1.0000 0.11470  0.54150  0.09150  Biso   1.000  H
  H46      1.0000 0.88530  0.45850  0.90850  Biso   1.000  H
  H47      1.0000 0.17550  0.66000  0.06710  Biso   1.000  H
  H48      1.0000 0.82450  0.34000  0.93290  Biso   1.000  H
  C67      1.0000 0.98000  0.76310  0.14260  Biso   1.000  C
  C68      1.0000 0.02000  0.23690  0.85740  Biso   1.000  C
  H49      1.0000 0.04470  0.81080  0.13730  Biso   1.000  H
  H50      1.0000 0.95530  0.18920  0.86270  Biso   1.000  H
  H51      1.0000 0.91170  0.77540  0.19780  Biso   1.000  H
  H52      1.0000 0.08830  0.22460  0.80220  Biso   1.000  H
  C69      1.0000 0.07540  0.64750  0.98940  Biso   1.000  C
  C70      1.0000 0.92460  0.35250  0.01060  Biso   1.000  C
  H53      1.0000 0.14140  0.63200  0.93400  Biso   1.000  H
  H54      1.0000 0.85860  0.36800  0.06600  Biso   1.000  H
  H55      1.0000 0.00790  0.60190  0.99740  Biso   1.000  H
  H56      1.0000 0.99210  0.39810  0.00260  Biso   1.000  H
  C71      1.0000 0.90640  0.14940  0.49360  Biso   1.000  C
  C72      1.0000 0.09360  0.85060  0.50640  Biso   1.000  C
  C73      1.0000 0.93320  0.10110  0.57090  Biso   1.000  C
  C74      1.0000 0.06680  0.89890  0.42910  Biso   1.000  C
  H57      1.0000 0.98950  0.13500  0.58540  Biso   1.000  H
  H58      1.0000 0.01050  0.86500  0.41460  Biso   1.000  H
  C75      1.0000 0.87830  0.00350  0.62730  Biso   1.000  C
  C76      1.0000 0.12170  0.99650  0.37270  Biso   1.000  C
  C77      1.0000 0.96630  0.25560  0.43670  Biso   1.000  C
  C78      1.0000 0.03370  0.74440  0.56330  Biso   1.000  C
  C79      1.0000 0.97310  0.00240  0.73580  Biso   1.000  C
  C80      1.0000 0.02690  0.99760  0.26420  Biso   1.000  C
  H59      1.0000 0.05080  0.00830  0.68670  Biso   1.000  H
  H60      1.0000 0.94920  0.99170  0.31330  Biso   1.000  H
  H61      1.0000 0.97360  0.95930  0.79580  Biso   1.000  H
  H62      1.0000 0.02640  0.04070  0.20420  Biso   1.000  H
  H63      1.0000 0.94760  0.07510  0.74540  Biso   1.000  H
  H64      1.0000 0.05240  0.92490  0.25460  Biso   1.000  H
  C81      1.0000 0.55540  0.28610  0.99440  Biso   1.000  C
  C82      1.0000 0.44460  0.71390  0.00560  Biso   1.000  C
  C83      1.0000 0.16200  0.53520  0.40110  Biso   1.000  C
  C84      1.0000 0.83800  0.46480  0.59890  Biso   1.000  C
  H65      1.0000 0.23630  0.50150  0.38750  Biso   1.000  H
  H66      1.0000 0.76370  0.49850  0.61250  Biso   1.000  H
  H67      1.0000 0.10400  0.48250  0.40390  Biso   1.000  H
  H68      1.0000 0.89600  0.51750  0.59610  Biso   1.000  H
  H69      1.0000 0.13870  0.55840  0.46250  Biso   1.000  H
  H70      1.0000 0.86130  0.44160  0.53750  Biso   1.000  H
  C85      1.0000 0.79450  0.73380  0.85480  Biso   1.000  C
  C86      1.0000 0.20550  0.26620  0.14520  Biso   1.000  C
  H71      1.0000 0.84290  0.71940  0.79200  Biso   1.000  H
  H72      1.0000 0.15710  0.28060  0.20800  Biso   1.000  H
  H73      1.0000 0.84130  0.77090  0.87970  Biso   1.000  H
  H74      1.0000 0.15870  0.22910  0.12030  Biso   1.000  H
  H75      1.0000 0.73250  0.77980  0.84890  Biso   1.000  H
  H76      1.0000 0.26750  0.22020  0.15110  Biso   1.000  H
  O35      1.0000 0.25810  0.11350  0.79340  Biso   1.000  O
  O36      1.0000 0.74190  0.88650  0.20660  Biso   1.000  O
  H77      1.0000 0.31400  0.10700  0.74400  Biso   1.000  H
  H78      1.0000 0.68600  0.89300  0.25600  Biso   1.000  H
  H79      1.0000 0.21600  0.05300  0.81400  Biso   1.000  H
  H80      1.0000 0.78400  0.94700  0.18600  Biso   1.000  H
  O37      1.0000 0.30520  0.12600  0.94970  Biso   1.000  O
  O38      1.0000 0.69480  0.87400  0.05030  Biso   1.000  O
  H81      1.0000 0.36100  0.18800  0.93400  Biso   1.000  H
  H82      1.0000 0.63900  0.81200  0.06600  Biso   1.000  H
  H83      1.0000 0.30100  0.11100  0.89800  Biso   1.000  H
  H84      1.0000 0.69900  0.88900  0.10200  Biso   1.000  H
  O39      1.0000 0.24870  0.45340  0.88910  Biso   1.000  O
  O40      1.0000 0.75130  0.54660  0.11090  Biso   1.000  O
  H85      1.0000 0.31300  0.47500  0.84600  Biso   1.000  H
  H86      1.0000 0.68700  0.52500  0.15400  Biso   1.000  H
  H87      1.0000 0.26800  0.40600  0.94300  Biso   1.000  H
  H88      1.0000 0.73200  0.59400  0.05700  Biso   1.000  H
