data_image0
_cell_length_a       16.224
_cell_length_b       16.224
_cell_length_c       18.724
_cell_angle_alpha    90
_cell_angle_beta     90
_cell_angle_gamma    90

_symmetry_space_group_name_H-M    "P 1"
_symmetry_int_tables_number       1

loop_
  _symmetry_equiv_pos_as_xyz
  'x, y, z'

loop_
  _atom_site_label
  _atom_site_occupancy
  _atom_site_fract_x
  _atom_site_fract_y
  _atom_site_fract_z
  _atom_site_thermal_displace_type
  _atom_site_B_iso_or_equiv
  _atom_site_type_symbol
  Cu1      1.0000 0.00000  0.00000  0.00000  Biso   1.000  Cu
  Cu2      1.0000 0.25000  0.75000  0.75000  Biso   1.000  Cu
  Cu3      1.0000 0.25000  0.25000  0.25000  Biso   1.000  Cu
  Cu4      1.0000 0.00000  0.50000  0.00000  Biso   1.000  Cu
  Cu5      1.0000 0.50000  0.50000  0.50000  Biso   1.000  Cu
  Cu6      1.0000 0.75000  0.25000  0.25000  Biso   1.000  Cu
  Cu7      1.0000 0.75000  0.75000  0.75000  Biso   1.000  Cu
  Cu8      1.0000 0.50000  0.00000  0.50000  Biso   1.000  Cu
  O1       1.0000 0.01680  0.90050  0.05480  Biso   1.000  O
  O2       1.0000 0.34950  0.76680  0.80480  Biso   1.000  O
  O3       1.0000 0.15050  0.23320  0.30480  Biso   1.000  O
  O4       1.0000 0.98320  0.59950  0.05480  Biso   1.000  O
  O5       1.0000 0.51680  0.40050  0.55480  Biso   1.000  O
  O6       1.0000 0.84950  0.26680  0.30480  Biso   1.000  O
  O7       1.0000 0.65050  0.73320  0.80480  Biso   1.000  O
  O8       1.0000 0.48320  0.09950  0.55480  Biso   1.000  O
  O9       1.0000 0.98320  0.09950  0.94520  Biso   1.000  O
  O10      1.0000 0.15050  0.73320  0.69520  Biso   1.000  O
  O11      1.0000 0.34950  0.26680  0.19520  Biso   1.000  O
  O12      1.0000 0.01680  0.40050  0.94520  Biso   1.000  O
  O13      1.0000 0.48320  0.59950  0.44520  Biso   1.000  O
  O14      1.0000 0.65050  0.23320  0.19520  Biso   1.000  O
  O15      1.0000 0.84950  0.76680  0.69520  Biso   1.000  O
  O16      1.0000 0.51680  0.90050  0.44520  Biso   1.000  O
  O17      1.0000 0.00380  0.96880  0.15750  Biso   1.000  O
  O18      1.0000 0.28120  0.75380  0.90750  Biso   1.000  O
  O19      1.0000 0.21880  0.24620  0.40750  Biso   1.000  O
  O20      1.0000 0.99620  0.53120  0.15750  Biso   1.000  O
  O21      1.0000 0.50380  0.46880  0.65750  Biso   1.000  O
  O22      1.0000 0.78120  0.25380  0.40750  Biso   1.000  O
  O23      1.0000 0.71880  0.74620  0.90750  Biso   1.000  O
  O24      1.0000 0.49620  0.03120  0.65750  Biso   1.000  O
  O25      1.0000 0.99620  0.03120  0.84250  Biso   1.000  O
  O26      1.0000 0.21880  0.74620  0.59250  Biso   1.000  O
  O27      1.0000 0.28120  0.25380  0.09250  Biso   1.000  O
  O28      1.0000 0.00380  0.46880  0.84250  Biso   1.000  O
  O29      1.0000 0.49620  0.53120  0.34250  Biso   1.000  O
  O30      1.0000 0.71880  0.24620  0.09250  Biso   1.000  O
  O31      1.0000 0.78120  0.75380  0.59250  Biso   1.000  O
  O32      1.0000 0.50380  0.96880  0.34250  Biso   1.000  O
  O33      1.0000 0.62200  0.94390  0.14480  Biso   1.000  O
  O34      1.0000 0.30610  0.37200  0.89480  Biso   1.000  O
  O35      1.0000 0.19390  0.62800  0.39480  Biso   1.000  O
  O36      1.0000 0.37800  0.55610  0.14480  Biso   1.000  O
  O37      1.0000 0.12200  0.44390  0.64480  Biso   1.000  O
  O38      1.0000 0.80610  0.87200  0.39480  Biso   1.000  O
  O39      1.0000 0.69390  0.12800  0.89480  Biso   1.000  O
  O40      1.0000 0.87800  0.05610  0.64480  Biso   1.000  O
  O41      1.0000 0.37800  0.05610  0.85520  Biso   1.000  O
  O42      1.0000 0.19390  0.12800  0.60520  Biso   1.000  O
  O43      1.0000 0.30610  0.87200  0.10520  Biso   1.000  O
  O44      1.0000 0.62200  0.44390  0.85520  Biso   1.000  O
  O45      1.0000 0.87800  0.55610  0.35520  Biso   1.000  O
  O46      1.0000 0.69390  0.62800  0.10520  Biso   1.000  O
  O47      1.0000 0.80610  0.37200  0.60520  Biso   1.000  O
  O48      1.0000 0.12200  0.94390  0.35520  Biso   1.000  O
  O49      1.0000 0.00960  0.12610  0.11700  Biso   1.000  O
  O50      1.0000 0.12390  0.75960  0.86700  Biso   1.000  O
  O51      1.0000 0.37610  0.24040  0.36700  Biso   1.000  O
  O52      1.0000 0.99040  0.37390  0.11700  Biso   1.000  O
  O53      1.0000 0.50960  0.62610  0.61700  Biso   1.000  O
  O54      1.0000 0.62390  0.25960  0.36700  Biso   1.000  O
  O55      1.0000 0.87610  0.74040  0.86700  Biso   1.000  O
  O56      1.0000 0.49040  0.87390  0.61700  Biso   1.000  O
  O57      1.0000 0.99040  0.87390  0.88300  Biso   1.000  O
  O58      1.0000 0.37610  0.74040  0.63300  Biso   1.000  O
  O59      1.0000 0.12390  0.25960  0.13300  Biso   1.000  O
  O60      1.0000 0.00960  0.62610  0.88300  Biso   1.000  O
  O61      1.0000 0.49040  0.37390  0.38300  Biso   1.000  O
  O62      1.0000 0.87610  0.24040  0.13300  Biso   1.000  O
  O63      1.0000 0.62390  0.75960  0.63300  Biso   1.000  O
  O64      1.0000 0.50960  0.12610  0.38300  Biso   1.000  O
  H1       1.0000 0.98900  0.15500  0.15200  Biso   1.000  H
  H2       1.0000 0.09500  0.73900  0.90200  Biso   1.000  H
  H3       1.0000 0.40500  0.26100  0.40200  Biso   1.000  H
  H4       1.0000 0.01100  0.34500  0.15200  Biso   1.000  H
  H5       1.0000 0.48900  0.65500  0.65200  Biso   1.000  H
  H6       1.0000 0.59500  0.23900  0.40200  Biso   1.000  H
  H7       1.0000 0.90500  0.76100  0.90200  Biso   1.000  H
  H8       1.0000 0.51100  0.84500  0.65200  Biso   1.000  H
  H9       1.0000 0.01100  0.84500  0.84800  Biso   1.000  H
  H10      1.0000 0.40500  0.76100  0.59800  Biso   1.000  H
  H11      1.0000 0.09500  0.23900  0.09800  Biso   1.000  H
  H12      1.0000 0.98900  0.65500  0.84800  Biso   1.000  H
  H13      1.0000 0.51100  0.34500  0.34800  Biso   1.000  H
  H14      1.0000 0.90500  0.26100  0.09800  Biso   1.000  H
  H15      1.0000 0.59500  0.73900  0.59800  Biso   1.000  H
  H16      1.0000 0.48900  0.15500  0.34800  Biso   1.000  H
  H17      1.0000 0.00400  0.07690  0.13300  Biso   1.000  H
  H18      1.0000 0.17310  0.75400  0.88300  Biso   1.000  H
  H19      1.0000 0.32690  0.24600  0.38300  Biso   1.000  H
  H20      1.0000 0.99600  0.42310  0.13300  Biso   1.000  H
  H21      1.0000 0.50400  0.57690  0.63300  Biso   1.000  H
  H22      1.0000 0.67310  0.25400  0.38300  Biso   1.000  H
  H23      1.0000 0.82690  0.74600  0.88300  Biso   1.000  H
  H24      1.0000 0.49600  0.92310  0.63300  Biso   1.000  H
  H25      1.0000 0.99600  0.92310  0.86700  Biso   1.000  H
  H26      1.0000 0.32690  0.74600  0.61700  Biso   1.000  H
  H27      1.0000 0.17310  0.25400  0.11700  Biso   1.000  H
  H28      1.0000 0.00400  0.57690  0.86700  Biso   1.000  H
  H29      1.0000 0.49600  0.42310  0.36700  Biso   1.000  H
  H30      1.0000 0.82690  0.24600  0.11700  Biso   1.000  H
  H31      1.0000 0.67310  0.75400  0.61700  Biso   1.000  H
  H32      1.0000 0.50400  0.07690  0.36700  Biso   1.000  H
  N1       1.0000 0.87880  0.98770  0.01260  Biso   1.000  N
  N2       1.0000 0.26230  0.62880  0.76260  Biso   1.000  N
  N3       1.0000 0.23770  0.37120  0.26260  Biso   1.000  N
  N4       1.0000 0.12120  0.51230  0.01260  Biso   1.000  N
  N5       1.0000 0.37880  0.48770  0.51260  Biso   1.000  N
  N6       1.0000 0.76230  0.12880  0.26260  Biso   1.000  N
  N7       1.0000 0.73770  0.87120  0.76260  Biso   1.000  N
  N8       1.0000 0.62120  0.01230  0.51260  Biso   1.000  N
  N9       1.0000 0.12120  0.01230  0.98740  Biso   1.000  N
  N10      1.0000 0.23770  0.87120  0.73740  Biso   1.000  N
  N11      1.0000 0.26230  0.12880  0.23740  Biso   1.000  N
  N12      1.0000 0.87880  0.48770  0.98740  Biso   1.000  N
  N13      1.0000 0.62120  0.51230  0.48740  Biso   1.000  N
  N14      1.0000 0.73770  0.37120  0.23740  Biso   1.000  N
  N15      1.0000 0.76230  0.62880  0.73740  Biso   1.000  N
  N16      1.0000 0.37880  0.98770  0.48740  Biso   1.000  N
  N17      1.0000 0.56540  0.96310  0.03690  Biso   1.000  N
  N18      1.0000 0.28690  0.31540  0.78690  Biso   1.000  N
  N19      1.0000 0.21310  0.68460  0.28690  Biso   1.000  N
  N20      1.0000 0.43460  0.53690  0.03690  Biso   1.000  N
  N21      1.0000 0.06540  0.46310  0.53690  Biso   1.000  N
  N22      1.0000 0.78690  0.81540  0.28690  Biso   1.000  N
  N23      1.0000 0.71310  0.18460  0.78690  Biso   1.000  N
  N24      1.0000 0.93460  0.03690  0.53690  Biso   1.000  N
  N25      1.0000 0.43460  0.03690  0.96310  Biso   1.000  N
  N26      1.0000 0.21310  0.18460  0.71310  Biso   1.000  N
  N27      1.0000 0.28690  0.81540  0.21310  Biso   1.000  N
  N28      1.0000 0.56540  0.46310  0.96310  Biso   1.000  N
  N29      1.0000 0.93460  0.53690  0.46310  Biso   1.000  N
  N30      1.0000 0.71310  0.68460  0.21310  Biso   1.000  N
  N31      1.0000 0.78690  0.31540  0.71310  Biso   1.000  N
  N32      1.0000 0.06540  0.96310  0.46310  Biso   1.000  N
  C1       1.0000 0.00930  0.90380  0.12090  Biso   1.000  C
  C2       1.0000 0.34620  0.75930  0.87090  Biso   1.000  C
  C3       1.0000 0.15380  0.24070  0.37090  Biso   1.000  C
  C4       1.0000 0.99070  0.59620  0.12090  Biso   1.000  C
  C5       1.0000 0.50930  0.40380  0.62090  Biso   1.000  C
  C6       1.0000 0.84620  0.25930  0.37090  Biso   1.000  C
  C7       1.0000 0.65380  0.74070  0.87090  Biso   1.000  C
  C8       1.0000 0.49070  0.09620  0.62090  Biso   1.000  C
  C9       1.0000 0.99070  0.09620  0.87910  Biso   1.000  C
  C10      1.0000 0.15380  0.74070  0.62910  Biso   1.000  C
  C11      1.0000 0.34620  0.25930  0.12910  Biso   1.000  C
  C12      1.0000 0.00930  0.40380  0.87910  Biso   1.000  C
  C13      1.0000 0.49070  0.59620  0.37910  Biso   1.000  C
  C14      1.0000 0.65380  0.24070  0.12910  Biso   1.000  C
  C15      1.0000 0.84620  0.75930  0.62910  Biso   1.000  C
  C16      1.0000 0.50930  0.90380  0.37910  Biso   1.000  C
  C17      1.0000 0.00590  0.82340  0.16030  Biso   1.000  C
  C18      1.0000 0.42660  0.75590  0.91030  Biso   1.000  C
  C19      1.0000 0.07340  0.24410  0.41030  Biso   1.000  C
  C20      1.0000 0.99410  0.67660  0.16030  Biso   1.000  C
  C21      1.0000 0.50590  0.32340  0.66030  Biso   1.000  C
  C22      1.0000 0.92660  0.25590  0.41030  Biso   1.000  C
  C23      1.0000 0.57340  0.74410  0.91030  Biso   1.000  C
  C24      1.0000 0.49410  0.17660  0.66030  Biso   1.000  C
  C25      1.0000 0.99410  0.17660  0.83970  Biso   1.000  C
  C26      1.0000 0.07340  0.74410  0.58970  Biso   1.000  C
  C27      1.0000 0.42660  0.25590  0.08970  Biso   1.000  C
  C28      1.0000 0.00590  0.32340  0.83970  Biso   1.000  C
  C29      1.0000 0.49410  0.67660  0.33970  Biso   1.000  C
  C30      1.0000 0.57340  0.24410  0.08970  Biso   1.000  C
  C31      1.0000 0.92660  0.75590  0.58970  Biso   1.000  C
  C32      1.0000 0.50590  0.82340  0.33970  Biso   1.000  C
  C33      1.0000 0.00000  0.75000  0.12370  Biso   1.000  C
  C34      1.0000 0.50000  0.75000  0.87370  Biso   1.000  C
  C35      1.0000 0.00000  0.25000  0.37370  Biso   1.000  C
  C36      1.0000 0.50000  0.25000  0.62370  Biso   1.000  C
  C37      1.0000 0.00000  0.25000  0.87630  Biso   1.000  C
  C38      1.0000 0.00000  0.75000  0.62630  Biso   1.000  C
  C39      1.0000 0.50000  0.25000  0.12630  Biso   1.000  C
  C40      1.0000 0.50000  0.75000  0.37630  Biso   1.000  C
  H33      1.0000 0.00000  0.75000  0.07290  Biso   1.000  H
  H34      1.0000 0.50000  0.75000  0.82290  Biso   1.000  H
  H35      1.0000 0.00000  0.25000  0.32290  Biso   1.000  H
  H36      1.0000 0.50000  0.25000  0.57290  Biso   1.000  H
  H37      1.0000 0.00000  0.25000  0.92710  Biso   1.000  H
  H38      1.0000 0.00000  0.75000  0.67710  Biso   1.000  H
  H39      1.0000 0.50000  0.25000  0.17710  Biso   1.000  H
  H40      1.0000 0.50000  0.75000  0.42710  Biso   1.000  H
  C41      1.0000 0.00710  0.82210  0.23530  Biso   1.000  C
  C42      1.0000 0.42790  0.75710  0.98530  Biso   1.000  C
  C43      1.0000 0.07210  0.24290  0.48530  Biso   1.000  C
  C44      1.0000 0.99290  0.67790  0.23530  Biso   1.000  C
  C45      1.0000 0.50710  0.32210  0.73530  Biso   1.000  C
  C46      1.0000 0.92790  0.25710  0.48530  Biso   1.000  C
  C47      1.0000 0.57210  0.74290  0.98530  Biso   1.000  C
  C48      1.0000 0.49290  0.17790  0.73530  Biso   1.000  C
  C49      1.0000 0.99290  0.17790  0.76470  Biso   1.000  C
  C50      1.0000 0.07210  0.74290  0.51470  Biso   1.000  C
  C51      1.0000 0.42790  0.25710  0.01470  Biso   1.000  C
  C52      1.0000 0.00710  0.32210  0.76470  Biso   1.000  C
  C53      1.0000 0.49290  0.67790  0.26470  Biso   1.000  C
  C54      1.0000 0.57210  0.24290  0.01470  Biso   1.000  C
  C55      1.0000 0.92790  0.75710  0.51470  Biso   1.000  C
  C56      1.0000 0.50710  0.82210  0.26470  Biso   1.000  C
  H41      1.0000 0.01290  0.87220  0.26110  Biso   1.000  H
  H42      1.0000 0.37780  0.76290  0.01110  Biso   1.000  H
  H43      1.0000 0.12220  0.23710  0.51110  Biso   1.000  H
  H44      1.0000 0.98710  0.62780  0.26110  Biso   1.000  H
  H45      1.0000 0.51290  0.37220  0.76110  Biso   1.000  H
  H46      1.0000 0.87780  0.26290  0.51110  Biso   1.000  H
  H47      1.0000 0.62220  0.73710  0.01110  Biso   1.000  H
  H48      1.0000 0.48710  0.12780  0.76110  Biso   1.000  H
  H49      1.0000 0.98710  0.12780  0.73890  Biso   1.000  H
  H50      1.0000 0.12220  0.73710  0.48890  Biso   1.000  H
  H51      1.0000 0.37780  0.26290  0.98890  Biso   1.000  H
  H52      1.0000 0.01290  0.37220  0.73890  Biso   1.000  H
  H53      1.0000 0.48710  0.62780  0.23890  Biso   1.000  H
  H54      1.0000 0.62220  0.23710  0.98890  Biso   1.000  H
  H55      1.0000 0.87780  0.76290  0.48890  Biso   1.000  H
  H56      1.0000 0.51290  0.87220  0.23890  Biso   1.000  H
  C57      1.0000 0.00000  0.75000  0.27090  Biso   1.000  C
  C58      1.0000 0.50000  0.75000  0.02090  Biso   1.000  C
  C59      1.0000 0.00000  0.25000  0.52090  Biso   1.000  C
  C60      1.0000 0.50000  0.25000  0.77090  Biso   1.000  C
  C61      1.0000 0.00000  0.25000  0.72910  Biso   1.000  C
  C62      1.0000 0.00000  0.75000  0.47910  Biso   1.000  C
  C63      1.0000 0.50000  0.25000  0.97910  Biso   1.000  C
  C64      1.0000 0.50000  0.75000  0.22910  Biso   1.000  C
  H57      1.0000 0.00000  0.75000  0.32170  Biso   1.000  H
  H58      1.0000 0.50000  0.75000  0.07170  Biso   1.000  H
  H59      1.0000 0.00000  0.25000  0.57170  Biso   1.000  H
  H60      1.0000 0.50000  0.25000  0.82170  Biso   1.000  H
  H61      1.0000 0.00000  0.25000  0.67830  Biso   1.000  H
  H62      1.0000 0.00000  0.75000  0.42830  Biso   1.000  H
  H63      1.0000 0.50000  0.25000  0.92830  Biso   1.000  H
  H64      1.0000 0.50000  0.75000  0.17830  Biso   1.000  H
  C65      1.0000 0.84140  0.91470  0.00820  Biso   1.000  C
  C66      1.0000 0.33530  0.59140  0.75820  Biso   1.000  C
  C67      1.0000 0.16470  0.40860  0.25820  Biso   1.000  C
  C68      1.0000 0.15860  0.58530  0.00820  Biso   1.000  C
  C69      1.0000 0.34140  0.41470  0.50820  Biso   1.000  C
  C70      1.0000 0.83530  0.09140  0.25820  Biso   1.000  C
  C71      1.0000 0.66470  0.90860  0.75820  Biso   1.000  C
  C72      1.0000 0.65860  0.08530  0.50820  Biso   1.000  C
  C73      1.0000 0.15860  0.08530  0.99180  Biso   1.000  C
  C74      1.0000 0.16470  0.90860  0.74180  Biso   1.000  C
  C75      1.0000 0.33530  0.09140  0.24180  Biso   1.000  C
  C76      1.0000 0.84140  0.41470  0.99180  Biso   1.000  C
  C77      1.0000 0.65860  0.58530  0.49180  Biso   1.000  C
  C78      1.0000 0.66470  0.40860  0.24180  Biso   1.000  C
  C79      1.0000 0.83530  0.59140  0.74180  Biso   1.000  C
  C80      1.0000 0.34140  0.91470  0.49180  Biso   1.000  C
  H65      1.0000 0.87260  0.86850  0.99260  Biso   1.000  H
  H66      1.0000 0.38150  0.62260  0.74260  Biso   1.000  H
  H67      1.0000 0.11850  0.37740  0.24260  Biso   1.000  H
  H68      1.0000 0.12740  0.63150  0.99260  Biso   1.000  H
  H69      1.0000 0.37260  0.36850  0.49260  Biso   1.000  H
  H70      1.0000 0.88150  0.12260  0.24260  Biso   1.000  H
  H71      1.0000 0.61850  0.87740  0.74260  Biso   1.000  H
  H72      1.0000 0.62740  0.13150  0.49260  Biso   1.000  H
  H73      1.0000 0.12740  0.13150  0.00740  Biso   1.000  H
  H74      1.0000 0.11850  0.87740  0.75740  Biso   1.000  H
  H75      1.0000 0.38150  0.12260  0.25740  Biso   1.000  H
  H76      1.0000 0.87260  0.36850  0.00740  Biso   1.000  H
  H77      1.0000 0.62740  0.63150  0.50740  Biso   1.000  H
  H78      1.0000 0.61850  0.37740  0.25740  Biso   1.000  H
  H79      1.0000 0.88150  0.62260  0.75740  Biso   1.000  H
  H80      1.0000 0.37260  0.86850  0.50740  Biso   1.000  H
  C81      1.0000 0.76030  0.90330  0.02510  Biso   1.000  C
  C82      1.0000 0.34670  0.51030  0.77510  Biso   1.000  C
  C83      1.0000 0.15330  0.48970  0.27510  Biso   1.000  C
  C84      1.0000 0.23970  0.59670  0.02510  Biso   1.000  C
  C85      1.0000 0.26030  0.40330  0.52510  Biso   1.000  C
  C86      1.0000 0.84670  0.01030  0.27510  Biso   1.000  C
  C87      1.0000 0.65330  0.98970  0.77510  Biso   1.000  C
  C88      1.0000 0.73970  0.09670  0.52510  Biso   1.000  C
  C89      1.0000 0.23970  0.09670  0.97490  Biso   1.000  C
  C90      1.0000 0.15330  0.98970  0.72490  Biso   1.000  C
  C91      1.0000 0.34670  0.01030  0.22490  Biso   1.000  C
  C92      1.0000 0.76030  0.40330  0.97490  Biso   1.000  C
  C93      1.0000 0.73970  0.59670  0.47490  Biso   1.000  C
  C94      1.0000 0.65330  0.48970  0.22490  Biso   1.000  C
  C95      1.0000 0.84670  0.51030  0.72490  Biso   1.000  C
  C96      1.0000 0.26030  0.90330  0.47490  Biso   1.000  C
  H81      1.0000 0.73550  0.85080  0.01880  Biso   1.000  H
  H82      1.0000 0.39920  0.48550  0.76880  Biso   1.000  H
  H83      1.0000 0.10080  0.51450  0.26880  Biso   1.000  H
  H84      1.0000 0.26450  0.64920  0.01880  Biso   1.000  H
  H85      1.0000 0.23550  0.35080  0.51880  Biso   1.000  H
  H86      1.0000 0.89920  0.98550  0.26880  Biso   1.000  H
  H87      1.0000 0.60080  0.01450  0.76880  Biso   1.000  H
  H88      1.0000 0.76450  0.14920  0.51880  Biso   1.000  H
  H89      1.0000 0.26450  0.14920  0.98120  Biso   1.000  H
  H90      1.0000 0.10080  0.01450  0.73120  Biso   1.000  H
  H91      1.0000 0.39920  0.98550  0.23120  Biso   1.000  H
  H92      1.0000 0.73550  0.35080  0.98120  Biso   1.000  H
  H93      1.0000 0.76450  0.64920  0.48120  Biso   1.000  H
  H94      1.0000 0.60080  0.51450  0.23120  Biso   1.000  H
  H95      1.0000 0.89920  0.48550  0.73120  Biso   1.000  H
  H96      1.0000 0.23550  0.85080  0.48120  Biso   1.000  H
  C97      1.0000 0.71450  0.96810  0.05110  Biso   1.000  C
  C98      1.0000 0.28190  0.46450  0.80110  Biso   1.000  C
  C99      1.0000 0.21810  0.53550  0.30110  Biso   1.000  C
  C100     1.0000 0.28550  0.53190  0.05110  Biso   1.000  C
  C101     1.0000 0.21450  0.46810  0.55110  Biso   1.000  C
  C102     1.0000 0.78190  0.96450  0.30110  Biso   1.000  C
  C103     1.0000 0.71810  0.03550  0.80110  Biso   1.000  C
  C104     1.0000 0.78550  0.03190  0.55110  Biso   1.000  C
  C105     1.0000 0.28550  0.03190  0.94890  Biso   1.000  C
  C106     1.0000 0.21810  0.03550  0.69890  Biso   1.000  C
  C107     1.0000 0.28190  0.96450  0.19890  Biso   1.000  C
  C108     1.0000 0.71450  0.46810  0.94890  Biso   1.000  C
  C109     1.0000 0.78550  0.53190  0.44890  Biso   1.000  C
  C110     1.0000 0.71810  0.53550  0.19890  Biso   1.000  C
  C111     1.0000 0.78190  0.46450  0.69890  Biso   1.000  C
  C112     1.0000 0.21450  0.96810  0.44890  Biso   1.000  C
  C113     1.0000 0.75260  0.04360  0.05350  Biso   1.000  C
  C114     1.0000 0.20640  0.50260  0.80350  Biso   1.000  C
  C115     1.0000 0.29360  0.49740  0.30350  Biso   1.000  C
  C116     1.0000 0.24740  0.45640  0.05350  Biso   1.000  C
  C117     1.0000 0.25260  0.54360  0.55350  Biso   1.000  C
  C118     1.0000 0.70640  0.00260  0.30350  Biso   1.000  C
  C119     1.0000 0.79360  0.99740  0.80350  Biso   1.000  C
  C120     1.0000 0.74740  0.95640  0.55350  Biso   1.000  C
  C121     1.0000 0.24740  0.95640  0.94650  Biso   1.000  C
  C122     1.0000 0.29360  0.99740  0.69650  Biso   1.000  C
  C123     1.0000 0.20640  0.00260  0.19650  Biso   1.000  C
  C124     1.0000 0.75260  0.54360  0.94650  Biso   1.000  C
  C125     1.0000 0.74740  0.45640  0.44650  Biso   1.000  C
  C126     1.0000 0.79360  0.49740  0.19650  Biso   1.000  C
  C127     1.0000 0.70640  0.50260  0.69650  Biso   1.000  C
  C128     1.0000 0.25260  0.04360  0.44650  Biso   1.000  C
  H97      1.0000 0.72290  0.09090  0.06870  Biso   1.000  H
  H98      1.0000 0.15910  0.47290  0.81870  Biso   1.000  H
  H99      1.0000 0.34090  0.52710  0.31870  Biso   1.000  H
  H100     1.0000 0.27710  0.40910  0.06870  Biso   1.000  H
  H101     1.0000 0.22290  0.59090  0.56870  Biso   1.000  H
  H102     1.0000 0.65910  0.97290  0.31870  Biso   1.000  H
  H103     1.0000 0.84090  0.02710  0.81870  Biso   1.000  H
  H104     1.0000 0.77710  0.90910  0.56870  Biso   1.000  H
  H105     1.0000 0.27710  0.90910  0.93130  Biso   1.000  H
  H106     1.0000 0.34090  0.02710  0.68130  Biso   1.000  H
  H107     1.0000 0.15910  0.97290  0.18130  Biso   1.000  H
  H108     1.0000 0.72290  0.59090  0.93130  Biso   1.000  H
  H109     1.0000 0.77710  0.40910  0.43130  Biso   1.000  H
  H110     1.0000 0.84090  0.52710  0.18130  Biso   1.000  H
  H111     1.0000 0.65910  0.47290  0.68130  Biso   1.000  H
  H112     1.0000 0.22290  0.09090  0.43130  Biso   1.000  H
  C129     1.0000 0.83350  0.05050  0.03370  Biso   1.000  C
  C130     1.0000 0.19950  0.58350  0.78370  Biso   1.000  C
  C131     1.0000 0.30050  0.41650  0.28370  Biso   1.000  C
  C132     1.0000 0.16650  0.44950  0.03370  Biso   1.000  C
  C133     1.0000 0.33350  0.55050  0.53370  Biso   1.000  C
  C134     1.0000 0.69950  0.08350  0.28370  Biso   1.000  C
  C135     1.0000 0.80050  0.91650  0.78370  Biso   1.000  C
  C136     1.0000 0.66650  0.94950  0.53370  Biso   1.000  C
  C137     1.0000 0.16650  0.94950  0.96630  Biso   1.000  C
  C138     1.0000 0.30050  0.91650  0.71630  Biso   1.000  C
  C139     1.0000 0.19950  0.08350  0.21630  Biso   1.000  C
  C140     1.0000 0.83350  0.55050  0.96630  Biso   1.000  C
  C141     1.0000 0.66650  0.44950  0.46630  Biso   1.000  C
  C142     1.0000 0.80050  0.41650  0.21630  Biso   1.000  C
  C143     1.0000 0.69950  0.58350  0.71630  Biso   1.000  C
  C144     1.0000 0.33350  0.05050  0.46630  Biso   1.000  C
  H113     1.0000 0.85840  0.10350  0.03530  Biso   1.000  H
  H114     1.0000 0.14650  0.60840  0.78530  Biso   1.000  H
  H115     1.0000 0.35350  0.39160  0.28530  Biso   1.000  H
  H116     1.0000 0.14160  0.39650  0.03530  Biso   1.000  H
  H117     1.0000 0.35840  0.60350  0.53530  Biso   1.000  H
  H118     1.0000 0.64650  0.10840  0.28530  Biso   1.000  H
  H119     1.0000 0.85350  0.89160  0.78530  Biso   1.000  H
  H120     1.0000 0.64160  0.89650  0.53530  Biso   1.000  H
  H121     1.0000 0.14160  0.89650  0.96470  Biso   1.000  H
  H122     1.0000 0.35350  0.89160  0.71470  Biso   1.000  H
  H123     1.0000 0.14650  0.10840  0.21470  Biso   1.000  H
  H124     1.0000 0.85840  0.60350  0.96470  Biso   1.000  H
  H125     1.0000 0.64160  0.39650  0.46470  Biso   1.000  H
  H126     1.0000 0.85350  0.39160  0.21470  Biso   1.000  H
  H127     1.0000 0.64650  0.60840  0.71470  Biso   1.000  H
  H128     1.0000 0.35840  0.10350  0.46470  Biso   1.000  H
  C145     1.0000 0.62940  0.95710  0.08070  Biso   1.000  C
  C146     1.0000 0.29290  0.37940  0.83070  Biso   1.000  C
  C147     1.0000 0.20710  0.62060  0.33070  Biso   1.000  C
  C148     1.0000 0.37060  0.54290  0.08070  Biso   1.000  C
  C149     1.0000 0.12940  0.45710  0.58070  Biso   1.000  C
  C150     1.0000 0.79290  0.87940  0.33070  Biso   1.000  C
  C151     1.0000 0.70710  0.12060  0.83070  Biso   1.000  C
  C152     1.0000 0.87060  0.04290  0.58070  Biso   1.000  C
  C153     1.0000 0.37060  0.04290  0.91930  Biso   1.000  C
  C154     1.0000 0.20710  0.12060  0.66930  Biso   1.000  C
  C155     1.0000 0.29290  0.87940  0.16930  Biso   1.000  C
  C156     1.0000 0.62940  0.45710  0.91930  Biso   1.000  C
  C157     1.0000 0.87060  0.54290  0.41930  Biso   1.000  C
  C158     1.0000 0.70710  0.62060  0.16930  Biso   1.000  C
  C159     1.0000 0.79290  0.37940  0.66930  Biso   1.000  C
  C160     1.0000 0.12940  0.95710  0.41930  Biso   1.000  C
  C161     1.0000 0.51930  0.04330  0.93520  Biso   1.000  C
  C162     1.0000 0.20670  0.26930  0.68520  Biso   1.000  C
  C163     1.0000 0.29330  0.73070  0.18520  Biso   1.000  C
  C164     1.0000 0.48070  0.45670  0.93520  Biso   1.000  C
  C165     1.0000 0.01930  0.54330  0.43520  Biso   1.000  C
  C166     1.0000 0.70670  0.76930  0.18520  Biso   1.000  C
  C167     1.0000 0.79330  0.23070  0.68520  Biso   1.000  C
  C168     1.0000 0.98070  0.95670  0.43520  Biso   1.000  C
  C169     1.0000 0.48070  0.95670  0.06480  Biso   1.000  C
  C170     1.0000 0.29330  0.23070  0.81480  Biso   1.000  C
  C171     1.0000 0.20670  0.76930  0.31480  Biso   1.000  C
  C172     1.0000 0.51930  0.54330  0.06480  Biso   1.000  C
  C173     1.0000 0.98070  0.45670  0.56480  Biso   1.000  C
  C174     1.0000 0.79330  0.73070  0.31480  Biso   1.000  C
  C175     1.0000 0.70670  0.26930  0.81480  Biso   1.000  C
  C176     1.0000 0.01930  0.04330  0.56480  Biso   1.000  C
  H129     1.0000 0.54480  0.09500  0.95240  Biso   1.000  H
  H130     1.0000 0.15500  0.29480  0.70240  Biso   1.000  H
  H131     1.0000 0.34500  0.70520  0.20240  Biso   1.000  H
  H132     1.0000 0.45520  0.40500  0.95240  Biso   1.000  H
  H133     1.0000 0.04480  0.59500  0.45240  Biso   1.000  H
  H134     1.0000 0.65500  0.79480  0.20240  Biso   1.000  H
  H135     1.0000 0.84500  0.20520  0.70240  Biso   1.000  H
  H136     1.0000 0.95520  0.90500  0.45240  Biso   1.000  H
  H137     1.0000 0.45520  0.90500  0.04760  Biso   1.000  H
  H138     1.0000 0.34500  0.20520  0.79760  Biso   1.000  H
  H139     1.0000 0.15500  0.79480  0.29760  Biso   1.000  H
  H140     1.0000 0.54480  0.59500  0.04760  Biso   1.000  H
  H141     1.0000 0.95520  0.40500  0.54760  Biso   1.000  H
  H142     1.0000 0.84500  0.70520  0.29760  Biso   1.000  H
  H143     1.0000 0.65500  0.29480  0.79760  Biso   1.000  H
  H144     1.0000 0.04480  0.09500  0.54760  Biso   1.000  H
  H145     1.0000 0.51780  0.04500  0.88230  Biso   1.000  H
  H146     1.0000 0.20500  0.26780  0.63230  Biso   1.000  H
  H147     1.0000 0.29500  0.73220  0.13230  Biso   1.000  H
  H148     1.0000 0.48220  0.45500  0.88230  Biso   1.000  H
  H149     1.0000 0.01780  0.54500  0.38230  Biso   1.000  H
  H150     1.0000 0.70500  0.76780  0.13230  Biso   1.000  H
  H151     1.0000 0.79500  0.23220  0.63230  Biso   1.000  H
  H152     1.0000 0.98220  0.95500  0.38230  Biso   1.000  H
  H153     1.0000 0.48220  0.95500  0.11770  Biso   1.000  H
  H154     1.0000 0.29500  0.23220  0.86770  Biso   1.000  H
  H155     1.0000 0.20500  0.76780  0.36770  Biso   1.000  H
  H156     1.0000 0.51780  0.54500  0.11770  Biso   1.000  H
  H157     1.0000 0.98220  0.45500  0.61770  Biso   1.000  H
  H158     1.0000 0.79500  0.73220  0.36770  Biso   1.000  H
  H159     1.0000 0.70500  0.26780  0.86770  Biso   1.000  H
  H160     1.0000 0.01780  0.04500  0.61770  Biso   1.000  H
  C177     1.0000 0.56980  0.97140  0.95910  Biso   1.000  C
  C178     1.0000 0.27860  0.31980  0.70910  Biso   1.000  C
  C179     1.0000 0.22140  0.68020  0.20910  Biso   1.000  C
  C180     1.0000 0.43020  0.52860  0.95910  Biso   1.000  C
  C181     1.0000 0.06980  0.47140  0.45910  Biso   1.000  C
  C182     1.0000 0.77860  0.81980  0.20910  Biso   1.000  C
  C183     1.0000 0.72140  0.18020  0.70910  Biso   1.000  C
  C184     1.0000 0.93020  0.02860  0.45910  Biso   1.000  C
  C185     1.0000 0.43020  0.02860  0.04090  Biso   1.000  C
  C186     1.0000 0.22140  0.18020  0.79090  Biso   1.000  C
  C187     1.0000 0.27860  0.81980  0.29090  Biso   1.000  C
  C188     1.0000 0.56980  0.47140  0.04090  Biso   1.000  C
  C189     1.0000 0.93020  0.52860  0.54090  Biso   1.000  C
  C190     1.0000 0.72140  0.68020  0.29090  Biso   1.000  C
  C191     1.0000 0.77860  0.31980  0.79090  Biso   1.000  C
  C192     1.0000 0.06980  0.97140  0.54090  Biso   1.000  C
  H161     1.0000 0.54910  0.92040  0.93620  Biso   1.000  H
  H162     1.0000 0.32960  0.29910  0.68620  Biso   1.000  H
  H163     1.0000 0.17040  0.70090  0.18620  Biso   1.000  H
  H164     1.0000 0.45090  0.57960  0.93620  Biso   1.000  H
  H165     1.0000 0.04910  0.42040  0.43620  Biso   1.000  H
  H166     1.0000 0.82960  0.79910  0.18620  Biso   1.000  H
  H167     1.0000 0.67040  0.20090  0.68620  Biso   1.000  H
  H168     1.0000 0.95090  0.07960  0.43620  Biso   1.000  H
  H169     1.0000 0.45090  0.07960  0.06380  Biso   1.000  H
  H170     1.0000 0.17040  0.20090  0.81380  Biso   1.000  H
  H171     1.0000 0.32960  0.79910  0.31380  Biso   1.000  H
  H172     1.0000 0.54910  0.42040  0.06380  Biso   1.000  H
  H173     1.0000 0.95090  0.57960  0.56380  Biso   1.000  H
  H174     1.0000 0.67040  0.70090  0.31380  Biso   1.000  H
  H175     1.0000 0.82960  0.29910  0.81380  Biso   1.000  H
  H176     1.0000 0.04910  0.92040  0.56380  Biso   1.000  H
  H177     1.0000 0.62790  0.97940  0.94430  Biso   1.000  H
  H178     1.0000 0.27060  0.37790  0.69430  Biso   1.000  H
  H179     1.0000 0.22940  0.62210  0.19430  Biso   1.000  H
  H180     1.0000 0.37210  0.52060  0.94430  Biso   1.000  H
  H181     1.0000 0.12790  0.47940  0.44430  Biso   1.000  H
  H182     1.0000 0.77060  0.87790  0.19430  Biso   1.000  H
  H183     1.0000 0.72940  0.12210  0.69430  Biso   1.000  H
  H184     1.0000 0.87210  0.02060  0.44430  Biso   1.000  H
  H185     1.0000 0.37210  0.02060  0.05570  Biso   1.000  H
  H186     1.0000 0.22940  0.12210  0.80570  Biso   1.000  H
  H187     1.0000 0.27060  0.87790  0.30570  Biso   1.000  H
  H188     1.0000 0.62790  0.47940  0.05570  Biso   1.000  H
  H189     1.0000 0.87210  0.52060  0.55570  Biso   1.000  H
  H190     1.0000 0.72940  0.62210  0.30570  Biso   1.000  H
  H191     1.0000 0.77060  0.37790  0.80570  Biso   1.000  H
  H192     1.0000 0.12790  0.97940  0.55570  Biso   1.000  H
