data_image0
_cell_length_a       9.8756
_cell_length_b       10.1142
_cell_length_c       11.6938
_cell_angle_alpha    112.73
_cell_angle_beta     92.46
_cell_angle_gamma    112.28

_symmetry_space_group_name_H-M    "P 1"
_symmetry_int_tables_number       1

loop_
  _symmetry_equiv_pos_as_xyz
  'x, y, z'

loop_
  _atom_site_label
  _atom_site_occupancy
  _atom_site_fract_x
  _atom_site_fract_y
  _atom_site_fract_z
  _atom_site_thermal_displace_type
  _atom_site_B_iso_or_equiv
  _atom_site_type_symbol
  Cu1      1.0000 0.05248  0.08284  0.19429  Biso   1.000  Cu
  Cu2      1.0000 0.94752  0.91716  0.80571  Biso   1.000  Cu
  O1       1.0000 0.08431  0.88421  0.10100  Biso   1.000  O
  O2       1.0000 0.91569  0.11579  0.89900  Biso   1.000  O
  O3       1.0000 0.26940  0.11858  0.20963  Biso   1.000  O
  O4       1.0000 0.73060  0.88142  0.79037  Biso   1.000  O
  O5       1.0000 0.15670  0.01115  0.88022  Biso   1.000  O
  O6       1.0000 0.84330  0.98885  0.11978  Biso   1.000  O
  O7       1.0000 0.21900  0.88043  0.70254  Biso   1.000  O
  O8       1.0000 0.78100  0.11957  0.29746  Biso   1.000  O
  O9       1.0000 0.11661  0.85308  0.41625  Biso   1.000  O
  O10      1.0000 0.88339  0.14692  0.58375  Biso   1.000  O
  N1       1.0000 0.09810  0.31233  0.25457  Biso   1.000  N
  N2       1.0000 0.90190  0.68767  0.74543  Biso   1.000  N
  C1       1.0000 0.66580  0.09500  0.90452  Biso   1.000  C
  C2       1.0000 0.33420  0.90500  0.09548  Biso   1.000  C
  C3       1.0000 0.51490  0.00700  0.84493  Biso   1.000  C
  C4       1.0000 0.48510  0.99300  0.15507  Biso   1.000  C
  H1       1.0000 0.48120  0.90450  0.77620  Biso   1.000  H
  H2       1.0000 0.51880  0.09550  0.22380  Biso   1.000  H
  C5       1.0000 0.41320  0.06960  0.88634  Biso   1.000  C
  C6       1.0000 0.58680  0.93040  0.11366  Biso   1.000  C
  C7       1.0000 0.61370  0.30810  0.05137  Biso   1.000  C
  C8       1.0000 0.38630  0.69190  0.94863  Biso   1.000  C
  C9       1.0000 0.71470  0.24490  0.00564  Biso   1.000  C
  C10      1.0000 0.28530  0.75510  0.99436  Biso   1.000  C
  H3       1.0000 0.81870  0.30530  0.04430  Biso   1.000  H
  H4       1.0000 0.18130  0.69470  0.95570  Biso   1.000  H
  C11      1.0000 0.67270  0.47130  0.16630  Biso   1.000  C
  C12      1.0000 0.32730  0.52870  0.83370  Biso   1.000  C
  C13      1.0000 0.74940  0.46610  0.27980  Biso   1.000  C
  C14      1.0000 0.25060  0.53390  0.72020  Biso   1.000  C
  H5       1.0000 0.67650  0.38720  0.30170  Biso   1.000  H
  H6       1.0000 0.32350  0.61280  0.69830  Biso   1.000  H
  H7       1.0000 0.83200  0.43700  0.25760  Biso   1.000  H
  H8       1.0000 0.16800  0.56300  0.74240  Biso   1.000  H
  H9       1.0000 0.78890  0.57080  0.35270  Biso   1.000  H
  H10      1.0000 0.21110  0.42920  0.64730  Biso   1.000  H
  C15      1.0000 0.78870  0.59800  0.13420  Biso   1.000  C
  C16      1.0000 0.21130  0.40200  0.86580  Biso   1.000  C
  H11      1.0000 0.74030  0.60330  0.06210  Biso   1.000  H
  H12      1.0000 0.25970  0.39670  0.93790  Biso   1.000  H
  H13      1.0000 0.82780  0.70160  0.20820  Biso   1.000  H
  H14      1.0000 0.17220  0.29840  0.79180  Biso   1.000  H
  H15      1.0000 0.87150  0.56930  0.11190  Biso   1.000  H
  H16      1.0000 0.12850  0.43070  0.88810  Biso   1.000  H
  C17      1.0000 0.25060  0.97700  0.81520  Biso   1.000  C
  C18      1.0000 0.74940  0.02300  0.18480  Biso   1.000  C
  C19      1.0000 0.22440  0.97200  0.13708  Biso   1.000  C
  C20      1.0000 0.77560  0.02800  0.86292  Biso   1.000  C
  C21      1.0000 0.11810  0.40530  0.37840  Biso   1.000  C
  C22      1.0000 0.88190  0.59470  0.62160  Biso   1.000  C
  H17      1.0000 0.10440  0.35860  0.43610  Biso   1.000  H
  H18      1.0000 0.89560  0.64140  0.56390  Biso   1.000  H
  C23      1.0000 0.15780  0.56610  0.42530  Biso   1.000  C
  C24      1.0000 0.84220  0.43390  0.57470  Biso   1.000  C
  H19      1.0000 0.17030  0.62840  0.51350  Biso   1.000  H
  H20      1.0000 0.82970  0.37160  0.48650  Biso   1.000  H
  C25      1.0000 0.15780  0.53940  0.21370  Biso   1.000  C
  C26      1.0000 0.84220  0.46060  0.78630  Biso   1.000  C
  H21      1.0000 0.17100  0.58330  0.15410  Biso   1.000  H
  H22      1.0000 0.82900  0.41670  0.84590  Biso   1.000  H
  C27      1.0000 0.11720  0.37900  0.17420  Biso   1.000  C
  C28      1.0000 0.88280  0.62100  0.82580  Biso   1.000  C
  H23      1.0000 0.10230  0.31380  0.08630  Biso   1.000  H
  H24      1.0000 0.89770  0.68620  0.91370  Biso   1.000  H
  C29      1.0000 0.41410  0.08050  0.47770  Biso   1.000  C
  C30      1.0000 0.58590  0.91950  0.52230  Biso   1.000  C
  H25      1.0000 0.32720  0.10660  0.49030  Biso   1.000  H
  H26      1.0000 0.67280  0.89340  0.50970  Biso   1.000  H
  H27      1.0000 0.46990  0.13120  0.42620  Biso   1.000  H
  H28      1.0000 0.53010  0.86880  0.57380  Biso   1.000  H
  N3       1.0000 0.36180  0.90750  0.41130  Biso   1.000  N
  N4       1.0000 0.63820  0.09250  0.58870  Biso   1.000  N
  C31      1.0000 0.48450  0.85820  0.39480  Biso   1.000  C
  C32      1.0000 0.51550  0.14180  0.60520  Biso   1.000  C
  H29      1.0000 0.54380  0.90000  0.34030  Biso   1.000  H
  H30      1.0000 0.45620  0.10000  0.65970  Biso   1.000  H
  H31      1.0000 0.44220  0.74090  0.35180  Biso   1.000  H
  H32      1.0000 0.55780  0.25910  0.64820  Biso   1.000  H
  C33      1.0000 0.17890  0.63470  0.34180  Biso   1.000  C
  C34      1.0000 0.82110  0.36530  0.65820  Biso   1.000  C
  C35      1.0000 0.21780  0.80940  0.39291  Biso   1.000  C
  C36      1.0000 0.78220  0.19060  0.60709  Biso   1.000  C
  C37      1.0000 0.54800  0.52130  0.20370  Biso   1.000  C
  C38      1.0000 0.45200  0.47870  0.79630  Biso   1.000  C
  H33      1.0000 0.47300  0.44220  0.22420  Biso   1.000  H
  H34      1.0000 0.52700  0.55780  0.77580  Biso   1.000  H
  H35      1.0000 0.59020  0.62470  0.27820  Biso   1.000  H
  H36      1.0000 0.40980  0.37530  0.72180  Biso   1.000  H
  H37      1.0000 0.50050  0.52920  0.13280  Biso   1.000  H
  H38      1.0000 0.49950  0.47080  0.86720  Biso   1.000  H
  C39      1.0000 0.46290  0.21770  0.99062  Biso   1.000  C
  C40      1.0000 0.53710  0.78230  0.00938  Biso   1.000  C
  H39      1.0000 0.39200  0.25760  0.02080  Biso   1.000  H
  H40      1.0000 0.60800  0.74240  0.97920  Biso   1.000  H
  O11      1.0000 0.04576  0.07698  0.38099  Biso   1.000  O
  O12      1.0000 0.95424  0.92302  0.61901  Biso   1.000  O
  H41      1.0000 0.05600  0.00100  0.38700  Biso   1.000  H
  H42      1.0000 0.94400  0.99900  0.61300  Biso   1.000  H
  H43      1.0000 0.97400  0.08500  0.41200  Biso   1.000  H
  H44      1.0000 0.02600  0.91500  0.58800  Biso   1.000  H
