data_image0
_cell_length_a       7.9501
_cell_length_b       11.7386
_cell_length_c       15.1027
_cell_angle_alpha    104.298
_cell_angle_beta     102.913
_cell_angle_gamma    97.476

_symmetry_space_group_name_H-M    "P 1"
_symmetry_int_tables_number       1

loop_
  _symmetry_equiv_pos_as_xyz
  'x, y, z'

loop_
  _atom_site_label
  _atom_site_occupancy
  _atom_site_fract_x
  _atom_site_fract_y
  _atom_site_fract_z
  _atom_site_thermal_displace_type
  _atom_site_B_iso_or_equiv
  _atom_site_type_symbol
  Cu1      1.0000 0.62283  0.08922  0.24490  Biso   1.000  Cu
  Cu2      1.0000 0.13764  0.60261  0.28814  Biso   1.000  Cu
  S1       1.0000 0.25424  0.19457  0.76127  Biso   1.000  S
  O1       1.0000 0.69470  0.98750  0.14070  Biso   1.000  O
  O2       1.0000 0.09720  0.46560  0.81070  Biso   1.000  O
  O3       1.0000 0.74260  0.84250  0.20930  Biso   1.000  O
  O4       1.0000 0.32260  0.86210  0.78620  Biso   1.000  O
  O5       1.0000 0.15090  0.82420  0.22090  Biso   1.000  O
  O6       1.0000 0.97970  0.64460  0.18540  Biso   1.000  O
  O7       1.0000 0.31680  0.18880  0.85980  Biso   1.000  O
  O8       1.0000 0.24140  0.07420  0.69530  Biso   1.000  O
  O9       1.0000 0.07920  0.22670  0.74560  Biso   1.000  O
  O10      1.0000 0.38100  0.28250  0.74390  Biso   1.000  O
  O11      1.0000 0.50660  0.93300  0.29340  Biso   1.000  O
  H1       1.0000 0.40100  0.90200  0.26200  Biso   1.000  H
  H2       1.0000 0.57500  0.89800  0.26300  Biso   1.000  H
  O12      1.0000 0.98030  0.41150  0.24130  Biso   1.000  O
  H3       1.0000 0.89600  0.39800  0.26600  Biso   1.000  H
  H4       1.0000 0.06000  0.38400  0.27200  Biso   1.000  H
  O13      1.0000 0.30120  0.38510  0.32380  Biso   1.000  O
  O14      1.0000 0.69500  0.36700  0.31200  Biso   1.000  O
  O15      1.0000 0.32330  0.58120  0.39080  Biso   1.000  O
  O16      1.0000 0.57760  0.20860  0.34970  Biso   1.000  O
  N1       1.0000 0.40170  0.09060  0.15080  Biso   1.000  N
  N2       1.0000 0.87490  0.21370  0.96240  Biso   1.000  N
  N3       1.0000 0.60850  0.35860  0.96010  Biso   1.000  N
  H5       1.0000 0.51700  0.30500  0.91700  Biso   1.000  H
  N4       1.0000 0.28140  0.55660  0.19540  Biso   1.000  N
  N5       1.0000 0.01440  0.67190  0.38490  Biso   1.000  N
  N6       1.0000 0.68070  0.92770  0.57900  Biso   1.000  N
  N7       1.0000 0.42680  0.08210  0.56840  Biso   1.000  N
  H6       1.0000 0.36000  0.06100  0.60400  Biso   1.000  H
  N8       1.0000 0.86050  0.10590  0.33210  Biso   1.000  N
  C1       1.0000 0.87780  0.10890  0.42290  Biso   1.000  C
  H7       1.0000 0.77380  0.09720  0.44340  Biso   1.000  H
  C2       1.0000 0.00900  0.12020  0.30390  Biso   1.000  C
  H8       1.0000 0.99970  0.11680  0.23950  Biso   1.000  H
  C3       1.0000 0.03690  0.12780  0.48820  Biso   1.000  C
  H9       1.0000 0.04220  0.12820  0.55170  Biso   1.000  H
  C4       1.0000 0.19070  0.14640  0.45960  Biso   1.000  C
  C5       1.0000 0.17500  0.13950  0.36520  Biso   1.000  C
  H10      1.0000 0.27690  0.14790  0.34260  Biso   1.000  H
  C6       1.0000 0.37270  0.17920  0.52660  Biso   1.000  C
  H11      1.0000 0.45850  0.20120  0.49230  Biso   1.000  H
  H12      1.0000 0.37820  0.25080  0.57890  Biso   1.000  H
  C7       1.0000 0.40540  0.96600  0.49300  Biso   1.000  C
  H13      1.0000 0.45630  0.98220  0.44220  Biso   1.000  H
  H14      1.0000 0.27850  0.93160  0.46470  Biso   1.000  H
  C8       1.0000 0.49480  0.87560  0.53240  Biso   1.000  C
  H15      1.0000 0.43630  0.85240  0.57850  Biso   1.000  H
  H16      1.0000 0.48430  0.80260  0.48020  Biso   1.000  H
  C9       1.0000 0.61530  0.12680  0.62750  Biso   1.000  C
  H17      1.0000 0.62000  0.19400  0.68310  Biso   1.000  H
  H18      1.0000 0.68670  0.15770  0.58940  Biso   1.000  H
  C10      1.0000 0.69370  0.02870  0.66130  Biso   1.000  C
  H19      1.0000 0.81860  0.05990  0.69710  Biso   1.000  H
  H20      1.0000 0.62930  0.00190  0.70390  Biso   1.000  H
  C11      1.0000 0.78600  0.84140  0.60460  Biso   1.000  C
  H21      1.0000 0.71280  0.78110  0.62300  Biso   1.000  H
  H22      1.0000 0.88620  0.88390  0.66020  Biso   1.000  H
  C12      1.0000 0.85540  0.77840  0.52520  Biso   1.000  C
  C13      1.0000 0.93920  0.68320  0.53170  Biso   1.000  C
  H23      1.0000 0.94320  0.65200  0.58440  Biso   1.000  H
  C14      1.0000 0.84670  0.81410  0.44370  Biso   1.000  C
  H24      1.0000 0.78450  0.87560  0.43360  Biso   1.000  H
  C15      1.0000 0.01700  0.63340  0.46220  Biso   1.000  C
  H25      1.0000 0.07500  0.56910  0.46910  Biso   1.000  H
  C16      1.0000 0.92850  0.76050  0.37680  Biso   1.000  C
  H26      1.0000 0.92290  0.78830  0.32250  Biso   1.000  H
  C17      1.0000 0.32100  0.99570  0.07600  Biso   1.000  C
  H27      1.0000 0.36880  0.92490  0.06850  Biso   1.000  H
  C18      1.0000 0.17020  0.99670  0.00900  Biso   1.000  C
  H28      1.0000 0.11730  0.92730  0.95710  Biso   1.000  H
  C19      1.0000 0.32820  0.18800  0.16040  Biso   1.000  C
  H29      1.0000 0.38170  0.25570  0.21370  Biso   1.000  H
  C20      1.0000 0.17800  0.19410  0.09610  Biso   1.000  C
  H30      1.0000 0.13030  0.26490  0.10620  Biso   1.000  H
  C21      1.0000 0.09660  0.09770  0.01710  Biso   1.000  C
  C22      1.0000 0.94890  0.10620  0.93910  Biso   1.000  C
  H31      1.0000 0.99220  0.10420  0.88230  Biso   1.000  H
  H32      1.0000 0.85400  0.03500  0.92270  Biso   1.000  H
  C23      1.0000 0.78870  0.24000  0.87540  Biso   1.000  C
  H33      1.0000 0.68450  0.17610  0.83940  Biso   1.000  H
  H34      1.0000 0.87100  0.24220  0.83510  Biso   1.000  H
  C24      1.0000 0.74660  0.20280  0.01780  Biso   1.000  C
  H35      1.0000 0.80130  0.18150  0.07560  Biso   1.000  H
  H36      1.0000 0.64450  0.13820  0.97980  Biso   1.000  H
  C25      1.0000 0.68460  0.32100  0.04570  Biso   1.000  C
  H37      1.0000 0.59460  0.31170  0.08060  Biso   1.000  H
  H38      1.0000 0.78510  0.38390  0.08820  Biso   1.000  H
  C26      1.0000 0.73290  0.35860  0.89960  Biso   1.000  C
  H39      1.0000 0.83790  0.42260  0.93340  Biso   1.000  H
  H40      1.0000 0.67550  0.37600  0.84040  Biso   1.000  H
  C27      1.0000 0.20060  0.48960  0.10730  Biso   1.000  C
  H41      1.0000 0.07720  0.46120  0.09210  Biso   1.000  H
  C28      1.0000 0.28350  0.45890  0.03670  Biso   1.000  C
  H42      1.0000 0.21990  0.40950  0.97510  Biso   1.000  H
  C29      1.0000 0.46310  0.50210  0.05800  Biso   1.000  C
  C30      1.0000 0.55160  0.56980  0.15150  Biso   1.000  C
  H43      1.0000 0.67540  0.59770  0.16930  Biso   1.000  H
  C31      1.0000 0.45580  0.59480  0.21630  Biso   1.000  C
  H44      1.0000 0.51600  0.64150  0.27920  Biso   1.000  H
  C32      1.0000 0.56360  0.48130  0.98370  Biso   1.000  C
  H45      1.0000 0.49290  0.49340  0.92510  Biso   1.000  H
  H46      1.0000 0.67410  0.54210  0.00610  Biso   1.000  H
  C33      1.0000 0.74560  0.88900  0.14500  Biso   1.000  C
  C34      1.0000 0.80520  0.82510  0.06200  Biso   1.000  C
  C35      1.0000 0.02790  0.74290  0.16840  Biso   1.000  C
  C36      1.0000 0.93170  0.75380  0.07280  Biso   1.000  C
  C37      1.0000 0.97600  0.69070  0.99260  Biso   1.000  C
  H47      1.0000 0.06440  0.64390  0.99970  Biso   1.000  H
  C38      1.0000 0.89310  0.69540  0.90320  Biso   1.000  C
  H48      1.0000 0.92370  0.65130  0.84930  Biso   1.000  H
  C39      1.0000 0.76520  0.76440  0.89220  Biso   1.000  C
  H49      1.0000 0.70580  0.76640  0.83080  Biso   1.000  H
  C40      1.0000 0.72490  0.83050  0.97160  Biso   1.000  C
  H50      1.0000 0.64100  0.88050  0.96420  Biso   1.000  H
  C41      1.0000 0.62360  0.52980  0.64190  Biso   1.000  C
  H51      1.0000 0.62000  0.57320  0.70330  Biso   1.000  H
  C42      1.0000 0.74520  0.45510  0.63140  Biso   1.000  C
  H52      1.0000 0.82610  0.44830  0.68570  Biso   1.000  H
  C43      1.0000 0.50830  0.54000  0.56210  Biso   1.000  C
  H53      1.0000 0.42750  0.59230  0.56950  Biso   1.000  H
  C44      1.0000 0.62750  0.39790  0.46100  Biso   1.000  C
  C45      1.0000 0.74720  0.39070  0.54120  Biso   1.000  C
  H54      1.0000 0.83140  0.34100  0.53420  Biso   1.000  H
  C46      1.0000 0.50790  0.47580  0.47190  Biso   1.000  C
  C47      1.0000 0.36800  0.48090  0.38780  Biso   1.000  C
  C48      1.0000 0.63440  0.32200  0.36590  Biso   1.000  C
  O17      1.0000 0.43460  0.95470  0.83320  Biso   1.000  O
