data_image0
_cell_length_a       7.97
_cell_length_b       11.722
_cell_length_c       14.42
_cell_angle_alpha    77.851
_cell_angle_beta     78.39
_cell_angle_gamma    83.092

_symmetry_space_group_name_H-M    "P 1"
_symmetry_int_tables_number       1

loop_
  _symmetry_equiv_pos_as_xyz
  'x, y, z'

loop_
  _atom_site_label
  _atom_site_occupancy
  _atom_site_fract_x
  _atom_site_fract_y
  _atom_site_fract_z
  _atom_site_thermal_displace_type
  _atom_site_B_iso_or_equiv
  _atom_site_type_symbol
  Cu1      1.0000 0.22513  0.30664  0.28735  Biso   1.000  Cu
  Cu2      1.0000 0.69858  0.80243  0.33816  Biso   1.000  Cu
  O1       1.0000 0.52900  0.71930  0.44110  Biso   1.000  O
  O2       1.0000 0.47650  0.62420  0.91930  Biso   1.000  O
  O3       1.0000 0.64290  0.36330  0.78350  Biso   1.000  O
  O4       1.0000 0.53890  0.56330  0.37330  Biso   1.000  O
  O5       1.0000 0.41960  0.75030  0.79650  Biso   1.000  O
  O6       1.0000 0.28500  0.36650  0.39530  Biso   1.000  O
  O7       1.0000 0.62810  0.61570  0.77760  Biso   1.000  O
  O8       1.0000 0.15230  0.53850  0.34480  Biso   1.000  O
  O9       1.0000 0.74230  0.90190  0.85930  Biso   1.000  O
  O10      1.0000 0.34750  0.12110  0.34070  Biso   1.000  O
  H1       1.0000 0.26800  0.09600  0.31900  Biso   1.000  H
  H2       1.0000 0.44400  0.09400  0.31400  Biso   1.000  H
  O11      1.0000 0.50880  0.01610  0.84740  Biso   1.000  O
  O12      1.0000 0.84990  0.64160  0.29080  Biso   1.000  O
  H3       1.0000 0.76800  0.59700  0.31400  Biso   1.000  H
  H4       1.0000 0.94600  0.60800  0.30400  Biso   1.000  H
  O13      1.0000 0.70930  0.01220  0.72130  Biso   1.000  O
  O14      1.0000 0.68920  0.06760  0.26340  Biso   1.000  O
  O15      1.0000 0.13820  0.26740  0.18140  Biso   1.000  O
  O16      1.0000 0.84340  0.90440  0.23290  Biso   1.000  O
  O17      1.0000 0.10110  0.08180  0.25290  Biso   1.000  O
  N1       1.0000 0.54280  0.81040  0.24510  Biso   1.000  N
  N2       1.0000 0.18560  0.74770  0.00400  Biso   1.000  N
  H5       1.0000 0.28000  0.70800  0.97700  Biso   1.000  H
  N3       1.0000 0.92910  0.59710  0.00150  Biso   1.000  N
  N4       1.0000 0.43590  0.36320  0.19550  Biso   1.000  N
  N5       1.0000 0.83270  0.81810  0.44150  Biso   1.000  N
  N6       1.0000 0.20210  0.97560  0.62980  Biso   1.000  N
  N7       1.0000 0.46760  0.12580  0.62110  Biso   1.000  N
  H6       1.0000 0.51200  0.09100  0.67400  Biso   1.000  H
  N8       1.0000 0.00140  0.27230  0.37740  Biso   1.000  N
  N9       1.0000 0.50790  0.66210  0.83030  Biso   1.000  N
  N10      1.0000 0.65160  0.97620  0.81190  Biso   1.000  N
  C1       1.0000 0.61280  0.79850  0.15540  Biso   1.000  C
  H7       1.0000 0.73380  0.78270  0.14000  Biso   1.000  H
  C2       1.0000 0.51530  0.80820  0.08180  Biso   1.000  C
  H8       1.0000 0.56850  0.79590  0.01920  Biso   1.000  H
  C3       1.0000 0.34140  0.83590  0.10380  Biso   1.000  C
  C4       1.0000 0.26710  0.84700  0.19820  Biso   1.000  C
  H9       1.0000 0.14660  0.86430  0.21530  Biso   1.000  H
  C5       1.0000 0.37090  0.83240  0.26590  Biso   1.000  C
  H10      1.0000 0.31910  0.83800  0.33030  Biso   1.000  H
  C6       1.0000 0.23070  0.85860  0.02910  Biso   1.000  C
  H11      1.0000 0.29060  0.90730  0.96980  Biso   1.000  H
  H12      1.0000 0.12300  0.90390  0.05240  Biso   1.000  H
  C7       1.0000 0.06000  0.77920  0.93890  Biso   1.000  C
  H13      1.0000 0.11180  0.83050  0.87880  Biso   1.000  H
  H14      1.0000 0.95820  0.82360  0.96990  Biso   1.000  H
  C8       1.0000 0.12090  0.66070  0.08950  Biso   1.000  C
  H15      1.0000 0.02460  0.69820  0.13070  Biso   1.000  H
  H16      1.0000 0.21350  0.63270  0.12740  Biso   1.000  H
  C9       1.0000 0.00350  0.67170  0.91420  Biso   1.000  C
  H17      1.0000 0.91790  0.69570  0.87120  Biso   1.000  H
  H18      1.0000 0.10350  0.62890  0.88010  Biso   1.000  H
  C10      1.0000 0.05950  0.55720  0.06170  Biso   1.000  C
  H19      1.0000 0.15790  0.51460  0.02610  Biso   1.000  H
  H20      1.0000 0.01080  0.50270  0.12060  Biso   1.000  H
  C11      1.0000 0.85290  0.49930  0.98100  Biso   1.000  C
  H21      1.0000 0.94500  0.43680  0.96860  Biso   1.000  H
  H22      1.0000 0.80420  0.52670  0.92140  Biso   1.000  H
  C12      1.0000 0.50220  0.46110  0.20170  Biso   1.000  C
  H23      1.0000 0.45170  0.50150  0.25230  Biso   1.000  H
  C13      1.0000 0.64290  0.50400  0.13540  Biso   1.000  C
  H24      1.0000 0.68940  0.57200  0.14230  Biso   1.000  H
  C14      1.0000 0.71600  0.44880  0.05960  Biso   1.000  C
  C15      1.0000 0.64600  0.34670  0.05570  Biso   1.000  C
  H25      1.0000 0.69310  0.30480  0.00550  Biso   1.000  H
  C16      1.0000 0.50990  0.30710  0.12400  Biso   1.000  C
  H26      1.0000 0.46580  0.23650  0.12070  Biso   1.000  H
  C17      1.0000 0.33680  0.57100  0.51800  Biso   1.000  C
  C18      1.0000 0.22010  0.49950  0.50170  Biso   1.000  C
  C19      1.0000 0.09730  0.45320  0.57870  Biso   1.000  C
  H27      1.0000 0.01480  0.40740  0.56840  Biso   1.000  H
  C20      1.0000 0.09340  0.47310  0.67110  Biso   1.000  C
  H28      1.0000 0.00800  0.44080  0.72280  Biso   1.000  H
  C21      1.0000 0.21360  0.53990  0.68860  Biso   1.000  C
  H29      1.0000 0.21530  0.55010  0.75200  Biso   1.000  H
  C22      1.0000 0.33080  0.59120  0.60960  Biso   1.000  C
  H30      1.0000 0.40860  0.64120  0.61920  Biso   1.000  H
  C23      1.0000 0.47660  0.61950  0.43870  Biso   1.000  C
  C24      1.0000 0.22180  0.47090  0.40520  Biso   1.000  C
  C25      1.0000 0.94380  0.90150  0.42290  Biso   1.000  C
  H31      1.0000 0.96020  0.94990  0.36050  Biso   1.000  H
  C26      1.0000 0.03300  0.92030  0.48750  Biso   1.000  C
  H32      1.0000 0.11010  0.98020  0.47020  Biso   1.000  H
  C27      1.0000 0.01210  0.85290  0.57830  Biso   1.000  C
  C28      1.0000 0.89530  0.76750  0.59990  Biso   1.000  C
  H33      1.0000 0.87460  0.71930  0.66220  Biso   1.000  H
  C29      1.0000 0.81100  0.75460  0.52930  Biso   1.000  C
  H34      1.0000 0.73190  0.69600  0.54460  Biso   1.000  H
  C30      1.0000 0.09950  0.87100  0.65830  Biso   1.000  C
  H35      1.0000 0.01080  0.88020  0.71570  Biso   1.000  H
  H36      1.0000 0.17640  0.80040  0.67660  Biso   1.000  H
  C31      1.0000 0.38150  0.94660  0.58400  Biso   1.000  C
  H37      1.0000 0.38280  0.90190  0.53270  Biso   1.000  H
  H38      1.0000 0.44530  0.89800  0.63260  Biso   1.000  H
  C32      1.0000 0.46470  0.05900  0.54160  Biso   1.000  C
  H39      1.0000 0.39980  0.10760  0.49340  Biso   1.000  H
  H40      1.0000 0.58360  0.04170  0.50840  Biso   1.000  H
  C33      1.0000 0.20810  0.02440  0.71330  Biso   1.000  C
  H41      1.0000 0.27480  0.96880  0.75690  Biso   1.000  H
  H42      1.0000 0.09020  0.03810  0.74930  Biso   1.000  H
  C34      1.0000 0.29250  0.13940  0.68020  Biso   1.000  C
  H43      1.0000 0.21920  0.19660  0.64160  Biso   1.000  H
  H44      1.0000 0.30080  0.17100  0.73740  Biso   1.000  H
  C35      1.0000 0.08590  0.16730  0.18650  Biso   1.000  C
  C36      1.0000 0.01490  0.15130  0.10160  Biso   1.000  C
  C37      1.0000 0.08280  0.20580  0.00880  Biso   1.000  C
  H45      1.0000 0.17100  0.25690  0.99980  Biso   1.000  H
  C38      1.0000 0.02640  0.18780  0.92930  Biso   1.000  C
  H46      1.0000 0.07670  0.22480  0.86630  Biso   1.000  H
  C39      1.0000 0.89440  0.11460  0.94220  Biso   1.000  C
  H47      1.0000 0.85310  0.10170  0.88820  Biso   1.000  H
  C40      1.0000 0.82400  0.06070  0.03510  Biso   1.000  C
  H48      1.0000 0.73290  0.01190  0.04380  Biso   1.000  H
  C41      1.0000 0.88250  0.07600  0.11540  Biso   1.000  C
  C42      1.0000 0.80110  0.01160  0.21240  Biso   1.000  C
  C43      1.0000 0.52880  0.24580  0.58260  Biso   1.000  C
  H49      1.0000 0.54320  0.28000  0.63750  Biso   1.000  H
  H50      1.0000 0.43890  0.29600  0.55120  Biso   1.000  H
  C44      1.0000 0.69540  0.24880  0.51120  Biso   1.000  C
  C45      1.0000 0.69570  0.30220  0.41480  Biso   1.000  C
  H51      1.0000 0.59040  0.33220  0.39410  Biso   1.000  H
  C46      1.0000 0.84790  0.31140  0.34980  Biso   1.000  C
  H52      1.0000 0.84570  0.34580  0.28420  Biso   1.000  H
  C47      1.0000 0.85100  0.20380  0.53620  Biso   1.000  C
  H53      1.0000 0.85590  0.16270  0.60000  Biso   1.000  H
  C48      1.0000 0.00110  0.21860  0.46810  Biso   1.000  C
  H54      1.0000 0.10780  0.18900  0.48720  Biso   1.000  H
  O18      1.0000 0.50000  0.33000  0.83700  Biso   1.000  O
