data_image0
_cell_length_a       7.642
_cell_length_b       8.378
_cell_length_c       13.35
_cell_angle_alpha    72.398
_cell_angle_beta     87.327
_cell_angle_gamma    72.126

_symmetry_space_group_name_H-M    "P 1"
_symmetry_int_tables_number       1

loop_
  _symmetry_equiv_pos_as_xyz
  'x, y, z'

loop_
  _atom_site_label
  _atom_site_occupancy
  _atom_site_fract_x
  _atom_site_fract_y
  _atom_site_fract_z
  _atom_site_thermal_displace_type
  _atom_site_B_iso_or_equiv
  _atom_site_type_symbol
  Cu1      1.0000 0.50000  0.50000  0.50000  Biso   1.000  Cu
  C1       1.0000 0.67970  0.10080  0.48750  Biso   1.000  C
  C2       1.0000 0.32030  0.89920  0.51250  Biso   1.000  C
  C3       1.0000 0.66490  0.12890  0.58960  Biso   1.000  C
  C4       1.0000 0.33510  0.87110  0.41040  Biso   1.000  C
  C5       1.0000 0.89530  0.83770  0.66740  Biso   1.000  C
  C6       1.0000 0.10470  0.16230  0.33260  Biso   1.000  C
  C7       1.0000 0.90490  0.81950  0.56170  Biso   1.000  C
  C8       1.0000 0.09510  0.18050  0.43830  Biso   1.000  C
  C9       1.0000 0.79900  0.93950  0.47400  Biso   1.000  C
  C10      1.0000 0.20100  0.06050  0.52600  Biso   1.000  C
  C11      1.0000 0.73900  0.01100  0.78370  Biso   1.000  C
  C12      1.0000 0.26100  0.98900  0.21630  Biso   1.000  C
  H1       1.0000 0.67720  0.13330  0.77850  Biso   1.000  H
  H2       1.0000 0.32280  0.86670  0.22150  Biso   1.000  H
  H3       1.0000 0.85970  0.97760  0.81800  Biso   1.000  H
  H4       1.0000 0.14030  0.02240  0.18200  Biso   1.000  H
  C13      1.0000 0.62990  0.89880  0.85010  Biso   1.000  C
  C14      1.0000 0.37010  0.10120  0.14990  Biso   1.000  C
  H5       1.0000 0.50430  0.94420  0.82310  Biso   1.000  H
  H6       1.0000 0.49570  0.05580  0.17690  Biso   1.000  H
  H7       1.0000 0.63460  0.90080  0.92140  Biso   1.000  H
  H8       1.0000 0.36540  0.09920  0.07860  Biso   1.000  H
  H9       1.0000 0.68150  0.78000  0.84800  Biso   1.000  H
  H10      1.0000 0.31850  0.22000  0.15200  Biso   1.000  H
  C15      1.0000 0.04840  0.66780  0.55060  Biso   1.000  C
  C16      1.0000 0.95160  0.33220  0.44940  Biso   1.000  C
  C17      1.0000 0.81020  0.91130  0.36940  Biso   1.000  C
  C18      1.0000 0.18980  0.08870  0.63060  Biso   1.000  C
  H11      1.0000 0.92400  0.82310  0.36670  Biso   1.000  H
  H12      1.0000 0.07600  0.17690  0.63330  Biso   1.000  H
  H13      1.0000 0.80510  0.01940  0.31590  Biso   1.000  H
  H14      1.0000 0.19490  0.98060  0.68410  Biso   1.000  H
  H15      1.0000 0.70890  0.87300  0.35760  Biso   1.000  H
  H16      1.0000 0.29110  0.12700  0.64240  Biso   1.000  H
  C19      1.0000 0.41360  0.47590  0.28910  Biso   1.000  C
  C20      1.0000 0.58640  0.52410  0.71090  Biso   1.000  C
  C21      1.0000 0.22400  0.54740  0.27130  Biso   1.000  C
  C22      1.0000 0.77600  0.45260  0.72870  Biso   1.000  C
  H17      1.0000 0.14730  0.53510  0.32730  Biso   1.000  H
  H18      1.0000 0.85270  0.46490  0.67270  Biso   1.000  H
  C23      1.0000 0.14940  0.63720  0.16970  Biso   1.000  C
  C24      1.0000 0.85060  0.36280  0.83030  Biso   1.000  C
  C25      1.0000 0.26310  0.65930  0.08730  Biso   1.000  C
  C26      1.0000 0.73690  0.34070  0.91270  Biso   1.000  C
  C27      1.0000 0.45240  0.59170  0.10450  Biso   1.000  C
  C28      1.0000 0.54760  0.40830  0.89550  Biso   1.000  C
  H19      1.0000 0.52860  0.60880  0.04850  Biso   1.000  H
  H20      1.0000 0.47140  0.39120  0.95150  Biso   1.000  H
  C29      1.0000 0.52770  0.49940  0.20470  Biso   1.000  C
  C30      1.0000 0.47230  0.50060  0.79530  Biso   1.000  C
  H21      1.0000 0.65480  0.45260  0.21630  Biso   1.000  H
  H22      1.0000 0.34520  0.54740  0.78370  Biso   1.000  H
  Cl1      1.0000 0.17370  0.76760  0.95900  Biso   1.000  Cl
  Cl2      1.0000 0.82630  0.23240  0.04100  Biso   1.000  Cl
  Cl3      1.0000 0.91370  0.72030  0.15020  Biso   1.000  Cl
  Cl4      1.0000 0.08630  0.27970  0.84980  Biso   1.000  Cl
  N1       1.0000 0.76140  0.99240  0.67520  Biso   1.000  N
  N2       1.0000 0.23860  0.00760  0.32480  Biso   1.000  N
  N3       1.0000 0.16630  0.55090  0.54210  Biso   1.000  N
  N4       1.0000 0.83370  0.44910  0.45790  Biso   1.000  N
  N5       1.0000 0.58430  0.21990  0.39940  Biso   1.000  N
  N6       1.0000 0.41570  0.78010  0.60060  Biso   1.000  N
  N7       1.0000 0.49140  0.37930  0.39500  Biso   1.000  N
  N8       1.0000 0.50860  0.62070  0.60500  Biso   1.000  N
  O1       1.0000 0.56570  0.26900  0.60650  Biso   1.000  O
  O2       1.0000 0.43430  0.73100  0.39350  Biso   1.000  O
  O3       1.0000 0.99190  0.73510  0.74050  Biso   1.000  O
  O4       1.0000 0.00810  0.26490  0.25950  Biso   1.000  O
