data_image0
_cell_length_a       10.5
_cell_length_b       14.588
_cell_length_c       11.537
_cell_angle_alpha    90
_cell_angle_beta     102.162
_cell_angle_gamma    90

_symmetry_space_group_name_H-M    "P 1"
_symmetry_int_tables_number       1

loop_
  _symmetry_equiv_pos_as_xyz
  'x, y, z'

loop_
  _atom_site_label
  _atom_site_occupancy
  _atom_site_fract_x
  _atom_site_fract_y
  _atom_site_fract_z
  _atom_site_thermal_displace_type
  _atom_site_B_iso_or_equiv
  _atom_site_type_symbol
  Cu1      1.0000 0.20725  0.92006  0.01306  Biso   1.000  Cu
  Cu2      1.0000 0.29275  0.42006  0.48694  Biso   1.000  Cu
  Cu3      1.0000 0.79275  0.07994  0.98694  Biso   1.000  Cu
  Cu4      1.0000 0.70725  0.57994  0.51306  Biso   1.000  Cu
  C1       1.0000 0.39430  0.83040  0.85270  Biso   1.000  C
  C2       1.0000 0.10570  0.33040  0.64730  Biso   1.000  C
  C3       1.0000 0.60570  0.16960  0.14730  Biso   1.000  C
  C4       1.0000 0.89430  0.66960  0.35270  Biso   1.000  C
  C5       1.0000 0.32540  0.76950  0.91800  Biso   1.000  C
  C6       1.0000 0.17460  0.26950  0.58200  Biso   1.000  C
  C7       1.0000 0.67460  0.23050  0.08200  Biso   1.000  C
  C8       1.0000 0.82540  0.73050  0.41800  Biso   1.000  C
  C9       1.0000 0.41040  0.63560  0.82850  Biso   1.000  C
  C10      1.0000 0.08960  0.13560  0.67150  Biso   1.000  C
  C11      1.0000 0.58960  0.36440  0.17150  Biso   1.000  C
  C12      1.0000 0.91040  0.86440  0.32850  Biso   1.000  C
  C13      1.0000 0.47570  0.69780  0.76860  Biso   1.000  C
  C14      1.0000 0.02430  0.19780  0.73140  Biso   1.000  C
  C15      1.0000 0.52430  0.30220  0.23140  Biso   1.000  C
  C16      1.0000 0.97570  0.80220  0.26860  Biso   1.000  C
  C17      1.0000 0.46860  0.79110  0.77890  Biso   1.000  C
  C18      1.0000 0.03140  0.29110  0.72110  Biso   1.000  C
  C19      1.0000 0.53140  0.20890  0.22110  Biso   1.000  C
  C20      1.0000 0.96860  0.70890  0.27890  Biso   1.000  C
  C21      1.0000 0.26200  0.61370  0.96630  Biso   1.000  C
  C22      1.0000 0.23800  0.11370  0.53370  Biso   1.000  C
  C23      1.0000 0.73800  0.38630  0.03370  Biso   1.000  C
  C24      1.0000 0.76200  0.88630  0.46630  Biso   1.000  C
  H1       1.0000 0.18030  0.64250  0.96800  Biso   1.000  H
  H2       1.0000 0.31970  0.14250  0.53200  Biso   1.000  H
  H3       1.0000 0.81970  0.35750  0.03200  Biso   1.000  H
  H4       1.0000 0.68030  0.85750  0.46800  Biso   1.000  H
  H5       1.0000 0.24290  0.55850  0.92060  Biso   1.000  H
  H6       1.0000 0.25710  0.05850  0.57940  Biso   1.000  H
  H7       1.0000 0.75710  0.44150  0.07940  Biso   1.000  H
  H8       1.0000 0.74290  0.94150  0.42060  Biso   1.000  H
  C25      1.0000 0.31760  0.59160  0.06790  Biso   1.000  C
  C26      1.0000 0.18240  0.09160  0.43210  Biso   1.000  C
  C27      1.0000 0.68240  0.40840  0.93210  Biso   1.000  C
  C28      1.0000 0.81760  0.90840  0.56790  Biso   1.000  C
  H9       1.0000 0.26300  0.55030  0.10050  Biso   1.000  H
  H10      1.0000 0.23700  0.05030  0.39950  Biso   1.000  H
  H11      1.0000 0.73700  0.44970  0.89950  Biso   1.000  H
  H12      1.0000 0.76300  0.94970  0.60050  Biso   1.000  H
  H13      1.0000 0.33430  0.64540  0.11670  Biso   1.000  H
  H14      1.0000 0.16570  0.14540  0.38330  Biso   1.000  H
  H15      1.0000 0.66570  0.35460  0.88330  Biso   1.000  H
  H16      1.0000 0.83430  0.85460  0.61670  Biso   1.000  H
  H17      1.0000 0.39850  0.56180  0.06540  Biso   1.000  H
  H18      1.0000 0.10150  0.06180  0.43460  Biso   1.000  H
  H19      1.0000 0.60150  0.43820  0.93460  Biso   1.000  H
  H20      1.0000 0.89850  0.93820  0.56540  Biso   1.000  H
  C29      1.0000 0.55070  0.65590  0.69080  Biso   1.000  C
  C30      1.0000 0.94930  0.15590  0.80920  Biso   1.000  C
  C31      1.0000 0.44930  0.34410  0.30920  Biso   1.000  C
  C32      1.0000 0.05070  0.84410  0.19080  Biso   1.000  C
  C33      1.0000 0.54130  0.85410  0.70830  Biso   1.000  C
  C34      1.0000 0.95870  0.35410  0.79170  Biso   1.000  C
  C35      1.0000 0.45870  0.14590  0.29170  Biso   1.000  C
  C36      1.0000 0.04130  0.64590  0.20830  Biso   1.000  C
  H21      1.0000 0.63310  0.84220  0.73070  Biso   1.000  H
  H22      1.0000 0.86690  0.34220  0.76930  Biso   1.000  H
  H23      1.0000 0.36690  0.15780  0.26930  Biso   1.000  H
  H24      1.0000 0.13310  0.65780  0.23070  Biso   1.000  H
  H25      1.0000 0.52460  0.91690  0.72490  Biso   1.000  H
  H26      1.0000 0.97540  0.41690  0.77510  Biso   1.000  H
  H27      1.0000 0.47540  0.08310  0.27510  Biso   1.000  H
  H28      1.0000 0.02460  0.58310  0.22490  Biso   1.000  H
  H29      1.0000 0.51170  0.84250  0.62510  Biso   1.000  H
  H30      1.0000 0.98830  0.34250  0.87490  Biso   1.000  H
  H31      1.0000 0.48830  0.15750  0.37490  Biso   1.000  H
  H32      1.0000 0.01170  0.65750  0.12510  Biso   1.000  H
  C37      1.0000 0.33410  0.06150  0.92460  Biso   1.000  C
  C38      1.0000 0.16590  0.56150  0.57540  Biso   1.000  C
  C39      1.0000 0.66590  0.93850  0.07540  Biso   1.000  C
  C40      1.0000 0.83410  0.43850  0.42460  Biso   1.000  C
  C41      1.0000 0.25990  0.10190  0.99500  Biso   1.000  C
  C42      1.0000 0.24010  0.60190  0.50500  Biso   1.000  C
  C43      1.0000 0.74010  0.89810  0.00500  Biso   1.000  C
  C44      1.0000 0.75990  0.39810  0.49500  Biso   1.000  C
  C45      1.0000 0.25650  0.19620  0.00150  Biso   1.000  C
  C46      1.0000 0.24350  0.69620  0.49850  Biso   1.000  C
  C47      1.0000 0.74350  0.80380  0.99850  Biso   1.000  C
  C48      1.0000 0.75650  0.30380  0.50150  Biso   1.000  C
  C49      1.0000 0.32470  0.24780  0.93530  Biso   1.000  C
  C50      1.0000 0.17530  0.74780  0.56470  Biso   1.000  C
  C51      1.0000 0.67530  0.75220  0.06470  Biso   1.000  C
  C52      1.0000 0.82470  0.25220  0.43530  Biso   1.000  C
  C53      1.0000 0.39950  0.20660  0.86520  Biso   1.000  C
  C54      1.0000 0.10050  0.70660  0.63480  Biso   1.000  C
  C55      1.0000 0.60050  0.79340  0.13480  Biso   1.000  C
  C56      1.0000 0.89950  0.29340  0.36520  Biso   1.000  C
  H33      1.0000 0.44840  0.24270  0.82020  Biso   1.000  H
  H34      1.0000 0.05160  0.74270  0.67980  Biso   1.000  H
  H35      1.0000 0.55160  0.75730  0.17980  Biso   1.000  H
  H36      1.0000 0.94840  0.25730  0.32020  Biso   1.000  H
  C57      1.0000 0.40560  0.11350  0.86170  Biso   1.000  C
  C58      1.0000 0.09440  0.61350  0.63830  Biso   1.000  C
  C59      1.0000 0.59440  0.88650  0.13830  Biso   1.000  C
  C60      1.0000 0.90560  0.38650  0.36170  Biso   1.000  C
  H37      1.0000 0.45810  0.08500  0.81690  Biso   1.000  H
  H38      1.0000 0.04190  0.58500  0.68310  Biso   1.000  H
  H39      1.0000 0.54190  0.91500  0.18310  Biso   1.000  H
  H40      1.0000 0.95810  0.41500  0.31690  Biso   1.000  H
  Cl1      1.0000 0.16240  0.24970  0.08700  Biso   1.000  Cl
  Cl2      1.0000 0.33760  0.74970  0.41300  Biso   1.000  Cl
  Cl3      1.0000 0.83760  0.75030  0.91300  Biso   1.000  Cl
  Cl4      1.0000 0.66240  0.25030  0.58700  Biso   1.000  Cl
  Cl5      1.0000 0.31940  0.36571  0.94250  Biso   1.000  Cl
  Cl6      1.0000 0.18060  0.86571  0.55750  Biso   1.000  Cl
  Cl7      1.0000 0.68060  0.63429  0.05750  Biso   1.000  Cl
  Cl8      1.0000 0.81940  0.13429  0.44250  Biso   1.000  Cl
  N1       1.0000 0.33870  0.67670  0.90470  Biso   1.000  N
  N2       1.0000 0.16130  0.17670  0.59530  Biso   1.000  N
  N3       1.0000 0.66130  0.32330  0.09530  Biso   1.000  N
  N4       1.0000 0.83870  0.82330  0.40470  Biso   1.000  N
  N5       1.0000 0.61260  0.62280  0.63230  Biso   1.000  N
  N6       1.0000 0.88740  0.12280  0.86770  Biso   1.000  N
  N7       1.0000 0.38740  0.37720  0.36770  Biso   1.000  N
  N8       1.0000 0.11260  0.87720  0.13230  Biso   1.000  N
  N9       1.0000 0.39340  0.92350  0.85630  Biso   1.000  N
  N10      1.0000 0.10660  0.42350  0.64370  Biso   1.000  N
  N11      1.0000 0.60660  0.07650  0.14370  Biso   1.000  N
  N12      1.0000 0.89340  0.57650  0.35630  Biso   1.000  N
  N13      1.0000 0.32820  0.96360  0.92210  Biso   1.000  N
  N14      1.0000 0.17180  0.46360  0.57790  Biso   1.000  N
  N15      1.0000 0.67180  0.03640  0.07790  Biso   1.000  N
  N16      1.0000 0.82820  0.53640  0.42210  Biso   1.000  N
  O1       1.0000 0.25600  0.79510  0.98680  Biso   1.000  O
  O2       1.0000 0.24400  0.29510  0.51320  Biso   1.000  O
  O3       1.0000 0.74400  0.20490  0.01320  Biso   1.000  O
  O4       1.0000 0.75600  0.70490  0.48680  Biso   1.000  O
  O5       1.0000 0.41300  0.55210  0.82000  Biso   1.000  O
  O6       1.0000 0.08700  0.05210  0.68000  Biso   1.000  O
  O7       1.0000 0.58700  0.44790  0.18000  Biso   1.000  O
  O8       1.0000 0.91300  0.94790  0.32000  Biso   1.000  O
  O9       1.0000 0.19550  0.04900  0.05680  Biso   1.000  O
  O10      1.0000 0.30450  0.54900  0.44320  Biso   1.000  O
  O11      1.0000 0.80450  0.95100  0.94320  Biso   1.000  O
  O12      1.0000 0.69550  0.45100  0.55680  Biso   1.000  O
  O13      1.0000 0.03550  0.92230  0.85580  Biso   1.000  O
  O14      1.0000 0.46450  0.42230  0.64420  Biso   1.000  O
  O15      1.0000 0.96450  0.07770  0.14420  Biso   1.000  O
  O16      1.0000 0.53550  0.57770  0.35580  Biso   1.000  O
  H41      1.0000 0.97670  0.95710  0.87200  Biso   1.000  H
  H42      1.0000 0.52330  0.45710  0.62800  Biso   1.000  H
  H43      1.0000 0.02330  0.04290  0.12800  Biso   1.000  H
  H44      1.0000 0.47670  0.54290  0.37200  Biso   1.000  H
  H45      1.0000 0.00440  0.86860  0.84400  Biso   1.000  H
  H46      1.0000 0.49560  0.36860  0.65600  Biso   1.000  H
  H47      1.0000 0.99560  0.13140  0.15600  Biso   1.000  H
  H48      1.0000 0.50440  0.63140  0.34400  Biso   1.000  H
  C61      1.0000 0.16100  0.58600  0.94300  Biso   1.000  C
  C62      1.0000 0.33900  0.08600  0.55700  Biso   1.000  C
  C63      1.0000 0.83900  0.41400  0.05700  Biso   1.000  C
  C64      1.0000 0.66100  0.91400  0.44300  Biso   1.000  C
  Cl9      1.0000 0.46140  0.27120  0.78830  Biso   1.000  Cl
  Cl10     1.0000 0.03860  0.77120  0.71170  Biso   1.000  Cl
  Cl11     1.0000 0.53860  0.72880  0.21170  Biso   1.000  Cl
  Cl12     1.0000 0.96140  0.22880  0.28830  Biso   1.000  Cl
  H49      1.0000 0.20670  0.22630  0.05130  Biso   1.000  H
  H50      1.0000 0.29330  0.72630  0.44870  Biso   1.000  H
  H51      1.0000 0.79330  0.77370  0.94870  Biso   1.000  H
  H52      1.0000 0.70670  0.27370  0.55130  Biso   1.000  H
  H53      1.0000 0.15130  0.53930  0.99970  Biso   1.000  H
  H54      1.0000 0.34870  0.03930  0.50030  Biso   1.000  H
  H55      1.0000 0.84870  0.46070  0.00030  Biso   1.000  H
  H56      1.0000 0.65130  0.96070  0.49970  Biso   1.000  H
  H57      1.0000 0.14590  0.55980  0.86530  Biso   1.000  H
  H58      1.0000 0.35410  0.05980  0.63470  Biso   1.000  H
  H59      1.0000 0.85410  0.44020  0.13470  Biso   1.000  H
  H60      1.0000 0.64590  0.94020  0.36530  Biso   1.000  H
  H61      1.0000 0.10020  0.63430  0.94560  Biso   1.000  H
  H62      1.0000 0.39980  0.13430  0.55440  Biso   1.000  H
  H63      1.0000 0.89980  0.36570  0.05440  Biso   1.000  H
  H64      1.0000 0.60020  0.86570  0.44560  Biso   1.000  H
