data_image0
_cell_length_a       13.121
_cell_length_b       13.977
_cell_length_c       13.158
_cell_angle_alpha    90
_cell_angle_beta     110.18
_cell_angle_gamma    90

_symmetry_space_group_name_H-M    "P 1"
_symmetry_int_tables_number       1

loop_
  _symmetry_equiv_pos_as_xyz
  'x, y, z'

loop_
  _atom_site_label
  _atom_site_occupancy
  _atom_site_fract_x
  _atom_site_fract_y
  _atom_site_fract_z
  _atom_site_thermal_displace_type
  _atom_site_B_iso_or_equiv
  _atom_site_type_symbol
  Cu1      1.0000 0.20250  0.25350  0.04230  Biso   1.000  Cu
  Cu2      1.0000 0.79750  0.75350  0.95770  Biso   1.000  Cu
  Cu3      1.0000 0.33330  0.11520  0.02820  Biso   1.000  Cu
  Cu4      1.0000 0.66670  0.61520  0.97180  Biso   1.000  Cu
  O1       1.0000 0.20910  0.18750  0.17430  Biso   1.000  O
  O2       1.0000 0.79090  0.68750  0.82570  Biso   1.000  O
  C1       1.0000 0.28380  0.12430  0.22240  Biso   1.000  C
  C2       1.0000 0.71620  0.62430  0.77760  Biso   1.000  C
  O3       1.0000 0.34920  0.09110  0.18100  Biso   1.000  O
  O4       1.0000 0.65080  0.59110  0.81900  Biso   1.000  O
  C3       1.0000 0.28290  0.08680  0.32770  Biso   1.000  C
  C4       1.0000 0.71710  0.58680  0.67230  Biso   1.000  C
  N1       1.0000 0.39580  0.09200  0.41180  Biso   1.000  N
  N2       1.0000 0.60420  0.59200  0.58820  Biso   1.000  N
  C5       1.0000 0.44580  0.17960  0.44580  Biso   1.000  C
  C6       1.0000 0.55420  0.67960  0.55420  Biso   1.000  C
  O5       1.0000 0.40260  0.25470  0.39680  Biso   1.000  O
  O6       1.0000 0.59740  0.75470  0.60320  Biso   1.000  O
  C7       1.0000 0.54270  0.17220  0.52940  Biso   1.000  C
  C8       1.0000 0.45730  0.67220  0.47060  Biso   1.000  C
  Cl1      1.0000 0.64980  0.23990  0.50490  Biso   1.000  Cl
  Cl2      1.0000 0.35020  0.73990  0.49510  Biso   1.000  Cl
  C9       1.0000 0.25070  0.98390  0.31760  Biso   1.000  C
  C10      1.0000 0.74930  0.48390  0.68240  Biso   1.000  C
  C11      1.0000 0.13360  0.96490  0.23690  Biso   1.000  C
  C12      1.0000 0.86640  0.46490  0.76310  Biso   1.000  C
  C13      1.0000 0.11670  0.85490  0.22190  Biso   1.000  C
  C14      1.0000 0.88330  0.35490  0.77810  Biso   1.000  C
  C15      1.0000 0.04330  0.00990  0.26610  Biso   1.000  C
  C16      1.0000 0.95670  0.50990  0.73390  Biso   1.000  C
  O7       1.0000 0.21260  0.30250  0.90720  Biso   1.000  O
  O8       1.0000 0.78740  0.80250  0.09280  Biso   1.000  O
  C17      1.0000 0.25690  0.24520  0.85630  Biso   1.000  C
  C18      1.0000 0.74310  0.74520  0.14370  Biso   1.000  C
  O9       1.0000 0.29500  0.16880  0.88020  Biso   1.000  O
  O10      1.0000 0.70500  0.66880  0.11980  Biso   1.000  O
  C19      1.0000 0.23980  0.28460  0.73990  Biso   1.000  C
  C20      1.0000 0.76020  0.78460  0.26010  Biso   1.000  C
  N3       1.0000 0.26380  0.38930  0.74310  Biso   1.000  N
  N4       1.0000 0.73620  0.88930  0.25690  Biso   1.000  N
  C21      1.0000 0.34630  0.42360  0.71740  Biso   1.000  C
  C22      1.0000 0.65370  0.92360  0.28260  Biso   1.000  C
  O11      1.0000 0.41110  0.37690  0.68670  Biso   1.000  O
  O12      1.0000 0.58890  0.87690  0.31330  Biso   1.000  O
  C23      1.0000 0.36700  0.53180  0.72590  Biso   1.000  C
  C24      1.0000 0.63300  0.03180  0.27410  Biso   1.000  C
  Cl3      1.0000 0.26710  0.59570  0.75310  Biso   1.000  Cl
  Cl4      1.0000 0.73290  0.09570  0.24690  Biso   1.000  Cl
  C25      1.0000 0.12520  0.25220  0.66120  Biso   1.000  C
  C26      1.0000 0.87480  0.75220  0.33880  Biso   1.000  C
  C27      1.0000 0.10530  0.29430  0.54880  Biso   1.000  C
  C28      1.0000 0.89470  0.79430  0.45120  Biso   1.000  C
  C29      1.0000 0.17720  0.25090  0.49780  Biso   1.000  C
  C30      1.0000 0.82280  0.75090  0.50220  Biso   1.000  C
  C31      1.0000 0.97740  0.25560  0.48280  Biso   1.000  C
  C32      1.0000 0.02260  0.75560  0.51720  Biso   1.000  C
  O13      1.0000 0.08750  0.16770  0.95580  Biso   1.000  O
  O14      1.0000 0.91250  0.66770  0.04420  Biso   1.000  O
  C33      1.0000 0.10660  0.07930  0.94090  Biso   1.000  C
  C34      1.0000 0.89340  0.57930  0.05910  Biso   1.000  C
  O15      1.0000 0.19940  0.04120  0.97630  Biso   1.000  O
  O16      1.0000 0.80060  0.54120  0.02370  Biso   1.000  O
  C35      1.0000 0.00970  0.01680  0.88440  Biso   1.000  C
  C36      1.0000 0.99030  0.51680  0.11560  Biso   1.000  C
  N5       1.0000 0.04430  0.91760  0.88490  Biso   1.000  N
  N6       1.0000 0.95570  0.41760  0.11510  Biso   1.000  N
  C37      1.0000 0.99610  0.84820  0.91620  Biso   1.000  C
  C38      1.0000 0.00390  0.34820  0.08380  Biso   1.000  C
  O17      1.0000 0.91540  0.85800  0.94590  Biso   1.000  O
  O18      1.0000 0.08460  0.35800  0.05410  Biso   1.000  O
  C39      1.0000 0.04330  0.74860  0.91480  Biso   1.000  C
  C40      1.0000 0.95670  0.24860  0.08520  Biso   1.000  C
  Cl5      1.0000 0.13650  0.73890  0.84880  Biso   1.000  Cl
  Cl6      1.0000 0.86350  0.23890  0.15120  Biso   1.000  Cl
  C41      1.0000 0.96030  0.05350  0.76860  Biso   1.000  C
  C42      1.0000 0.03970  0.55350  0.23140  Biso   1.000  C
  C43      1.0000 0.85370  0.99700  0.70640  Biso   1.000  C
  C44      1.0000 0.14630  0.49700  0.29360  Biso   1.000  C
  C45      1.0000 0.82800  0.02540  0.57770  Biso   1.000  C
  C46      1.0000 0.17200  0.52540  0.42230  Biso   1.000  C
  C47      1.0000 0.76020  0.02060  0.74710  Biso   1.000  C
  C48      1.0000 0.23980  0.52060  0.25290  Biso   1.000  C
  O19      1.0000 0.33900  0.32570  0.11990  Biso   1.000  O
  O20      1.0000 0.66100  0.82570  0.88010  Biso   1.000  O
  C49      1.0000 0.42490  0.29970  0.10390  Biso   1.000  C
  C50      1.0000 0.57510  0.79970  0.89610  Biso   1.000  C
  O21      1.0000 0.44310  0.21400  0.07450  Biso   1.000  O
  O22      1.0000 0.55690  0.71400  0.92550  Biso   1.000  O
  C51      1.0000 0.51100  0.36870  0.12250  Biso   1.000  C
  C52      1.0000 0.48900  0.86870  0.87750  Biso   1.000  C
  N7       1.0000 0.57130  0.34830  0.04990  Biso   1.000  N
  N8       1.0000 0.42870  0.84830  0.95010  Biso   1.000  N
  C53      1.0000 0.58870  0.40890  0.98090  Biso   1.000  C
  C54      1.0000 0.41130  0.90890  0.01910  Biso   1.000  C
  O23      1.0000 0.57190  0.49630  0.98400  Biso   1.000  O
  O24      1.0000 0.42810  0.99630  0.01600  Biso   1.000  O
  C55      1.0000 0.63600  0.37380  0.89750  Biso   1.000  C
  C56      1.0000 0.36400  0.87380  0.10250  Biso   1.000  C
  Cl7      1.0000 0.64160  0.24940  0.88530  Biso   1.000  Cl
  Cl8      1.0000 0.35840  0.74940  0.11470  Biso   1.000  Cl
  C57      1.0000 0.59020  0.37000  0.24270  Biso   1.000  C
  C58      1.0000 0.40980  0.87000  0.75730  Biso   1.000  C
  C59      1.0000 0.66340  0.45990  0.27160  Biso   1.000  C
  C60      1.0000 0.33660  0.95990  0.72840  Biso   1.000  C
  C61      1.0000 0.58950  0.54330  0.28530  Biso   1.000  C
  C62      1.0000 0.41050  0.04330  0.71470  Biso   1.000  C
  C63      1.0000 0.76170  0.44800  0.35680  Biso   1.000  C
  C64      1.0000 0.23830  0.94800  0.64320  Biso   1.000  C
  H1       1.0000 0.22620  0.12970  0.35110  Biso   1.000  H
  H2       1.0000 0.77380  0.62970  0.64890  Biso   1.000  H
  H3       1.0000 0.43770  0.02670  0.44550  Biso   1.000  H
  H4       1.0000 0.56230  0.52670  0.55450  Biso   1.000  H
  H5       1.0000 0.53240  0.19850  0.60240  Biso   1.000  H
  H6       1.0000 0.46760  0.69850  0.39760  Biso   1.000  H
  H7       1.0000 0.56630  0.09780  0.53990  Biso   1.000  H
  H8       1.0000 0.43370  0.59780  0.46010  Biso   1.000  H
  H9       1.0000 0.30710  0.94450  0.29020  Biso   1.000  H
  H10      1.0000 0.69290  0.44450  0.70980  Biso   1.000  H
  H11      1.0000 0.25540  0.95830  0.39650  Biso   1.000  H
  H12      1.0000 0.74460  0.45830  0.60350  Biso   1.000  H
  H13      1.0000 0.12820  0.99970  0.16200  Biso   1.000  H
  H14      1.0000 0.87180  0.49970  0.83800  Biso   1.000  H
  H15      1.0000 0.18240  0.82430  0.20090  Biso   1.000  H
  H16      1.0000 0.81760  0.32430  0.79910  Biso   1.000  H
  H17      1.0000 0.04050  0.84050  0.15810  Biso   1.000  H
  H18      1.0000 0.95950  0.34050  0.84190  Biso   1.000  H
  H19      1.0000 0.11580  0.82360  0.29660  Biso   1.000  H
  H20      1.0000 0.88420  0.32360  0.70340  Biso   1.000  H
  H21      1.0000 0.05660  0.08610  0.27590  Biso   1.000  H
  H22      1.0000 0.94340  0.58610  0.72410  Biso   1.000  H
  H23      1.0000 0.04190  0.97940  0.34110  Biso   1.000  H
  H24      1.0000 0.95810  0.47940  0.65890  Biso   1.000  H
  H25      1.0000 0.96660  0.99640  0.20260  Biso   1.000  H
  H26      1.0000 0.03340  0.49640  0.79740  Biso   1.000  H
  H27      1.0000 0.29740  0.25450  0.70680  Biso   1.000  H
  H28      1.0000 0.70260  0.75450  0.29320  Biso   1.000  H
  H29      1.0000 0.21310  0.43860  0.76680  Biso   1.000  H
  H30      1.0000 0.78690  0.93860  0.23320  Biso   1.000  H
  H31      1.0000 0.44320  0.54470  0.79030  Biso   1.000  H
  H32      1.0000 0.55680  0.04470  0.20970  Biso   1.000  H
  H33      1.0000 0.37220  0.55690  0.65020  Biso   1.000  H
  H34      1.0000 0.62780  0.05690  0.34980  Biso   1.000  H
  H35      1.0000 0.06330  0.27720  0.69160  Biso   1.000  H
  H36      1.0000 0.93670  0.77720  0.30840  Biso   1.000  H
  H37      1.0000 0.12250  0.17510  0.65610  Biso   1.000  H
  H38      1.0000 0.87750  0.67510  0.34390  Biso   1.000  H
  H39      1.0000 0.11800  0.37070  0.54880  Biso   1.000  H
  H40      1.0000 0.88200  0.87070  0.45120  Biso   1.000  H
  H41      1.0000 0.16120  0.28210  0.41870  Biso   1.000  H
  H42      1.0000 0.83880  0.78210  0.58130  Biso   1.000  H
  H43      1.0000 0.16280  0.17480  0.48970  Biso   1.000  H
  H44      1.0000 0.83720  0.67480  0.51030  Biso   1.000  H
  H45      1.0000 0.26060  0.26410  0.54750  Biso   1.000  H
  H46      1.0000 0.73940  0.76410  0.45250  Biso   1.000  H
  H47      1.0000 0.95070  0.28010  0.39990  Biso   1.000  H
  H48      1.0000 0.04930  0.78010  0.60010  Biso   1.000  H
  H49      1.0000 0.92390  0.28340  0.52230  Biso   1.000  H
  H50      1.0000 0.07610  0.78340  0.47770  Biso   1.000  H
  H51      1.0000 0.97590  0.17830  0.48420  Biso   1.000  H
  H52      1.0000 0.02410  0.67830  0.51580  Biso   1.000  H
  H53      1.0000 0.95070  0.01960  0.92480  Biso   1.000  H
  H54      1.0000 0.04930  0.51960  0.07520  Biso   1.000  H
  H55      1.0000 0.11150  0.90140  0.85890  Biso   1.000  H
  H56      1.0000 0.88850  0.40140  0.14110  Biso   1.000  H
  H57      1.0000 0.08300  0.72640  0.99770  Biso   1.000  H
  H58      1.0000 0.91700  0.22640  0.00230  Biso   1.000  H
  H59      1.0000 0.97670  0.70070  0.87560  Biso   1.000  H
  H60      1.0000 0.02330  0.20070  0.12440  Biso   1.000  H
  H61      1.0000 0.94140  0.12860  0.77000  Biso   1.000  H
  H62      1.0000 0.05860  0.62860  0.23000  Biso   1.000  H
  H63      1.0000 0.01810  0.04400  0.72750  Biso   1.000  H
  H64      1.0000 0.98190  0.54400  0.27250  Biso   1.000  H
  H65      1.0000 0.86360  0.92070  0.71940  Biso   1.000  H
  H66      1.0000 0.13640  0.42070  0.28060  Biso   1.000  H
  H67      1.0000 0.75500  0.98920  0.52820  Biso   1.000  H
  H68      1.0000 0.24500  0.48920  0.47180  Biso   1.000  H
  H69      1.0000 0.89520  0.00350  0.55340  Biso   1.000  H
  H70      1.0000 0.10480  0.50350  0.44660  Biso   1.000  H
  H71      1.0000 0.81680  0.10180  0.56750  Biso   1.000  H
  H72      1.0000 0.18320  0.60180  0.43250  Biso   1.000  H
  H73      1.0000 0.68920  0.97970  0.70150  Biso   1.000  H
  H74      1.0000 0.31080  0.47970  0.29850  Biso   1.000  H
  H75      1.0000 0.74180  0.09600  0.73630  Biso   1.000  H
  H76      1.0000 0.25820  0.59600  0.26370  Biso   1.000  H
  H77      1.0000 0.78350  0.00260  0.83190  Biso   1.000  H
  H78      1.0000 0.21650  0.50260  0.16810  Biso   1.000  H
  H79      1.0000 0.47440  0.43880  0.10590  Biso   1.000  H
  H80      1.0000 0.52560  0.93880  0.89410  Biso   1.000  H
  H81      1.0000 0.60440  0.27720  0.05330  Biso   1.000  H
  H82      1.0000 0.39560  0.77720  0.94670  Biso   1.000  H
  H83      1.0000 0.58690  0.40220  0.81970  Biso   1.000  H
  H84      1.0000 0.41310  0.90220  0.18030  Biso   1.000  H
  H85      1.0000 0.71760  0.40130  0.91930  Biso   1.000  H
  H86      1.0000 0.28240  0.90130  0.08070  Biso   1.000  H
  H87      1.0000 0.64150  0.30740  0.25640  Biso   1.000  H
  H88      1.0000 0.35850  0.80740  0.74360  Biso   1.000  H
  H89      1.0000 0.54240  0.36750  0.29510  Biso   1.000  H
  H90      1.0000 0.45760  0.86750  0.70490  Biso   1.000  H
  H91      1.0000 0.69420  0.47700  0.20750  Biso   1.000  H
  H92      1.0000 0.30580  0.97700  0.79250  Biso   1.000  H
  H93      1.0000 0.63630  0.60860  0.30560  Biso   1.000  H
  H94      1.0000 0.36370  0.10860  0.69440  Biso   1.000  H
  H95      1.0000 0.55860  0.52580  0.34930  Biso   1.000  H
  H96      1.0000 0.44140  0.02580  0.65070  Biso   1.000  H
  H97      1.0000 0.52240  0.55310  0.21040  Biso   1.000  H
  H98      1.0000 0.47760  0.05310  0.78960  Biso   1.000  H
  H99      1.0000 0.80720  0.51400  0.37100  Biso   1.000  H
  H100     1.0000 0.19280  0.01400  0.62900  Biso   1.000  H
  H101     1.0000 0.80860  0.39210  0.33700  Biso   1.000  H
  H102     1.0000 0.19140  0.89210  0.66300  Biso   1.000  H
  H103     1.0000 0.74490  0.42830  0.42880  Biso   1.000  H
  H104     1.0000 0.25510  0.92830  0.57120  Biso   1.000  H
