data_image0
_cell_length_a       12.2902
_cell_length_b       7.756
_cell_length_c       14.4409
_cell_angle_alpha    90
_cell_angle_beta     109.41
_cell_angle_gamma    90

_symmetry_space_group_name_H-M    "P 1"
_symmetry_int_tables_number       1

loop_
  _symmetry_equiv_pos_as_xyz
  'x, y, z'

loop_
  _atom_site_label
  _atom_site_occupancy
  _atom_site_fract_x
  _atom_site_fract_y
  _atom_site_fract_z
  _atom_site_thermal_displace_type
  _atom_site_B_iso_or_equiv
  _atom_site_type_symbol
  Cu1      1.0000 0.36832  0.64905  0.20773  Biso   1.000  Cu
  Cu2      1.0000 0.63168  0.14905  0.29227  Biso   1.000  Cu
  Cu3      1.0000 0.63168  0.35095  0.79227  Biso   1.000  Cu
  Cu4      1.0000 0.36832  0.85095  0.70773  Biso   1.000  Cu
  N1       1.0000 0.27490  0.85850  0.15750  Biso   1.000  N
  N2       1.0000 0.72510  0.35850  0.34250  Biso   1.000  N
  N3       1.0000 0.72510  0.14150  0.84250  Biso   1.000  N
  N4       1.0000 0.27490  0.64150  0.65750  Biso   1.000  N
  C1       1.0000 0.30430  0.99490  0.11430  Biso   1.000  C
  C2       1.0000 0.69570  0.49490  0.38570  Biso   1.000  C
  C3       1.0000 0.69570  0.00510  0.88570  Biso   1.000  C
  C4       1.0000 0.30430  0.50510  0.61430  Biso   1.000  C
  H1       1.0000 0.37880  0.99950  0.10990  Biso   1.000  H
  H2       1.0000 0.62120  0.49950  0.39010  Biso   1.000  H
  H3       1.0000 0.62120  0.00050  0.89010  Biso   1.000  H
  H4       1.0000 0.37880  0.50050  0.60990  Biso   1.000  H
  C5       1.0000 0.22940  0.12880  0.07610  Biso   1.000  C
  C6       1.0000 0.77060  0.62880  0.42390  Biso   1.000  C
  C7       1.0000 0.77060  0.87120  0.92390  Biso   1.000  C
  C8       1.0000 0.22940  0.37120  0.57610  Biso   1.000  C
  H5       1.0000 0.25200  0.22240  0.04540  Biso   1.000  H
  H6       1.0000 0.74800  0.72240  0.45460  Biso   1.000  H
  H7       1.0000 0.74800  0.77760  0.95460  Biso   1.000  H
  H8       1.0000 0.25200  0.27760  0.54540  Biso   1.000  H
  C9       1.0000 0.12060  0.12330  0.08380  Biso   1.000  C
  C10      1.0000 0.87940  0.62330  0.41620  Biso   1.000  C
  C11      1.0000 0.87940  0.87670  0.91620  Biso   1.000  C
  C12      1.0000 0.12060  0.37670  0.58380  Biso   1.000  C
  H9       1.0000 0.06810  0.21380  0.05910  Biso   1.000  H
  H10      1.0000 0.93190  0.71380  0.44090  Biso   1.000  H
  H11      1.0000 0.93190  0.78620  0.94090  Biso   1.000  H
  H12      1.0000 0.06810  0.28620  0.55910  Biso   1.000  H
  C13      1.0000 0.09020  0.98370  0.12800  Biso   1.000  C
  C14      1.0000 0.90980  0.48370  0.37200  Biso   1.000  C
  C15      1.0000 0.90980  0.01630  0.87200  Biso   1.000  C
  C16      1.0000 0.09020  0.51630  0.62800  Biso   1.000  C
  H13      1.0000 0.01660  0.97820  0.13420  Biso   1.000  H
  H14      1.0000 0.98340  0.47820  0.36580  Biso   1.000  H
  H15      1.0000 0.98340  0.02180  0.86580  Biso   1.000  H
  H16      1.0000 0.01660  0.52180  0.63420  Biso   1.000  H
  C17      1.0000 0.16790  0.85110  0.16350  Biso   1.000  C
  C18      1.0000 0.83210  0.35110  0.33650  Biso   1.000  C
  C19      1.0000 0.83210  0.14890  0.83650  Biso   1.000  C
  C20      1.0000 0.16790  0.64890  0.66350  Biso   1.000  C
  C21      1.0000 0.14000  0.68960  0.20710  Biso   1.000  C
  C22      1.0000 0.86000  0.18960  0.29290  Biso   1.000  C
  C23      1.0000 0.86000  0.31040  0.79290  Biso   1.000  C
  C24      1.0000 0.14000  0.81040  0.70710  Biso   1.000  C
  H17      1.0000 0.09180  0.71680  0.24740  Biso   1.000  H
  H18      1.0000 0.90820  0.21680  0.25260  Biso   1.000  H
  H19      1.0000 0.90820  0.28320  0.75260  Biso   1.000  H
  H20      1.0000 0.09180  0.78320  0.74740  Biso   1.000  H
  H21      1.0000 0.09670  0.61090  0.15470  Biso   1.000  H
  H22      1.0000 0.90330  0.11090  0.34530  Biso   1.000  H
  H23      1.0000 0.90330  0.38910  0.84530  Biso   1.000  H
  H24      1.0000 0.09670  0.88910  0.65470  Biso   1.000  H
  N5       1.0000 0.24750  0.60630  0.26820  Biso   1.000  N
  N6       1.0000 0.75250  0.10630  0.23180  Biso   1.000  N
  N7       1.0000 0.75250  0.39370  0.73180  Biso   1.000  N
  N8       1.0000 0.24750  0.89370  0.76820  Biso   1.000  N
  H25      1.0000 0.27070  0.66550  0.32670  Biso   1.000  H
  H26      1.0000 0.72930  0.16550  0.17330  Biso   1.000  H
  H27      1.0000 0.72930  0.33450  0.67330  Biso   1.000  H
  H28      1.0000 0.27070  0.83450  0.82670  Biso   1.000  H
  C25      1.0000 0.23150  0.42540  0.29340  Biso   1.000  C
  C26      1.0000 0.76850  0.92540  0.20660  Biso   1.000  C
  C27      1.0000 0.76850  0.57460  0.70660  Biso   1.000  C
  C28      1.0000 0.23150  0.07460  0.79340  Biso   1.000  C
  H29      1.0000 0.20050  0.35820  0.23290  Biso   1.000  H
  H30      1.0000 0.79950  0.85820  0.26710  Biso   1.000  H
  H31      1.0000 0.79950  0.64180  0.76710  Biso   1.000  H
  H32      1.0000 0.20050  0.14180  0.73290  Biso   1.000  H
  H33      1.0000 0.17500  0.42160  0.32800  Biso   1.000  H
  H34      1.0000 0.82500  0.92160  0.17200  Biso   1.000  H
  H35      1.0000 0.82500  0.57840  0.67200  Biso   1.000  H
  H36      1.0000 0.17500  0.07840  0.82800  Biso   1.000  H
  C29      1.0000 0.34250  0.34530  0.35700  Biso   1.000  C
  C30      1.0000 0.65750  0.84530  0.14300  Biso   1.000  C
  C31      1.0000 0.65750  0.65470  0.64300  Biso   1.000  C
  C32      1.0000 0.34250  0.15470  0.85700  Biso   1.000  C
  H37      1.0000 0.32500  0.23260  0.37950  Biso   1.000  H
  H38      1.0000 0.67500  0.73260  0.12050  Biso   1.000  H
  H39      1.0000 0.67500  0.76740  0.62050  Biso   1.000  H
  H40      1.0000 0.32500  0.26740  0.87950  Biso   1.000  H
  H41      1.0000 0.37520  0.41780  0.41520  Biso   1.000  H
  H42      1.0000 0.62480  0.91780  0.08480  Biso   1.000  H
  H43      1.0000 0.62480  0.58220  0.58480  Biso   1.000  H
  H44      1.0000 0.37520  0.08220  0.91520  Biso   1.000  H
  C33      1.0000 0.43290  0.32060  0.30850  Biso   1.000  C
  C34      1.0000 0.56710  0.82060  0.19150  Biso   1.000  C
  C35      1.0000 0.56710  0.67940  0.69150  Biso   1.000  C
  C36      1.0000 0.43290  0.17940  0.80850  Biso   1.000  C
  O1       1.0000 0.43671  0.42020  0.24022  Biso   1.000  O
  O2       1.0000 0.56329  0.92020  0.25978  Biso   1.000  O
  O3       1.0000 0.56329  0.57980  0.75978  Biso   1.000  O
  O4       1.0000 0.43671  0.07980  0.74022  Biso   1.000  O
  O5       1.0000 0.50400  0.20090  0.34020  Biso   1.000  O
  O6       1.0000 0.49600  0.70090  0.15980  Biso   1.000  O
  O7       1.0000 0.49600  0.79910  0.65980  Biso   1.000  O
  O8       1.0000 0.50400  0.29910  0.84020  Biso   1.000  O
  Cl1      1.0000 0.18365  0.57571  0.94788  Biso   1.000  Cl
  Cl2      1.0000 0.81635  0.07571  0.55212  Biso   1.000  Cl
  Cl3      1.0000 0.81635  0.42429  0.05212  Biso   1.000  Cl
  Cl4      1.0000 0.18365  0.92429  0.44788  Biso   1.000  Cl
  O9       1.0000 0.13060  0.73470  0.93520  Biso   1.000  O
  O10      1.0000 0.86940  0.23470  0.56480  Biso   1.000  O
  O11      1.0000 0.86940  0.26530  0.06480  Biso   1.000  O
  O12      1.0000 0.13060  0.76530  0.43520  Biso   1.000  O
  O13      1.0000 0.28470  0.58800  0.91120  Biso   1.000  O
  O14      1.0000 0.71530  0.08800  0.58880  Biso   1.000  O
  O15      1.0000 0.71530  0.41200  0.08880  Biso   1.000  O
  O16      1.0000 0.28470  0.91200  0.41120  Biso   1.000  O
  O17      1.0000 0.11770  0.44260  0.89160  Biso   1.000  O
  O18      1.0000 0.88230  0.94260  0.60840  Biso   1.000  O
  O19      1.0000 0.88230  0.55740  0.10840  Biso   1.000  O
  O20      1.0000 0.11770  0.05740  0.39160  Biso   1.000  O
  O21      1.0000 0.22810  0.52430  0.04690  Biso   1.000  O
  O22      1.0000 0.77190  0.02430  0.45310  Biso   1.000  O
  O23      1.0000 0.77190  0.47570  0.95310  Biso   1.000  O
  O24      1.0000 0.22810  0.97570  0.54690  Biso   1.000  O
  O25      1.0000 0.47650  0.75830  0.39860  Biso   1.000  O
  O26      1.0000 0.52350  0.25830  0.10140  Biso   1.000  O
  O27      1.0000 0.52350  0.24170  0.60140  Biso   1.000  O
  O28      1.0000 0.47650  0.74170  0.89860  Biso   1.000  O
  H45      1.0000 0.50000  0.83600  0.36300  Biso   1.000  H
  H46      1.0000 0.50000  0.33600  0.13700  Biso   1.000  H
  H47      1.0000 0.50000  0.16400  0.63700  Biso   1.000  H
  H48      1.0000 0.50000  0.66400  0.86300  Biso   1.000  H
  H49      1.0000 0.43500  0.82700  0.42600  Biso   1.000  H
  H50      1.0000 0.56500  0.32700  0.07400  Biso   1.000  H
  H51      1.0000 0.56500  0.17300  0.57400  Biso   1.000  H
  H52      1.0000 0.43500  0.67300  0.92600  Biso   1.000  H
  O29      1.0000 0.17030  0.75630  0.93090  Biso   1.000  O
  O30      1.0000 0.82970  0.25630  0.56910  Biso   1.000  O
  O31      1.0000 0.82970  0.24370  0.06910  Biso   1.000  O
  O32      1.0000 0.17030  0.74370  0.43090  Biso   1.000  O
  O33      1.0000 0.27970  0.53570  0.02600  Biso   1.000  O
  O34      1.0000 0.72030  0.03570  0.47400  Biso   1.000  O
  O35      1.0000 0.72030  0.46430  0.97400  Biso   1.000  O
  O36      1.0000 0.27970  0.96430  0.52600  Biso   1.000  O
  O37      1.0000 0.15940  0.47670  0.86470  Biso   1.000  O
  O38      1.0000 0.84060  0.97670  0.63530  Biso   1.000  O
  O39      1.0000 0.84060  0.52330  0.13530  Biso   1.000  O
  O40      1.0000 0.15940  0.02330  0.36470  Biso   1.000  O
  O41      1.0000 0.08330  0.53070  0.98590  Biso   1.000  O
  O42      1.0000 0.91670  0.03070  0.51410  Biso   1.000  O
  O43      1.0000 0.91670  0.46930  0.01410  Biso   1.000  O
  O44      1.0000 0.08330  0.96930  0.48590  Biso   1.000  O
