data_image0
_cell_length_a       24.1958
_cell_length_b       7.1369
_cell_length_c       24.679
_cell_angle_alpha    90
_cell_angle_beta     113.353
_cell_angle_gamma    90

_symmetry_space_group_name_H-M    "P 1"
_symmetry_int_tables_number       1

loop_
  _symmetry_equiv_pos_as_xyz
  'x, y, z'

loop_
  _atom_site_label
  _atom_site_occupancy
  _atom_site_fract_x
  _atom_site_fract_y
  _atom_site_fract_z
  _atom_site_thermal_displace_type
  _atom_site_B_iso_or_equiv
  _atom_site_type_symbol
  Cu1      1.0000 0.32975  0.49999  0.31650  Biso   1.000  Cu
  Cu2      1.0000 0.17025  0.99999  0.18350  Biso   1.000  Cu
  Cu3      1.0000 0.67025  0.50001  0.68350  Biso   1.000  Cu
  Cu4      1.0000 0.82975  0.00001  0.81650  Biso   1.000  Cu
  O1       1.0000 0.18487  0.68360  0.17782  Biso   1.000  O
  O2       1.0000 0.31513  0.18360  0.32218  Biso   1.000  O
  O3       1.0000 0.81513  0.31640  0.82218  Biso   1.000  O
  O4       1.0000 0.68487  0.81640  0.67782  Biso   1.000  O
  O5       1.0000 0.27914  0.73490  0.44296  Biso   1.000  O
  O6       1.0000 0.22086  0.23490  0.05704  Biso   1.000  O
  O7       1.0000 0.72086  0.26510  0.55704  Biso   1.000  O
  O8       1.0000 0.77914  0.76510  0.94296  Biso   1.000  O
  O9       1.0000 0.41386  0.41800  0.35859  Biso   1.000  O
  O10      1.0000 0.08614  0.91800  0.14141  Biso   1.000  O
  O11      1.0000 0.58614  0.58200  0.64141  Biso   1.000  O
  O12      1.0000 0.91386  0.08200  0.85859  Biso   1.000  O
  H1       1.0000 0.41680  0.31200  0.35670  Biso   1.000  H
  H2       1.0000 0.08320  0.81200  0.14330  Biso   1.000  H
  H3       1.0000 0.58320  0.68800  0.64330  Biso   1.000  H
  H4       1.0000 0.91680  0.18800  0.85670  Biso   1.000  H
  H5       1.0000 0.44000  0.47500  0.35500  Biso   1.000  H
  H6       1.0000 0.06000  0.97500  0.14500  Biso   1.000  H
  H7       1.0000 0.56000  0.52500  0.64500  Biso   1.000  H
  H8       1.0000 0.94000  0.02500  0.85500  Biso   1.000  H
  N1       1.0000 0.33520  0.51790  0.23778  Biso   1.000  N
  N2       1.0000 0.16480  0.01790  0.26222  Biso   1.000  N
  N3       1.0000 0.66480  0.48210  0.76222  Biso   1.000  N
  N4       1.0000 0.83520  0.98210  0.73778  Biso   1.000  N
  N5       1.0000 0.24544  0.56080  0.26987  Biso   1.000  N
  N6       1.0000 0.25456  0.06080  0.23013  Biso   1.000  N
  N7       1.0000 0.75456  0.43920  0.73013  Biso   1.000  N
  N8       1.0000 0.74544  0.93920  0.76987  Biso   1.000  N
  N9       1.0000 0.32533  0.61920  0.38749  Biso   1.000  N
  N10      1.0000 0.17467  0.11920  0.11251  Biso   1.000  N
  N11      1.0000 0.67467  0.38080  0.61251  Biso   1.000  N
  N12      1.0000 0.82533  0.88080  0.88749  Biso   1.000  N
  C1       1.0000 0.38230  0.48630  0.22320  Biso   1.000  C
  C2       1.0000 0.11770  0.98630  0.27680  Biso   1.000  C
  C3       1.0000 0.61770  0.51370  0.77680  Biso   1.000  C
  C4       1.0000 0.88230  0.01370  0.72320  Biso   1.000  C
  H9       1.0000 0.41850  0.43830  0.25240  Biso   1.000  H
  H10      1.0000 0.08150  0.93830  0.24760  Biso   1.000  H
  H11      1.0000 0.58150  0.56170  0.74760  Biso   1.000  H
  H12      1.0000 0.91850  0.06170  0.75240  Biso   1.000  H
  C5       1.0000 0.37994  0.52100  0.16740  Biso   1.000  C
  C6       1.0000 0.12006  0.02100  0.33260  Biso   1.000  C
  C7       1.0000 0.62006  0.47900  0.83260  Biso   1.000  C
  C8       1.0000 0.87994  0.97900  0.66740  Biso   1.000  C
  H13      1.0000 0.41420  0.49860  0.15860  Biso   1.000  H
  H14      1.0000 0.08580  0.99860  0.34140  Biso   1.000  H
  H15      1.0000 0.58580  0.50140  0.84140  Biso   1.000  H
  H16      1.0000 0.91420  0.00140  0.65860  Biso   1.000  H
  C9       1.0000 0.32740  0.58870  0.12440  Biso   1.000  C
  C10      1.0000 0.17260  0.08870  0.37560  Biso   1.000  C
  C11      1.0000 0.67260  0.41130  0.87560  Biso   1.000  C
  C12      1.0000 0.82740  0.91130  0.62440  Biso   1.000  C
  H17      1.0000 0.32490  0.61240  0.08560  Biso   1.000  H
  H18      1.0000 0.17510  0.11240  0.41440  Biso   1.000  H
  H19      1.0000 0.67510  0.38760  0.91440  Biso   1.000  H
  H20      1.0000 0.82490  0.88760  0.58560  Biso   1.000  H
  C13      1.0000 0.27839  0.62140  0.13880  Biso   1.000  C
  C14      1.0000 0.22161  0.12140  0.36120  Biso   1.000  C
  C15      1.0000 0.72161  0.37860  0.86120  Biso   1.000  C
  C16      1.0000 0.77839  0.87860  0.63880  Biso   1.000  C
  H21      1.0000 0.24170  0.66840  0.11010  Biso   1.000  H
  H22      1.0000 0.25830  0.16840  0.38990  Biso   1.000  H
  H23      1.0000 0.75830  0.33160  0.88990  Biso   1.000  H
  H24      1.0000 0.74170  0.83160  0.61010  Biso   1.000  H
  C17      1.0000 0.28390  0.58430  0.19548  Biso   1.000  C
  C18      1.0000 0.21610  0.08430  0.30452  Biso   1.000  C
  C19      1.0000 0.71610  0.41570  0.80452  Biso   1.000  C
  C20      1.0000 0.78390  0.91570  0.69548  Biso   1.000  C
  C21      1.0000 0.23254  0.61430  0.21415  Biso   1.000  C
  C22      1.0000 0.26746  0.11430  0.28585  Biso   1.000  C
  C23      1.0000 0.76746  0.38570  0.78585  Biso   1.000  C
  C24      1.0000 0.73254  0.88570  0.71415  Biso   1.000  C
  C25      1.0000 0.20002  0.55610  0.29245  Biso   1.000  C
  C26      1.0000 0.29998  0.05610  0.20755  Biso   1.000  C
  C27      1.0000 0.79998  0.44390  0.70755  Biso   1.000  C
  C28      1.0000 0.70002  0.94390  0.79245  Biso   1.000  C
  C29      1.0000 0.14094  0.50160  0.25741  Biso   1.000  C
  C30      1.0000 0.35906  0.00160  0.24259  Biso   1.000  C
  C31      1.0000 0.85906  0.49840  0.74259  Biso   1.000  C
  C32      1.0000 0.64094  0.99840  0.75741  Biso   1.000  C
  H25      1.0000 0.13050  0.47120  0.21710  Biso   1.000  H
  H26      1.0000 0.36950  0.97120  0.28290  Biso   1.000  H
  H27      1.0000 0.86950  0.52880  0.78290  Biso   1.000  H
  H28      1.0000 0.63050  0.02880  0.71710  Biso   1.000  H
  C33      1.0000 0.09772  0.49160  0.28069  Biso   1.000  C
  C34      1.0000 0.40228  0.99160  0.21931  Biso   1.000  C
  C35      1.0000 0.90228  0.50840  0.71931  Biso   1.000  C
  C36      1.0000 0.59772  0.00840  0.78069  Biso   1.000  C
  H29      1.0000 0.05820  0.45130  0.25650  Biso   1.000  H
  H30      1.0000 0.44180  0.95130  0.24350  Biso   1.000  H
  H31      1.0000 0.94180  0.54870  0.74350  Biso   1.000  H
  H32      1.0000 0.55820  0.04870  0.75650  Biso   1.000  H
  C37      1.0000 0.11131  0.53960  0.33885  Biso   1.000  C
  C38      1.0000 0.38869  0.03960  0.16115  Biso   1.000  C
  C39      1.0000 0.88869  0.46040  0.66115  Biso   1.000  C
  C40      1.0000 0.61131  0.96040  0.83885  Biso   1.000  C
  H33      1.0000 0.08100  0.53600  0.35420  Biso   1.000  H
  H34      1.0000 0.41900  0.03600  0.14580  Biso   1.000  H
  H35      1.0000 0.91900  0.46400  0.64580  Biso   1.000  H
  H36      1.0000 0.58100  0.96400  0.85420  Biso   1.000  H
  C41      1.0000 0.16937  0.59290  0.37446  Biso   1.000  C
  C42      1.0000 0.33063  0.09290  0.12554  Biso   1.000  C
  C43      1.0000 0.83063  0.40710  0.62554  Biso   1.000  C
  C44      1.0000 0.66937  0.90710  0.87446  Biso   1.000  C
  H37      1.0000 0.17890  0.62520  0.41450  Biso   1.000  H
  H38      1.0000 0.32110  0.12520  0.08550  Biso   1.000  H
  H39      1.0000 0.82110  0.37480  0.58550  Biso   1.000  H
  H40      1.0000 0.67890  0.87480  0.91450  Biso   1.000  H
  C45      1.0000 0.21439  0.59970  0.35201  Biso   1.000  C
  C46      1.0000 0.28561  0.09970  0.14799  Biso   1.000  C
  C47      1.0000 0.78561  0.40030  0.64799  Biso   1.000  C
  C48      1.0000 0.71439  0.90030  0.85201  Biso   1.000  C
  C49      1.0000 0.27502  0.64970  0.39259  Biso   1.000  C
  C50      1.0000 0.22498  0.14970  0.10741  Biso   1.000  C
  C51      1.0000 0.72498  0.35030  0.60741  Biso   1.000  C
  C52      1.0000 0.77502  0.85030  0.89259  Biso   1.000  C
  C53      1.0000 0.34101  0.79810  0.47173  Biso   1.000  C
  C54      1.0000 0.15899  0.29810  0.02827  Biso   1.000  C
  C55      1.0000 0.65899  0.20190  0.52827  Biso   1.000  C
  C56      1.0000 0.84101  0.70190  0.97173  Biso   1.000  C
  H41      1.0000 0.35680  0.77390  0.51470  Biso   1.000  H
  H42      1.0000 0.14320  0.27390  0.98530  Biso   1.000  H
  H43      1.0000 0.64320  0.22610  0.48530  Biso   1.000  H
  H44      1.0000 0.85680  0.72610  0.01470  Biso   1.000  H
  H45      1.0000 0.34410  0.93390  0.46520  Biso   1.000  H
  H46      1.0000 0.15590  0.43390  0.03480  Biso   1.000  H
  H47      1.0000 0.65590  0.06610  0.53480  Biso   1.000  H
  H48      1.0000 0.84410  0.56610  0.96520  Biso   1.000  H
  C57      1.0000 0.37571  0.68470  0.44315  Biso   1.000  C
  C58      1.0000 0.12429  0.18470  0.05685  Biso   1.000  C
  C59      1.0000 0.62429  0.31530  0.55685  Biso   1.000  C
  C60      1.0000 0.87571  0.81530  0.94315  Biso   1.000  C
  C61      1.0000 0.41996  0.80870  0.42960  Biso   1.000  C
  C62      1.0000 0.08004  0.30870  0.07040  Biso   1.000  C
  C63      1.0000 0.58004  0.19130  0.57040  Biso   1.000  C
  C64      1.0000 0.91996  0.69130  0.92960  Biso   1.000  C
  H49      1.0000 0.44120  0.73360  0.41070  Biso   1.000  H
  H50      1.0000 0.05880  0.23360  0.08930  Biso   1.000  H
  H51      1.0000 0.55880  0.26640  0.58930  Biso   1.000  H
  H52      1.0000 0.94120  0.76640  0.91070  Biso   1.000  H
  H53      1.0000 0.44920  0.86200  0.46640  Biso   1.000  H
  H54      1.0000 0.05080  0.36200  0.03360  Biso   1.000  H
  H55      1.0000 0.55080  0.13800  0.53360  Biso   1.000  H
  H56      1.0000 0.94920  0.63800  0.96640  Biso   1.000  H
  H57      1.0000 0.39800  0.91020  0.40310  Biso   1.000  H
  H58      1.0000 0.10200  0.41020  0.09690  Biso   1.000  H
  H59      1.0000 0.60200  0.08980  0.59690  Biso   1.000  H
  H60      1.0000 0.89800  0.58980  0.90310  Biso   1.000  H
  C65      1.0000 0.40616  0.51490  0.48056  Biso   1.000  C
  C66      1.0000 0.09384  0.01490  0.01944  Biso   1.000  C
  C67      1.0000 0.59384  0.48510  0.51944  Biso   1.000  C
  C68      1.0000 0.90616  0.98510  0.98056  Biso   1.000  C
  H61      1.0000 0.42620  0.44120  0.46010  Biso   1.000  H
  H62      1.0000 0.07380  0.94120  0.03990  Biso   1.000  H
  H63      1.0000 0.57380  0.55880  0.53990  Biso   1.000  H
  H64      1.0000 0.92620  0.05880  0.96010  Biso   1.000  H
  H65      1.0000 0.37580  0.43730  0.48690  Biso   1.000  H
  H66      1.0000 0.12420  0.93730  0.01310  Biso   1.000  H
  H67      1.0000 0.62420  0.56270  0.51310  Biso   1.000  H
  H68      1.0000 0.87580  0.06270  0.98690  Biso   1.000  H
  H69      1.0000 0.43600  0.55700  0.51870  Biso   1.000  H
  H70      1.0000 0.06400  0.05700  0.98130  Biso   1.000  H
  H71      1.0000 0.56400  0.44300  0.48130  Biso   1.000  H
  H72      1.0000 0.93600  0.94300  0.01870  Biso   1.000  H
  Cu5      1.0000 0.21867  0.15786  0.66439  Biso   1.000  Cu
  Cu6      1.0000 0.28133  0.65786  0.83561  Biso   1.000  Cu
  Cu7      1.0000 0.78133  0.84214  0.33561  Biso   1.000  Cu
  Cu8      1.0000 0.71867  0.34214  0.16439  Biso   1.000  Cu
  O13      1.0000 0.24995  0.35580  0.82672  Biso   1.000  O
  O14      1.0000 0.25005  0.85580  0.67328  Biso   1.000  O
  O15      1.0000 0.75005  0.64420  0.17328  Biso   1.000  O
  O16      1.0000 0.74995  0.14420  0.32672  Biso   1.000  O
  O17      1.0000 0.37262  0.40030  0.66028  Biso   1.000  O
  O18      1.0000 0.12738  0.90030  0.83972  Biso   1.000  O
  O19      1.0000 0.62738  0.59970  0.33972  Biso   1.000  O
  O20      1.0000 0.87262  0.09970  0.16028  Biso   1.000  O
  O21      1.0000 0.16676  0.09080  0.58251  Biso   1.000  O
  O22      1.0000 0.33324  0.59080  0.91749  Biso   1.000  O
  O23      1.0000 0.83324  0.90920  0.41749  Biso   1.000  O
  O24      1.0000 0.66676  0.40920  0.08251  Biso   1.000  O
  H73      1.0000 0.16400  0.98400  0.57900  Biso   1.000  H
  H74      1.0000 0.33600  0.48400  0.92100  Biso   1.000  H
  H75      1.0000 0.83600  0.01600  0.42100  Biso   1.000  H
  H76      1.0000 0.66400  0.51600  0.07900  Biso   1.000  H
  H77      1.0000 0.13800  0.14700  0.56500  Biso   1.000  H
  H78      1.0000 0.36200  0.64700  0.93500  Biso   1.000  H
  H79      1.0000 0.86200  0.85300  0.43500  Biso   1.000  H
  H80      1.0000 0.63800  0.35300  0.06500  Biso   1.000  H
  N13      1.0000 0.14875  0.17870  0.68881  Biso   1.000  N
  N14      1.0000 0.35125  0.67870  0.81119  Biso   1.000  N
  N15      1.0000 0.85125  0.82130  0.31119  Biso   1.000  N
  N16      1.0000 0.64875  0.32130  0.18881  Biso   1.000  N
  N17      1.0000 0.26443  0.22250  0.74702  Biso   1.000  N
  N18      1.0000 0.23557  0.72250  0.75298  Biso   1.000  N
  N19      1.0000 0.73557  0.77750  0.25298  Biso   1.000  N
  N20      1.0000 0.76443  0.27750  0.24702  Biso   1.000  N
  N21      1.0000 0.28218  0.27370  0.64234  Biso   1.000  N
  N22      1.0000 0.21782  0.77370  0.85766  Biso   1.000  N
  N23      1.0000 0.71782  0.72630  0.35766  Biso   1.000  N
  N24      1.0000 0.78218  0.22630  0.14234  Biso   1.000  N
  C69      1.0000 0.09043  0.14830  0.65714  Biso   1.000  C
  C70      1.0000 0.40957  0.64830  0.84286  Biso   1.000  C
  C71      1.0000 0.90957  0.85170  0.34286  Biso   1.000  C
  C72      1.0000 0.59043  0.35170  0.15714  Biso   1.000  C
  H81      1.0000 0.07840  0.09610  0.61880  Biso   1.000  H
  H82      1.0000 0.42160  0.59610  0.88120  Biso   1.000  H
  H83      1.0000 0.92160  0.90390  0.38120  Biso   1.000  H
  H84      1.0000 0.57840  0.40390  0.11880  Biso   1.000  H
  C73      1.0000 0.04680  0.19040  0.67840  Biso   1.000  C
  C74      1.0000 0.45320  0.69040  0.82160  Biso   1.000  C
  C75      1.0000 0.95320  0.80960  0.32160  Biso   1.000  C
  C76      1.0000 0.54680  0.30960  0.17840  Biso   1.000  C
  H85      1.0000 0.00540  0.16970  0.65440  Biso   1.000  H
  H86      1.0000 0.49460  0.66970  0.84560  Biso   1.000  H
  H87      1.0000 0.99460  0.83030  0.34560  Biso   1.000  H
  H88      1.0000 0.50540  0.33030  0.15440  Biso   1.000  H
  C77      1.0000 0.06360  0.26210  0.73410  Biso   1.000  C
  C78      1.0000 0.43640  0.76210  0.76590  Biso   1.000  C
  C79      1.0000 0.93640  0.73790  0.26590  Biso   1.000  C
  C80      1.0000 0.56360  0.23790  0.23410  Biso   1.000  C
  H89      1.0000 0.03430  0.29070  0.74950  Biso   1.000  H
  H90      1.0000 0.46570  0.79070  0.75050  Biso   1.000  H
  H91      1.0000 0.96570  0.70930  0.25050  Biso   1.000  H
  H92      1.0000 0.53430  0.20930  0.24950  Biso   1.000  H
  C81      1.0000 0.12451  0.29210  0.76779  Biso   1.000  C
  C82      1.0000 0.37549  0.79210  0.73221  Biso   1.000  C
  C83      1.0000 0.87549  0.70790  0.23221  Biso   1.000  C
  C84      1.0000 0.62451  0.20790  0.26779  Biso   1.000  C
  H93      1.0000 0.13760  0.34070  0.80670  Biso   1.000  H
  H94      1.0000 0.36240  0.84070  0.69330  Biso   1.000  H
  H95      1.0000 0.86240  0.65930  0.19330  Biso   1.000  H
  H96      1.0000 0.63760  0.15930  0.30670  Biso   1.000  H
  C85      1.0000 0.16566  0.25020  0.74365  Biso   1.000  C
  C86      1.0000 0.33434  0.75020  0.75635  Biso   1.000  C
  C87      1.0000 0.83434  0.74980  0.25635  Biso   1.000  C
  C88      1.0000 0.66566  0.24980  0.24365  Biso   1.000  C
  C89      1.0000 0.23199  0.28090  0.77719  Biso   1.000  C
  C90      1.0000 0.26801  0.78090  0.72281  Biso   1.000  C
  C91      1.0000 0.76801  0.71910  0.22281  Biso   1.000  C
  C92      1.0000 0.73199  0.21910  0.27719  Biso   1.000  C
  C93      1.0000 0.32791  0.21910  0.77530  Biso   1.000  C
  C94      1.0000 0.17209  0.71910  0.72470  Biso   1.000  C
  C95      1.0000 0.67209  0.78090  0.22470  Biso   1.000  C
  C96      1.0000 0.82791  0.28090  0.27530  Biso   1.000  C
  C97      1.0000 0.35720  0.16430  0.83378  Biso   1.000  C
  C98      1.0000 0.14280  0.66430  0.66622  Biso   1.000  C
  C99      1.0000 0.64280  0.83570  0.16622  Biso   1.000  C
  C100     1.0000 0.85720  0.33570  0.33378  Biso   1.000  C
  H97      1.0000 0.33410  0.13370  0.85600  Biso   1.000  H
  H98      1.0000 0.16590  0.63370  0.64400  Biso   1.000  H
  H99      1.0000 0.66590  0.86630  0.14400  Biso   1.000  H
  H100     1.0000 0.83410  0.36630  0.35600  Biso   1.000  H
  C101     1.0000 0.41918  0.15340  0.86034  Biso   1.000  C
  C102     1.0000 0.08082  0.65340  0.63966  Biso   1.000  C
  C103     1.0000 0.58082  0.84660  0.13966  Biso   1.000  C
  C104     1.0000 0.91918  0.34660  0.36034  Biso   1.000  C
  H101     1.0000 0.43830  0.11260  0.90010  Biso   1.000  H
  H102     1.0000 0.06170  0.61260  0.59990  Biso   1.000  H
  H103     1.0000 0.56170  0.88740  0.09990  Biso   1.000  H
  H104     1.0000 0.93830  0.38740  0.40010  Biso   1.000  H
  C105     1.0000 0.45353  0.20180  0.82903  Biso   1.000  C
  C106     1.0000 0.04647  0.70180  0.67097  Biso   1.000  C
  C107     1.0000 0.54647  0.79820  0.17097  Biso   1.000  C
  C108     1.0000 0.95353  0.29820  0.32903  Biso   1.000  C
  H105     1.0000 0.49620  0.19710  0.84750  Biso   1.000  H
  H106     1.0000 0.00380  0.69710  0.65250  Biso   1.000  H
  H107     1.0000 0.50380  0.80290  0.15250  Biso   1.000  H
  H108     1.0000 0.99620  0.30290  0.34750  Biso   1.000  H
  C109     1.0000 0.42585  0.25650  0.77134  Biso   1.000  C
  C110     1.0000 0.07415  0.75650  0.72866  Biso   1.000  C
  C111     1.0000 0.57415  0.74350  0.22866  Biso   1.000  C
  C112     1.0000 0.92585  0.24350  0.27134  Biso   1.000  C
  H109     1.0000 0.44960  0.29070  0.75010  Biso   1.000  H
  H110     1.0000 0.05040  0.79070  0.74990  Biso   1.000  H
  H111     1.0000 0.55040  0.70930  0.24990  Biso   1.000  H
  H112     1.0000 0.94960  0.20930  0.25010  Biso   1.000  H
  C113     1.0000 0.36287  0.26290  0.74305  Biso   1.000  C
  C114     1.0000 0.13713  0.76290  0.75695  Biso   1.000  C
  C115     1.0000 0.63713  0.73710  0.25695  Biso   1.000  C
  C116     1.0000 0.86287  0.23710  0.24305  Biso   1.000  C
  C117     1.0000 0.33587  0.31110  0.68078  Biso   1.000  C
  C118     1.0000 0.16413  0.81110  0.81922  Biso   1.000  C
  C119     1.0000 0.66413  0.68890  0.31922  Biso   1.000  C
  C120     1.0000 0.83587  0.18890  0.18078  Biso   1.000  C
  C121     1.0000 0.33680  0.44600  0.59950  Biso   1.000  C
  C122     1.0000 0.16320  0.94600  0.90050  Biso   1.000  C
  C123     1.0000 0.66320  0.55400  0.40050  Biso   1.000  C
  C124     1.0000 0.83680  0.05400  0.09950  Biso   1.000  C
  H113     1.0000 0.35830  0.41180  0.57420  Biso   1.000  H
  H114     1.0000 0.14170  0.91180  0.92580  Biso   1.000  H
  H115     1.0000 0.64170  0.58820  0.42580  Biso   1.000  H
  H116     1.0000 0.85830  0.08820  0.07420  Biso   1.000  H
  H117     1.0000 0.32770  0.58180  0.59510  Biso   1.000  H
  H118     1.0000 0.17230  0.08180  0.90490  Biso   1.000  H
  H119     1.0000 0.67230  0.41820  0.40490  Biso   1.000  H
  H120     1.0000 0.82770  0.91820  0.09510  Biso   1.000  H
  C125     1.0000 0.27928  0.33280  0.58277  Biso   1.000  C
  C126     1.0000 0.22072  0.83280  0.91723  Biso   1.000  C
  C127     1.0000 0.72072  0.66720  0.41723  Biso   1.000  C
  C128     1.0000 0.77928  0.16720  0.08277  Biso   1.000  C
  C129     1.0000 0.22490  0.45600  0.55080  Biso   1.000  C
  C130     1.0000 0.27510  0.95600  0.94920  Biso   1.000  C
  C131     1.0000 0.77510  0.54400  0.44920  Biso   1.000  C
  C132     1.0000 0.72490  0.04400  0.05080  Biso   1.000  C
  H121     1.0000 0.18830  0.37910  0.53700  Biso   1.000  H
  H122     1.0000 0.31170  0.87910  0.96300  Biso   1.000  H
  H123     1.0000 0.81170  0.62090  0.46300  Biso   1.000  H
  H124     1.0000 0.68830  0.12090  0.03700  Biso   1.000  H
  H125     1.0000 0.22910  0.51590  0.51690  Biso   1.000  H
  H126     1.0000 0.27090  0.01590  0.98310  Biso   1.000  H
  H127     1.0000 0.77090  0.48410  0.48310  Biso   1.000  H
  H128     1.0000 0.72910  0.98410  0.01690  Biso   1.000  H
  H129     1.0000 0.22200  0.55250  0.57780  Biso   1.000  H
  H130     1.0000 0.27800  0.05250  0.92220  Biso   1.000  H
  H131     1.0000 0.77800  0.44750  0.42220  Biso   1.000  H
  H132     1.0000 0.72200  0.94750  0.07780  Biso   1.000  H
  C133     1.0000 0.28070  0.16110  0.54780  Biso   1.000  C
  C134     1.0000 0.21930  0.66110  0.95220  Biso   1.000  C
  C135     1.0000 0.71930  0.83890  0.45220  Biso   1.000  C
  C136     1.0000 0.78070  0.33890  0.04780  Biso   1.000  C
  H133     1.0000 0.24450  0.08580  0.54020  Biso   1.000  H
  H134     1.0000 0.25550  0.58580  0.95980  Biso   1.000  H
  H135     1.0000 0.75550  0.91420  0.45980  Biso   1.000  H
  H136     1.0000 0.74450  0.41420  0.04020  Biso   1.000  H
  H137     1.0000 0.31650  0.08650  0.57020  Biso   1.000  H
  H138     1.0000 0.18350  0.58650  0.92980  Biso   1.000  H
  H139     1.0000 0.68350  0.91350  0.42980  Biso   1.000  H
  H140     1.0000 0.81650  0.41350  0.07020  Biso   1.000  H
  H141     1.0000 0.28200  0.19930  0.51010  Biso   1.000  H
  H142     1.0000 0.21800  0.69930  0.98990  Biso   1.000  H
  H143     1.0000 0.71800  0.80070  0.48990  Biso   1.000  H
  H144     1.0000 0.78200  0.30070  0.01010  Biso   1.000  H
  F1       1.0000 0.54350  0.92350  0.33989  Biso   1.000  F
  F2       1.0000 0.95650  0.42350  0.16011  Biso   1.000  F
  F3       1.0000 0.45650  0.07650  0.66011  Biso   1.000  F
  F4       1.0000 0.04350  0.57650  0.83989  Biso   1.000  F
  F5       1.0000 0.47839  0.09920  0.36111  Biso   1.000  F
  F6       1.0000 0.02161  0.59920  0.13889  Biso   1.000  F
  F7       1.0000 0.52161  0.90080  0.63889  Biso   1.000  F
  F8       1.0000 0.97839  0.40080  0.86111  Biso   1.000  F
  F9       1.0000 0.56007  0.97760  0.43384  Biso   1.000  F
  F10      1.0000 0.93993  0.47760  0.06616  Biso   1.000  F
  F11      1.0000 0.43993  0.02240  0.56616  Biso   1.000  F
  F12      1.0000 0.06007  0.52240  0.93384  Biso   1.000  F
  F13      1.0000 0.57137  0.21270  0.37763  Biso   1.000  F
  F14      1.0000 0.92863  0.71270  0.12237  Biso   1.000  F
  F15      1.0000 0.42863  0.78730  0.62237  Biso   1.000  F
  F16      1.0000 0.07137  0.28730  0.87763  Biso   1.000  F
  B1       1.0000 0.53820  0.05460  0.37900  Biso   1.000  B
  B2       1.0000 0.96180  0.55460  0.12100  Biso   1.000  B
  B3       1.0000 0.46180  0.94540  0.62100  Biso   1.000  B
  B4       1.0000 0.03820  0.44540  0.87900  Biso   1.000  B
  F17      1.0000 0.09600  0.88300  0.43862  Biso   1.000  F
  F18      1.0000 0.40400  0.38300  0.06138  Biso   1.000  F
  F19      1.0000 0.90400  0.11700  0.56138  Biso   1.000  F
  F20      1.0000 0.59600  0.61700  0.93862  Biso   1.000  F
  F21      1.0000 0.12765  0.75510  0.52904  Biso   1.000  F
  F22      1.0000 0.37235  0.25510  0.97096  Biso   1.000  F
  F23      1.0000 0.87235  0.24490  0.47096  Biso   1.000  F
  F24      1.0000 0.62765  0.74490  0.02904  Biso   1.000  F
  F25      1.0000 0.03390  0.85510  0.48550  Biso   1.000  F
  F26      1.0000 0.46610  0.35510  0.01450  Biso   1.000  F
  F27      1.0000 0.96610  0.14490  0.51450  Biso   1.000  F
  F28      1.0000 0.53390  0.64490  0.98550  Biso   1.000  F
  F29      1.0000 0.06457  0.60150  0.45007  Biso   1.000  F
  F30      1.0000 0.43543  0.10150  0.04993  Biso   1.000  F
  F31      1.0000 0.93543  0.39850  0.54993  Biso   1.000  F
  F32      1.0000 0.56457  0.89850  0.95007  Biso   1.000  F
  B5       1.0000 0.08120  0.77840  0.47500  Biso   1.000  B
  B6       1.0000 0.41880  0.27840  0.02500  Biso   1.000  B
  B7       1.0000 0.91880  0.22160  0.52500  Biso   1.000  B
  B8       1.0000 0.58120  0.72160  0.97500  Biso   1.000  B
  F33      1.0000 0.05930  0.93300  0.43080  Biso   1.000  F
  F34      1.0000 0.44070  0.43300  0.06920  Biso   1.000  F
  F35      1.0000 0.94070  0.06700  0.56920  Biso   1.000  F
  F36      1.0000 0.55930  0.56700  0.93080  Biso   1.000  F
  F37      1.0000 0.14470  0.83000  0.49900  Biso   1.000  F
  F38      1.0000 0.35530  0.33000  0.00100  Biso   1.000  F
  F39      1.0000 0.85530  0.17000  0.50100  Biso   1.000  F
  F40      1.0000 0.64470  0.67000  0.99900  Biso   1.000  F
  F41      1.0000 0.06340  0.83300  0.51340  Biso   1.000  F
  F42      1.0000 0.43660  0.33300  0.98660  Biso   1.000  F
  F43      1.0000 0.93660  0.16700  0.48660  Biso   1.000  F
  F44      1.0000 0.56340  0.66700  0.01340  Biso   1.000  F
  O25      1.0000 0.50640  0.55470  0.34260  Biso   1.000  O
  O26      1.0000 0.99360  0.05470  0.15740  Biso   1.000  O
  O27      1.0000 0.49360  0.44530  0.65740  Biso   1.000  O
  O28      1.0000 0.00640  0.94530  0.84260  Biso   1.000  O
  H145     1.0000 0.51700  0.64800  0.34700  Biso   1.000  H
  H146     1.0000 0.98300  0.14800  0.15300  Biso   1.000  H
  H147     1.0000 0.48300  0.35200  0.65300  Biso   1.000  H
  H148     1.0000 0.01700  0.85200  0.84700  Biso   1.000  H
  H149     1.0000 0.53000  0.48900  0.34900  Biso   1.000  H
  H150     1.0000 0.97000  0.98900  0.15100  Biso   1.000  H
  H151     1.0000 0.47000  0.51100  0.65100  Biso   1.000  H
  H152     1.0000 0.03000  0.01100  0.84900  Biso   1.000  H
  O29      1.0000 0.07228  0.29540  0.52210  Biso   1.000  O
  O30      1.0000 0.42772  0.79540  0.97790  Biso   1.000  O
  O31      1.0000 0.92772  0.70460  0.47790  Biso   1.000  O
  O32      1.0000 0.57228  0.20460  0.02210  Biso   1.000  O
  H153     1.0000 0.07100  0.37900  0.49900  Biso   1.000  H
  H154     1.0000 0.42900  0.87900  0.00100  Biso   1.000  H
  H155     1.0000 0.92900  0.62100  0.50100  Biso   1.000  H
  H156     1.0000 0.57100  0.12100  0.99900  Biso   1.000  H
  H157     1.0000 0.04300  0.25300  0.51300  Biso   1.000  H
  H158     1.0000 0.45700  0.75300  0.98700  Biso   1.000  H
  H159     1.0000 0.95700  0.74700  0.48700  Biso   1.000  H
  H160     1.0000 0.54300  0.24700  0.01300  Biso   1.000  H
