data_image0
_cell_length_a       5.0663
_cell_length_b       17.581
_cell_length_c       20.534
_cell_angle_alpha    90
_cell_angle_beta     90
_cell_angle_gamma    90

_symmetry_space_group_name_H-M    "P 1"
_symmetry_int_tables_number       1

loop_
  _symmetry_equiv_pos_as_xyz
  'x, y, z'

loop_
  _atom_site_label
  _atom_site_occupancy
  _atom_site_fract_x
  _atom_site_fract_y
  _atom_site_fract_z
  _atom_site_thermal_displace_type
  _atom_site_B_iso_or_equiv
  _atom_site_type_symbol
  Cu1      1.0000 0.96774  0.92091  0.83999  Biso   1.000  Cu
  Cu2      1.0000 0.46774  0.57909  0.16001  Biso   1.000  Cu
  Cu3      1.0000 0.03226  0.42091  0.66001  Biso   1.000  Cu
  Cu4      1.0000 0.53226  0.07909  0.33999  Biso   1.000  Cu
  Cl1      1.0000 0.23334  0.93175  0.92973  Biso   1.000  Cl
  Cl2      1.0000 0.73334  0.56825  0.07027  Biso   1.000  Cl
  Cl3      1.0000 0.76666  0.43175  0.57027  Biso   1.000  Cl
  Cl4      1.0000 0.26666  0.06825  0.42973  Biso   1.000  Cl
  O1       1.0000 0.27760  0.85529  0.76324  Biso   1.000  O
  O2       1.0000 0.77760  0.64471  0.23676  Biso   1.000  O
  O3       1.0000 0.72240  0.35529  0.73676  Biso   1.000  O
  O4       1.0000 0.22240  0.14471  0.26324  Biso   1.000  O
  O5       1.0000 0.15510  0.10835  0.72982  Biso   1.000  O
  O6       1.0000 0.65510  0.39165  0.27018  Biso   1.000  O
  O7       1.0000 0.84490  0.60835  0.77018  Biso   1.000  O
  O8       1.0000 0.34490  0.89165  0.22982  Biso   1.000  O
  N1       1.0000 0.79940  0.82637  0.87309  Biso   1.000  N
  N2       1.0000 0.29940  0.67363  0.12691  Biso   1.000  N
  N3       1.0000 0.20060  0.32637  0.62691  Biso   1.000  N
  N4       1.0000 0.70060  0.17363  0.37309  Biso   1.000  N
  N5       1.0000 0.69690  0.91084  0.77057  Biso   1.000  N
  N6       1.0000 0.19690  0.58916  0.22943  Biso   1.000  N
  N7       1.0000 0.30310  0.41084  0.72943  Biso   1.000  N
  N8       1.0000 0.80310  0.08916  0.27057  Biso   1.000  N
  N9       1.0000 0.07770  0.01887  0.80550  Biso   1.000  N
  N10      1.0000 0.57770  0.48113  0.19450  Biso   1.000  N
  N11      1.0000 0.92230  0.51887  0.69450  Biso   1.000  N
  N12      1.0000 0.42230  0.98113  0.30550  Biso   1.000  N
  C1       1.0000 0.88520  0.77947  0.92041  Biso   1.000  C
  C2       1.0000 0.38520  0.72053  0.07959  Biso   1.000  C
  C3       1.0000 0.11480  0.27947  0.57959  Biso   1.000  C
  C4       1.0000 0.61480  0.22053  0.42041  Biso   1.000  C
  H1       1.0000 0.03720  0.79310  0.94490  Biso   1.000  H
  H2       1.0000 0.53720  0.70690  0.05510  Biso   1.000  H
  H3       1.0000 0.96280  0.29310  0.55510  Biso   1.000  H
  H4       1.0000 0.46280  0.20690  0.44490  Biso   1.000  H
  C5       1.0000 0.75770  0.71220  0.93416  Biso   1.000  C
  C6       1.0000 0.25770  0.78780  0.06584  Biso   1.000  C
  C7       1.0000 0.24230  0.21220  0.56584  Biso   1.000  C
  C8       1.0000 0.74230  0.28780  0.43416  Biso   1.000  C
  H5       1.0000 0.82400  0.67940  0.96710  Biso   1.000  H
  H6       1.0000 0.32400  0.82060  0.03290  Biso   1.000  H
  H7       1.0000 0.17600  0.17940  0.53290  Biso   1.000  H
  H8       1.0000 0.67600  0.32060  0.46710  Biso   1.000  H
  C9       1.0000 0.53280  0.69262  0.89991  Biso   1.000  C
  C10      1.0000 0.03280  0.80738  0.10009  Biso   1.000  C
  C11      1.0000 0.46720  0.19262  0.60009  Biso   1.000  C
  C12      1.0000 0.96720  0.30738  0.39991  Biso   1.000  C
  H9       1.0000 0.44230  0.64640  0.90880  Biso   1.000  H
  H10      1.0000 0.94230  0.85360  0.09120  Biso   1.000  H
  H11      1.0000 0.55770  0.14640  0.59120  Biso   1.000  H
  H12      1.0000 0.05770  0.35360  0.40880  Biso   1.000  H
  C13      1.0000 0.44280  0.74199  0.85236  Biso   1.000  C
  C14      1.0000 0.94280  0.75801  0.14764  Biso   1.000  C
  C15      1.0000 0.55720  0.24199  0.64764  Biso   1.000  C
  C16      1.0000 0.05720  0.25801  0.35236  Biso   1.000  C
  H13      1.0000 0.28800  0.73040  0.82820  Biso   1.000  H
  H14      1.0000 0.78800  0.76960  0.17180  Biso   1.000  H
  H15      1.0000 0.71200  0.23040  0.67180  Biso   1.000  H
  H16      1.0000 0.21200  0.26960  0.32820  Biso   1.000  H
  C17      1.0000 0.58010  0.80824  0.84034  Biso   1.000  C
  C18      1.0000 0.08010  0.69176  0.15966  Biso   1.000  C
  C19      1.0000 0.41990  0.30824  0.65966  Biso   1.000  C
  C20      1.0000 0.91990  0.19176  0.34034  Biso   1.000  C
  C21      1.0000 0.50150  0.86206  0.78668  Biso   1.000  C
  C22      1.0000 0.00150  0.63794  0.21332  Biso   1.000  C
  C23      1.0000 0.49850  0.36206  0.71332  Biso   1.000  C
  C24      1.0000 0.99850  0.13794  0.28668  Biso   1.000  C
  C25      1.0000 0.70190  0.94631  0.70910  Biso   1.000  C
  C26      1.0000 0.20190  0.55369  0.29090  Biso   1.000  C
  C27      1.0000 0.29810  0.44631  0.79090  Biso   1.000  C
  C28      1.0000 0.79810  0.05369  0.20910  Biso   1.000  C
  C29      1.0000 0.54580  0.92143  0.65701  Biso   1.000  C
  C30      1.0000 0.04580  0.57857  0.34299  Biso   1.000  C
  C31      1.0000 0.45420  0.42143  0.84299  Biso   1.000  C
  C32      1.0000 0.95420  0.07857  0.15701  Biso   1.000  C
  H17      1.0000 0.41430  0.88400  0.66470  Biso   1.000  H
  H18      1.0000 0.91430  0.61600  0.33530  Biso   1.000  H
  H19      1.0000 0.58570  0.38400  0.83530  Biso   1.000  H
  H20      1.0000 0.08570  0.11600  0.16470  Biso   1.000  H
  C33      1.0000 0.57800  0.94993  0.59451  Biso   1.000  C
  C34      1.0000 0.07800  0.55007  0.40549  Biso   1.000  C
  C35      1.0000 0.42200  0.44993  0.90549  Biso   1.000  C
  C36      1.0000 0.92200  0.05007  0.09451  Biso   1.000  C
  H21      1.0000 0.46780  0.93190  0.56040  Biso   1.000  H
  H22      1.0000 0.96780  0.56810  0.43960  Biso   1.000  H
  H23      1.0000 0.53220  0.43190  0.93960  Biso   1.000  H
  H24      1.0000 0.03220  0.06810  0.06040  Biso   1.000  H
  C37      1.0000 0.76840  0.00429  0.58113  Biso   1.000  C
  C38      1.0000 0.26840  0.49571  0.41887  Biso   1.000  C
  C39      1.0000 0.23160  0.50429  0.91887  Biso   1.000  C
  C40      1.0000 0.73160  0.99571  0.08113  Biso   1.000  C
  H25      1.0000 0.79460  0.02220  0.53800  Biso   1.000  H
  H26      1.0000 0.29460  0.47780  0.46200  Biso   1.000  H
  H27      1.0000 0.20540  0.52220  0.96200  Biso   1.000  H
  H28      1.0000 0.70540  0.97780  0.03800  Biso   1.000  H
  C41      1.0000 0.91890  0.03185  0.63172  Biso   1.000  C
  C42      1.0000 0.41890  0.46815  0.36828  Biso   1.000  C
  C43      1.0000 0.08110  0.53185  0.86828  Biso   1.000  C
  C44      1.0000 0.58110  0.96815  0.13172  Biso   1.000  C
  H29      1.0000 0.04770  0.06980  0.62320  Biso   1.000  H
  H30      1.0000 0.54770  0.43020  0.37680  Biso   1.000  H
  H31      1.0000 0.95230  0.56980  0.87680  Biso   1.000  H
  H32      1.0000 0.45230  0.93020  0.12320  Biso   1.000  H
  C45      1.0000 0.88600  0.00497  0.69586  Biso   1.000  C
  C46      1.0000 0.38600  0.49503  0.30414  Biso   1.000  C
  C47      1.0000 0.11400  0.50497  0.80414  Biso   1.000  C
  C48      1.0000 0.61400  0.99503  0.19586  Biso   1.000  C
  C49      1.0000 0.04270  0.04115  0.74632  Biso   1.000  C
  C50      1.0000 0.54270  0.45885  0.25368  Biso   1.000  C
  C51      1.0000 0.95730  0.54115  0.75368  Biso   1.000  C
  C52      1.0000 0.45730  0.95885  0.24632  Biso   1.000  C
  C53      1.0000 0.31850  0.13257  0.78500  Biso   1.000  C
  C54      1.0000 0.81850  0.36743  0.21500  Biso   1.000  C
  C55      1.0000 0.68150  0.63257  0.71500  Biso   1.000  C
  C56      1.0000 0.18150  0.86743  0.28500  Biso   1.000  C
  H33      1.0000 0.51100  0.12540  0.77610  Biso   1.000  H
  H34      1.0000 0.01100  0.37460  0.22390  Biso   1.000  H
  H35      1.0000 0.48900  0.62540  0.72390  Biso   1.000  H
  H36      1.0000 0.98900  0.87460  0.27610  Biso   1.000  H
  C57      1.0000 0.25470  0.21454  0.80407  Biso   1.000  C
  C58      1.0000 0.75470  0.28546  0.19593  Biso   1.000  C
  C59      1.0000 0.74530  0.71454  0.69593  Biso   1.000  C
  C60      1.0000 0.24530  0.78546  0.30407  Biso   1.000  C
  H37      1.0000 0.41510  0.24160  0.81890  Biso   1.000  H
  H38      1.0000 0.91510  0.25840  0.18110  Biso   1.000  H
  H39      1.0000 0.58490  0.74160  0.68110  Biso   1.000  H
  H40      1.0000 0.08490  0.75840  0.31890  Biso   1.000  H
  H41      1.0000 0.17620  0.24260  0.76700  Biso   1.000  H
  H42      1.0000 0.67620  0.25740  0.23300  Biso   1.000  H
  H43      1.0000 0.82380  0.74260  0.73300  Biso   1.000  H
  H44      1.0000 0.32380  0.75740  0.26700  Biso   1.000  H
  C61      1.0000 0.05890  0.20611  0.85887  Biso   1.000  C
  C62      1.0000 0.55890  0.29389  0.14113  Biso   1.000  C
  C63      1.0000 0.94110  0.70611  0.64113  Biso   1.000  C
  C64      1.0000 0.44110  0.79389  0.35887  Biso   1.000  C
  C65      1.0000 0.90880  0.26241  0.88863  Biso   1.000  C
  C66      1.0000 0.40880  0.23759  0.11137  Biso   1.000  C
  C67      1.0000 0.09120  0.76241  0.61137  Biso   1.000  C
  C68      1.0000 0.59120  0.73759  0.38863  Biso   1.000  C
  H45      1.0000 0.92840  0.31420  0.87640  Biso   1.000  H
  H46      1.0000 0.42840  0.18580  0.12360  Biso   1.000  H
  H47      1.0000 0.07160  0.81420  0.62360  Biso   1.000  H
  H48      1.0000 0.57160  0.68580  0.37640  Biso   1.000  H
  C69      1.0000 0.73010  0.24150  0.93650  Biso   1.000  C
  C70      1.0000 0.23010  0.25850  0.06350  Biso   1.000  C
  C71      1.0000 0.26990  0.74150  0.56350  Biso   1.000  C
  C72      1.0000 0.76990  0.75850  0.43650  Biso   1.000  C
  H49      1.0000 0.62500  0.27940  0.95690  Biso   1.000  H
  H50      1.0000 0.12500  0.22060  0.04310  Biso   1.000  H
  H51      1.0000 0.37500  0.77940  0.54310  Biso   1.000  H
  H52      1.0000 0.87500  0.72060  0.45690  Biso   1.000  H
  C73      1.0000 0.70250  0.16566  0.95509  Biso   1.000  C
  C74      1.0000 0.20250  0.33434  0.04491  Biso   1.000  C
  C75      1.0000 0.29750  0.66566  0.54491  Biso   1.000  C
  C76      1.0000 0.79750  0.83434  0.45509  Biso   1.000  C
  H53      1.0000 0.57670  0.15220  0.98740  Biso   1.000  H
  H54      1.0000 0.07670  0.34780  0.01260  Biso   1.000  H
  H55      1.0000 0.42330  0.65220  0.51260  Biso   1.000  H
  H56      1.0000 0.92330  0.84780  0.48740  Biso   1.000  H
  C77      1.0000 0.85810  0.10961  0.92663  Biso   1.000  C
  C78      1.0000 0.35810  0.39039  0.07337  Biso   1.000  C
  C79      1.0000 0.14190  0.60961  0.57337  Biso   1.000  C
  C80      1.0000 0.64190  0.89039  0.42663  Biso   1.000  C
  H57      1.0000 0.84160  0.05800  0.93960  Biso   1.000  H
  H58      1.0000 0.34160  0.44200  0.06040  Biso   1.000  H
  H59      1.0000 0.15840  0.55800  0.56040  Biso   1.000  H
  H60      1.0000 0.65840  0.94200  0.43960  Biso   1.000  H
  C81      1.0000 0.03710  0.13040  0.87911  Biso   1.000  C
  C82      1.0000 0.53710  0.36960  0.12089  Biso   1.000  C
  C83      1.0000 0.96290  0.63040  0.62089  Biso   1.000  C
  C84      1.0000 0.46290  0.86960  0.37911  Biso   1.000  C
  C85      1.0000 0.22160  0.08040  0.84001  Biso   1.000  C
  C86      1.0000 0.72160  0.41960  0.15999  Biso   1.000  C
  C87      1.0000 0.77840  0.58040  0.65999  Biso   1.000  C
  C88      1.0000 0.27840  0.91960  0.34001  Biso   1.000  C
  H61      1.0000 0.37040  0.06030  0.86700  Biso   1.000  H
  H62      1.0000 0.87040  0.43970  0.13300  Biso   1.000  H
  H63      1.0000 0.62960  0.56030  0.63300  Biso   1.000  H
  H64      1.0000 0.12960  0.93970  0.36700  Biso   1.000  H
