data_image0
_cell_length_a       13.062
_cell_length_b       8.8536
_cell_length_c       24.687
_cell_angle_alpha    90
_cell_angle_beta     95.719
_cell_angle_gamma    90

_symmetry_space_group_name_H-M    "P 1"
_symmetry_int_tables_number       1

loop_
  _symmetry_equiv_pos_as_xyz
  'x, y, z'

loop_
  _atom_site_label
  _atom_site_occupancy
  _atom_site_fract_x
  _atom_site_fract_y
  _atom_site_fract_z
  _atom_site_thermal_displace_type
  _atom_site_B_iso_or_equiv
  _atom_site_type_symbol
  O1       1.0000 0.48003  0.69120  0.16413  Biso   1.000  O
  O2       1.0000 0.01997  0.19120  0.33587  Biso   1.000  O
  O3       1.0000 0.51997  0.30880  0.83587  Biso   1.000  O
  O4       1.0000 0.98003  0.80880  0.66413  Biso   1.000  O
  H1       1.0000 0.47600  0.67500  0.12940  Biso   1.000  H
  H2       1.0000 0.02400  0.17500  0.37060  Biso   1.000  H
  H3       1.0000 0.52400  0.32500  0.87060  Biso   1.000  H
  H4       1.0000 0.97600  0.82500  0.62940  Biso   1.000  H
  H5       1.0000 0.54330  0.68300  0.17820  Biso   1.000  H
  H6       1.0000 0.95670  0.18300  0.32180  Biso   1.000  H
  H7       1.0000 0.45670  0.31700  0.82180  Biso   1.000  H
  H8       1.0000 0.04330  0.81700  0.67820  Biso   1.000  H
  O5       1.0000 0.70141  0.67860  0.19668  Biso   1.000  O
  O6       1.0000 0.79859  0.17860  0.30332  Biso   1.000  O
  O7       1.0000 0.29859  0.32140  0.80332  Biso   1.000  O
  O8       1.0000 0.20141  0.82140  0.69668  Biso   1.000  O
  H9       1.0000 0.71700  0.68300  0.16340  Biso   1.000  H
  H10      1.0000 0.78300  0.18300  0.33660  Biso   1.000  H
  H11      1.0000 0.28300  0.31700  0.83660  Biso   1.000  H
  H12      1.0000 0.21700  0.81700  0.66340  Biso   1.000  H
  H13      1.0000 0.73700  0.60800  0.21430  Biso   1.000  H
  H14      1.0000 0.76300  0.10800  0.28570  Biso   1.000  H
  H15      1.0000 0.26300  0.39200  0.78570  Biso   1.000  H
  H16      1.0000 0.23700  0.89200  0.71430  Biso   1.000  H
  O9       1.0000 0.17943  0.43500  0.20061  Biso   1.000  O
  O10      1.0000 0.32057  0.93500  0.29939  Biso   1.000  O
  O11      1.0000 0.82057  0.56500  0.79939  Biso   1.000  O
  O12      1.0000 0.67943  0.06500  0.70061  Biso   1.000  O
  H17      1.0000 0.20300  0.40800  0.17020  Biso   1.000  H
  H18      1.0000 0.29700  0.90800  0.32980  Biso   1.000  H
  H19      1.0000 0.79700  0.59200  0.82980  Biso   1.000  H
  H20      1.0000 0.70300  0.09200  0.67020  Biso   1.000  H
  H21      1.0000 0.21800  0.50900  0.21420  Biso   1.000  H
  H22      1.0000 0.28200  0.00900  0.28580  Biso   1.000  H
  H23      1.0000 0.78200  0.49100  0.78580  Biso   1.000  H
  H24      1.0000 0.71800  0.99100  0.71420  Biso   1.000  H
  O13      1.0000 0.96349  0.46940  0.17303  Biso   1.000  O
  O14      1.0000 0.53651  0.96940  0.32697  Biso   1.000  O
  O15      1.0000 0.03651  0.53060  0.82697  Biso   1.000  O
  O16      1.0000 0.46349  0.03060  0.67303  Biso   1.000  O
  H25      1.0000 0.03000  0.46600  0.18070  Biso   1.000  H
  H26      1.0000 0.47000  0.96600  0.31930  Biso   1.000  H
  H27      1.0000 0.97000  0.53400  0.81930  Biso   1.000  H
  H28      1.0000 0.53000  0.03400  0.68070  Biso   1.000  H
  H29      1.0000 0.95000  0.54400  0.15040  Biso   1.000  H
  H30      1.0000 0.55000  0.04400  0.34960  Biso   1.000  H
  H31      1.0000 0.05000  0.45600  0.84960  Biso   1.000  H
  H32      1.0000 0.45000  0.95600  0.65040  Biso   1.000  H
  O17      1.0000 0.83374  0.45430  0.25051  Biso   1.000  O
  O18      1.0000 0.66626  0.95430  0.24949  Biso   1.000  O
  O19      1.0000 0.16626  0.54570  0.74949  Biso   1.000  O
  O20      1.0000 0.33374  0.04570  0.75051  Biso   1.000  O
  H33      1.0000 0.82400  0.36600  0.26430  Biso   1.000  H
  H34      1.0000 0.67600  0.86600  0.23570  Biso   1.000  H
  H35      1.0000 0.17600  0.63400  0.73570  Biso   1.000  H
  H36      1.0000 0.32400  0.13400  0.76430  Biso   1.000  H
  H37      1.0000 0.88100  0.44900  0.22850  Biso   1.000  H
  H38      1.0000 0.61900  0.94900  0.27150  Biso   1.000  H
  H39      1.0000 0.11900  0.55100  0.77150  Biso   1.000  H
  H40      1.0000 0.38100  0.05100  0.72850  Biso   1.000  H
  N1       1.0000 0.59763  0.13690  0.15859  Biso   1.000  N
  N2       1.0000 0.90237  0.63690  0.34141  Biso   1.000  N
  N3       1.0000 0.40237  0.86310  0.84141  Biso   1.000  N
  N4       1.0000 0.09763  0.36310  0.65859  Biso   1.000  N
  H41      1.0000 0.61210  0.06990  0.18620  Biso   1.000  H
  H42      1.0000 0.88790  0.56990  0.31380  Biso   1.000  H
  H43      1.0000 0.38790  0.93010  0.81380  Biso   1.000  H
  H44      1.0000 0.11210  0.43010  0.68620  Biso   1.000  H
  H45      1.0000 0.58490  0.08230  0.12740  Biso   1.000  H
  H46      1.0000 0.91510  0.58230  0.37260  Biso   1.000  H
  H47      1.0000 0.41510  0.91770  0.87260  Biso   1.000  H
  H48      1.0000 0.08490  0.41770  0.62740  Biso   1.000  H
  C1       1.0000 0.69240  0.23020  0.15373  Biso   1.000  C
  C2       1.0000 0.80760  0.73020  0.34627  Biso   1.000  C
  C3       1.0000 0.30760  0.76980  0.84627  Biso   1.000  C
  C4       1.0000 0.19240  0.26980  0.65373  Biso   1.000  C
  H49      1.0000 0.70950  0.28580  0.18870  Biso   1.000  H
  H50      1.0000 0.79050  0.78580  0.31130  Biso   1.000  H
  H51      1.0000 0.29050  0.71420  0.81130  Biso   1.000  H
  H52      1.0000 0.20950  0.21420  0.68870  Biso   1.000  H
  C5       1.0000 0.67470  0.34400  0.10843  Biso   1.000  C
  C6       1.0000 0.82530  0.84400  0.39157  Biso   1.000  C
  C7       1.0000 0.32530  0.65600  0.89157  Biso   1.000  C
  C8       1.0000 0.17470  0.15600  0.60843  Biso   1.000  C
  H53      1.0000 0.65310  0.29170  0.07420  Biso   1.000  H
  H54      1.0000 0.84690  0.79170  0.42580  Biso   1.000  H
  H55      1.0000 0.34690  0.70830  0.92580  Biso   1.000  H
  H56      1.0000 0.15310  0.20830  0.57420  Biso   1.000  H
  H57      1.0000 0.73860  0.39940  0.10490  Biso   1.000  H
  H58      1.0000 0.76140  0.89940  0.39510  Biso   1.000  H
  H59      1.0000 0.26140  0.60060  0.89510  Biso   1.000  H
  H60      1.0000 0.23860  0.10060  0.60490  Biso   1.000  H
  H61      1.0000 0.62090  0.41500  0.11680  Biso   1.000  H
  H62      1.0000 0.87910  0.91500  0.38320  Biso   1.000  H
  H63      1.0000 0.37910  0.58500  0.88320  Biso   1.000  H
  H64      1.0000 0.12090  0.08500  0.61680  Biso   1.000  H
  C9       1.0000 0.78040  0.12470  0.14520  Biso   1.000  C
  C10      1.0000 0.71960  0.62470  0.35480  Biso   1.000  C
  C11      1.0000 0.21960  0.87530  0.85480  Biso   1.000  C
  C12      1.0000 0.28040  0.37530  0.64520  Biso   1.000  C
  H65      1.0000 0.78840  0.05080  0.17490  Biso   1.000  H
  H66      1.0000 0.71160  0.55080  0.32510  Biso   1.000  H
  H67      1.0000 0.21160  0.94920  0.82510  Biso   1.000  H
  H68      1.0000 0.28840  0.44920  0.67490  Biso   1.000  H
  H69      1.0000 0.84410  0.18310  0.14480  Biso   1.000  H
  H70      1.0000 0.65590  0.68310  0.35520  Biso   1.000  H
  H71      1.0000 0.15590  0.81690  0.85520  Biso   1.000  H
  H72      1.0000 0.34410  0.31690  0.64480  Biso   1.000  H
  H73      1.0000 0.76590  0.07180  0.11040  Biso   1.000  H
  H74      1.0000 0.73410  0.57180  0.38960  Biso   1.000  H
  H75      1.0000 0.23410  0.92820  0.88960  Biso   1.000  H
  H76      1.0000 0.26590  0.42820  0.61040  Biso   1.000  H
  C13      1.0000 0.50040  0.21860  0.16851  Biso   1.000  C
  C14      1.0000 0.99960  0.71860  0.33149  Biso   1.000  C
  C15      1.0000 0.49960  0.78140  0.83149  Biso   1.000  C
  C16      1.0000 0.00040  0.28140  0.66851  Biso   1.000  C
  H77      1.0000 0.47950  0.28500  0.13650  Biso   1.000  H
  H78      1.0000 0.02050  0.78500  0.36350  Biso   1.000  H
  H79      1.0000 0.52050  0.71500  0.86350  Biso   1.000  H
  H80      1.0000 0.97950  0.21500  0.63650  Biso   1.000  H
  C17      1.0000 0.41750  0.10080  0.17310  Biso   1.000  C
  C18      1.0000 0.08250  0.60080  0.32690  Biso   1.000  C
  C19      1.0000 0.58250  0.89920  0.82690  Biso   1.000  C
  C20      1.0000 0.91750  0.39920  0.67310  Biso   1.000  C
  H81      1.0000 0.40880  0.04090  0.13960  Biso   1.000  H
  H82      1.0000 0.09120  0.54090  0.36040  Biso   1.000  H
  H83      1.0000 0.59120  0.95910  0.86040  Biso   1.000  H
  H84      1.0000 0.90880  0.45910  0.63960  Biso   1.000  H
  H85      1.0000 0.35250  0.15110  0.17860  Biso   1.000  H
  H86      1.0000 0.14750  0.65110  0.32140  Biso   1.000  H
  H87      1.0000 0.64750  0.84890  0.82140  Biso   1.000  H
  H88      1.0000 0.85250  0.34890  0.67860  Biso   1.000  H
  H89      1.0000 0.43760  0.03440  0.20410  Biso   1.000  H
  H90      1.0000 0.06240  0.53440  0.29590  Biso   1.000  H
  H91      1.0000 0.56240  0.96560  0.79590  Biso   1.000  H
  H92      1.0000 0.93760  0.46560  0.70410  Biso   1.000  H
  C21      1.0000 0.51720  0.31590  0.21919  Biso   1.000  C
  C22      1.0000 0.98280  0.81590  0.28081  Biso   1.000  C
  C23      1.0000 0.48280  0.68410  0.78081  Biso   1.000  C
  C24      1.0000 0.01720  0.18410  0.71919  Biso   1.000  C
  H93      1.0000 0.45270  0.36650  0.22540  Biso   1.000  H
  H94      1.0000 0.04730  0.86650  0.27460  Biso   1.000  H
  H95      1.0000 0.54730  0.63350  0.77460  Biso   1.000  H
  H96      1.0000 0.95270  0.13350  0.72540  Biso   1.000  H
  H97      1.0000 0.57010  0.39180  0.21430  Biso   1.000  H
  H98      1.0000 0.92990  0.89180  0.28570  Biso   1.000  H
  H99      1.0000 0.42990  0.60820  0.78570  Biso   1.000  H
  H100     1.0000 0.07010  0.10820  0.71430  Biso   1.000  H
  H101     1.0000 0.53970  0.25220  0.25060  Biso   1.000  H
  H102     1.0000 0.96030  0.75220  0.24940  Biso   1.000  H
  H103     1.0000 0.46030  0.74780  0.74940  Biso   1.000  H
  H104     1.0000 0.03970  0.24780  0.75060  Biso   1.000  H
  H105     1.0000 0.31900  0.74200  0.25090  Biso   1.000  H
  H106     1.0000 0.18100  0.24200  0.24910  Biso   1.000  H
  H107     1.0000 0.68100  0.25800  0.74910  Biso   1.000  H
  H108     1.0000 0.81900  0.75800  0.75090  Biso   1.000  H
  O21      1.0000 0.33060  0.65420  0.23684  Biso   1.000  O
  O22      1.0000 0.16940  0.15420  0.26316  Biso   1.000  O
  O23      1.0000 0.66940  0.34580  0.76316  Biso   1.000  O
  O24      1.0000 0.83060  0.84580  0.73684  Biso   1.000  O
  H109     1.0000 0.37400  0.66600  0.21270  Biso   1.000  H
  H110     1.0000 0.12600  0.16600  0.28730  Biso   1.000  H
  H111     1.0000 0.62600  0.33400  0.78730  Biso   1.000  H
  H112     1.0000 0.87400  0.83400  0.71270  Biso   1.000  H
  O25      1.0000 0.74822  0.63390  0.89753  Biso   1.000  O
  O26      1.0000 0.75178  0.13390  0.60247  Biso   1.000  O
  O27      1.0000 0.25178  0.36610  0.10247  Biso   1.000  O
  O28      1.0000 0.24822  0.86610  0.39753  Biso   1.000  O
  H113     1.0000 0.79900  0.57500  0.89290  Biso   1.000  H
  H114     1.0000 0.70100  0.07500  0.60710  Biso   1.000  H
  H115     1.0000 0.20100  0.42500  0.10710  Biso   1.000  H
  H116     1.0000 0.29900  0.92500  0.39290  Biso   1.000  H
  H117     1.0000 0.70100  0.58800  0.91390  Biso   1.000  H
  H118     1.0000 0.79900  0.08800  0.58610  Biso   1.000  H
  H119     1.0000 0.29900  0.41200  0.08610  Biso   1.000  H
  H120     1.0000 0.20100  0.91200  0.41390  Biso   1.000  H
  N5       1.0000 0.90081  0.12970  0.93082  Biso   1.000  N
  N6       1.0000 0.59919  0.62970  0.56918  Biso   1.000  N
  N7       1.0000 0.09919  0.87030  0.06918  Biso   1.000  N
  N8       1.0000 0.40081  0.37030  0.43082  Biso   1.000  N
  H121     1.0000 0.96500  0.16580  0.92720  Biso   1.000  H
  H122     1.0000 0.53500  0.66580  0.57280  Biso   1.000  H
  H123     1.0000 0.03500  0.83420  0.07280  Biso   1.000  H
  H124     1.0000 0.46500  0.33420  0.42720  Biso   1.000  H
  H125     1.0000 0.90630  0.06560  0.95980  Biso   1.000  H
  H126     1.0000 0.59370  0.56560  0.54020  Biso   1.000  H
  H127     1.0000 0.09370  0.93440  0.04020  Biso   1.000  H
  H128     1.0000 0.40630  0.43440  0.45980  Biso   1.000  H
  C25      1.0000 0.83460  0.26060  0.94448  Biso   1.000  C
  C26      1.0000 0.66540  0.76060  0.55552  Biso   1.000  C
  C27      1.0000 0.16540  0.73940  0.05552  Biso   1.000  C
  C28      1.0000 0.33460  0.23940  0.44448  Biso   1.000  C
  H129     1.0000 0.83270  0.33620  0.91430  Biso   1.000  H
  H130     1.0000 0.66730  0.83620  0.58570  Biso   1.000  H
  H131     1.0000 0.16730  0.66380  0.08570  Biso   1.000  H
  H132     1.0000 0.33270  0.16380  0.41430  Biso   1.000  H
  C29      1.0000 0.88390  0.33260  0.99572  Biso   1.000  C
  C30      1.0000 0.61610  0.83260  0.50428  Biso   1.000  C
  C31      1.0000 0.11610  0.66740  0.00428  Biso   1.000  C
  C32      1.0000 0.38390  0.16740  0.49572  Biso   1.000  C
  H133     1.0000 0.88630  0.25960  0.02560  Biso   1.000  H
  H134     1.0000 0.61370  0.75960  0.47440  Biso   1.000  H
  H135     1.0000 0.11370  0.74040  0.97440  Biso   1.000  H
  H136     1.0000 0.38630  0.24040  0.52560  Biso   1.000  H
  H137     1.0000 0.84350  0.42080  0.00470  Biso   1.000  H
  H138     1.0000 0.65650  0.92080  0.49530  Biso   1.000  H
  H139     1.0000 0.15650  0.57920  0.99530  Biso   1.000  H
  H140     1.0000 0.34350  0.07920  0.50470  Biso   1.000  H
  H141     1.0000 0.95400  0.36440  0.99020  Biso   1.000  H
  H142     1.0000 0.54600  0.86440  0.50980  Biso   1.000  H
  H143     1.0000 0.04600  0.63560  0.00980  Biso   1.000  H
  H144     1.0000 0.45400  0.13560  0.49020  Biso   1.000  H
  C33      1.0000 0.72590  0.20740  0.94996  Biso   1.000  C
  C34      1.0000 0.77410  0.70740  0.55004  Biso   1.000  C
  C35      1.0000 0.27410  0.79260  0.05004  Biso   1.000  C
  C36      1.0000 0.22590  0.29260  0.44996  Biso   1.000  C
  H145     1.0000 0.69520  0.16920  0.91480  Biso   1.000  H
  H146     1.0000 0.80480  0.66920  0.58520  Biso   1.000  H
  H147     1.0000 0.30480  0.83080  0.08520  Biso   1.000  H
  H148     1.0000 0.19520  0.33080  0.41480  Biso   1.000  H
  H149     1.0000 0.68480  0.29200  0.96150  Biso   1.000  H
  H150     1.0000 0.81520  0.79200  0.53850  Biso   1.000  H
  H151     1.0000 0.31520  0.70800  0.03850  Biso   1.000  H
  H152     1.0000 0.18480  0.20800  0.46150  Biso   1.000  H
  H153     1.0000 0.72740  0.12660  0.97720  Biso   1.000  H
  H154     1.0000 0.77260  0.62660  0.52280  Biso   1.000  H
  H155     1.0000 0.27260  0.87340  0.02280  Biso   1.000  H
  H156     1.0000 0.22740  0.37340  0.47720  Biso   1.000  H
  C37      1.0000 0.86720  0.03910  0.88087  Biso   1.000  C
  C38      1.0000 0.63280  0.53910  0.61913  Biso   1.000  C
  C39      1.0000 0.13280  0.96090  0.11913  Biso   1.000  C
  C40      1.0000 0.36720  0.46090  0.38087  Biso   1.000  C
  H157     1.0000 0.79960  0.99040  0.88570  Biso   1.000  H
  H158     1.0000 0.70040  0.49040  0.61430  Biso   1.000  H
  H159     1.0000 0.20040  0.00960  0.11430  Biso   1.000  H
  H160     1.0000 0.29960  0.50960  0.38570  Biso   1.000  H
  C41      1.0000 0.94590  0.91750  0.87554  Biso   1.000  C
  C42      1.0000 0.55410  0.41750  0.62446  Biso   1.000  C
  C43      1.0000 0.05410  0.08250  0.12446  Biso   1.000  C
  C44      1.0000 0.44590  0.58250  0.37554  Biso   1.000  C
  H161     1.0000 0.01280  0.96400  0.87150  Biso   1.000  H
  H162     1.0000 0.48720  0.46400  0.62850  Biso   1.000  H
  H163     1.0000 0.98720  0.03600  0.12850  Biso   1.000  H
  H164     1.0000 0.51280  0.53600  0.37150  Biso   1.000  H
  H165     1.0000 0.92500  0.85550  0.84350  Biso   1.000  H
  H166     1.0000 0.57500  0.35550  0.65650  Biso   1.000  H
  H167     1.0000 0.07500  0.14450  0.15650  Biso   1.000  H
  H168     1.0000 0.42500  0.64450  0.34350  Biso   1.000  H
  H169     1.0000 0.95130  0.85390  0.90820  Biso   1.000  H
  H170     1.0000 0.54870  0.35390  0.59180  Biso   1.000  H
  H171     1.0000 0.04870  0.14610  0.09180  Biso   1.000  H
  H172     1.0000 0.45130  0.64610  0.40820  Biso   1.000  H
  C45      1.0000 0.85370  0.14120  0.83172  Biso   1.000  C
  C46      1.0000 0.64630  0.64120  0.66828  Biso   1.000  C
  C47      1.0000 0.14630  0.85880  0.16828  Biso   1.000  C
  C48      1.0000 0.35370  0.35880  0.33172  Biso   1.000  C
  H173     1.0000 0.79910  0.21470  0.83620  Biso   1.000  H
  H174     1.0000 0.70090  0.71470  0.66380  Biso   1.000  H
  H175     1.0000 0.20090  0.78530  0.16380  Biso   1.000  H
  H176     1.0000 0.29910  0.28530  0.33620  Biso   1.000  H
  H177     1.0000 0.83510  0.08060  0.79900  Biso   1.000  H
  H178     1.0000 0.66490  0.58060  0.70100  Biso   1.000  H
  H179     1.0000 0.16490  0.91940  0.20100  Biso   1.000  H
  H180     1.0000 0.33510  0.41940  0.29900  Biso   1.000  H
  H181     1.0000 0.91830  0.19470  0.82800  Biso   1.000  H
  H182     1.0000 0.58170  0.69470  0.67200  Biso   1.000  H
  H183     1.0000 0.08170  0.80530  0.17200  Biso   1.000  H
  H184     1.0000 0.41830  0.30530  0.32800  Biso   1.000  H
  Cu1      1.0000 0.62576  0.74838  0.02296  Biso   1.000  Cu
  Cu2      1.0000 0.87424  0.24838  0.47704  Biso   1.000  Cu
  Cu3      1.0000 0.37424  0.25162  0.97704  Biso   1.000  Cu
  Cu4      1.0000 0.12576  0.75162  0.52296  Biso   1.000  Cu
  O29      1.0000 0.74115  0.83940  0.98975  Biso   1.000  O
  O30      1.0000 0.75885  0.33940  0.51025  Biso   1.000  O
  O31      1.0000 0.25885  0.16060  0.01025  Biso   1.000  O
  O32      1.0000 0.24115  0.66060  0.48975  Biso   1.000  O
  O33      1.0000 0.73346  0.69750  0.08343  Biso   1.000  O
  O34      1.0000 0.76654  0.19750  0.41657  Biso   1.000  O
  O35      1.0000 0.26654  0.30250  0.91657  Biso   1.000  O
  O36      1.0000 0.23346  0.80250  0.58343  Biso   1.000  O
  O37      1.0000 0.90379  0.90770  0.01335  Biso   1.000  O
  O38      1.0000 0.59621  0.40770  0.48665  Biso   1.000  O
  O39      1.0000 0.09621  0.09230  0.98665  Biso   1.000  O
  O40      1.0000 0.40379  0.59230  0.51335  Biso   1.000  O
  O41      1.0000 0.90456  0.72020  0.10222  Biso   1.000  O
  O42      1.0000 0.59544  0.22020  0.39778  Biso   1.000  O
  O43      1.0000 0.09544  0.27980  0.89778  Biso   1.000  O
  O44      1.0000 0.40456  0.77980  0.60222  Biso   1.000  O
  O45      1.0000 0.57419  0.96950  0.06217  Biso   1.000  O
  O46      1.0000 0.92581  0.46950  0.43783  Biso   1.000  O
  O47      1.0000 0.42581  0.03050  0.93783  Biso   1.000  O
  O48      1.0000 0.07419  0.53050  0.56217  Biso   1.000  O
  O49      1.0000 0.39159  0.46230  0.03349  Biso   1.000  O
  O50      1.0000 0.10841  0.96230  0.46651  Biso   1.000  O
  O51      1.0000 0.60841  0.53770  0.96651  Biso   1.000  O
  O52      1.0000 0.89159  0.03770  0.53349  Biso   1.000  O
  O53      1.0000 0.51518  0.63364  0.05321  Biso   1.000  O
  O54      1.0000 0.98482  0.13364  0.44679  Biso   1.000  O
  O55      1.0000 0.48482  0.36636  0.94679  Biso   1.000  O
  O56      1.0000 0.01518  0.86636  0.55321  Biso   1.000  O
  O57      1.0000 0.47234  0.16370  0.03611  Biso   1.000  O
  O58      1.0000 0.02766  0.66370  0.46389  Biso   1.000  O
  O59      1.0000 0.52766  0.83630  0.96389  Biso   1.000  O
  O60      1.0000 0.97234  0.33630  0.53611  Biso   1.000  O
  C49      1.0000 0.82449  0.83930  0.02158  Biso   1.000  C
  C50      1.0000 0.67551  0.33930  0.47842  Biso   1.000  C
  C51      1.0000 0.17551  0.16070  0.97842  Biso   1.000  C
  C52      1.0000 0.32449  0.66070  0.52158  Biso   1.000  C
  C53      1.0000 0.82267  0.74420  0.07405  Biso   1.000  C
  C54      1.0000 0.67733  0.24420  0.42595  Biso   1.000  C
  C55      1.0000 0.17733  0.25580  0.92595  Biso   1.000  C
  C56      1.0000 0.32267  0.75580  0.57405  Biso   1.000  C
  C57      1.0000 0.51318  0.03790  0.02814  Biso   1.000  C
  C58      1.0000 0.98682  0.53790  0.47186  Biso   1.000  C
  C59      1.0000 0.48682  0.96210  0.97186  Biso   1.000  C
  C60      1.0000 0.01318  0.46210  0.52814  Biso   1.000  C
  C61      1.0000 0.47272  0.52660  0.02485  Biso   1.000  C
  C62      1.0000 0.02728  0.02660  0.47515  Biso   1.000  C
  C63      1.0000 0.52728  0.47340  0.97515  Biso   1.000  C
  C64      1.0000 0.97272  0.97340  0.52485  Biso   1.000  C
