data_image0
_cell_length_a       17.076
_cell_length_b       19.341
_cell_length_c       13.481
_cell_angle_alpha    90
_cell_angle_beta     90
_cell_angle_gamma    90

_symmetry_space_group_name_H-M    "P 1"
_symmetry_int_tables_number       1

loop_
  _symmetry_equiv_pos_as_xyz
  'x, y, z'

loop_
  _atom_site_label
  _atom_site_occupancy
  _atom_site_fract_x
  _atom_site_fract_y
  _atom_site_fract_z
  _atom_site_thermal_displace_type
  _atom_site_B_iso_or_equiv
  _atom_site_type_symbol
  Cu1      1.0000 0.74340  0.39747  0.50000  Biso   1.000  Cu
  Cu2      1.0000 0.25660  0.60253  0.50000  Biso   1.000  Cu
  Cu3      1.0000 0.24340  0.10253  0.00000  Biso   1.000  Cu
  Cu4      1.0000 0.75660  0.89747  0.00000  Biso   1.000  Cu
  Cu5      1.0000 0.78112  0.53035  0.63488  Biso   1.000  Cu
  Cu6      1.0000 0.21888  0.46965  0.63488  Biso   1.000  Cu
  Cu7      1.0000 0.28112  0.96965  0.13488  Biso   1.000  Cu
  Cu8      1.0000 0.71888  0.03035  0.13488  Biso   1.000  Cu
  Cu9      1.0000 0.70975  0.26090  0.36270  Biso   1.000  Cu
  Cu10     1.0000 0.29025  0.73910  0.36270  Biso   1.000  Cu
  Cu11     1.0000 0.20975  0.23910  0.86270  Biso   1.000  Cu
  Cu12     1.0000 0.79025  0.76090  0.86270  Biso   1.000  Cu
  Cl1      1.0000 0.59672  0.33689  0.44260  Biso   1.000  Cl
  Cl2      1.0000 0.40328  0.66311  0.44260  Biso   1.000  Cl
  Cl3      1.0000 0.09672  0.16311  0.94260  Biso   1.000  Cl
  Cl4      1.0000 0.90328  0.83689  0.94260  Biso   1.000  Cl
  Cl5      1.0000 0.88731  0.44800  0.56230  Biso   1.000  Cl
  Cl6      1.0000 0.11269  0.55200  0.56230  Biso   1.000  Cl
  Cl7      1.0000 0.38731  0.05200  0.06230  Biso   1.000  Cl
  Cl8      1.0000 0.61269  0.94800  0.06230  Biso   1.000  Cl
  O1       1.0000 0.69930  0.47520  0.57660  Biso   1.000  O
  O2       1.0000 0.30070  0.52480  0.57660  Biso   1.000  O
  O3       1.0000 0.19930  0.02480  0.07660  Biso   1.000  O
  O4       1.0000 0.80070  0.97520  0.07660  Biso   1.000  O
  O5       1.0000 0.78470  0.32050  0.42450  Biso   1.000  O
  O6       1.0000 0.21530  0.67950  0.42450  Biso   1.000  O
  O7       1.0000 0.28470  0.17950  0.92450  Biso   1.000  O
  O8       1.0000 0.71530  0.82050  0.92450  Biso   1.000  O
  N1       1.0000 0.86370  0.69690  0.79680  Biso   1.000  N
  N2       1.0000 0.13630  0.30310  0.79680  Biso   1.000  N
  N3       1.0000 0.36370  0.80310  0.29680  Biso   1.000  N
  N4       1.0000 0.63630  0.19690  0.29680  Biso   1.000  N
  C1       1.0000 0.82050  0.64630  0.74960  Biso   1.000  C
  C2       1.0000 0.17950  0.35370  0.74960  Biso   1.000  C
  C3       1.0000 0.32050  0.85370  0.24960  Biso   1.000  C
  C4       1.0000 0.67950  0.14630  0.24960  Biso   1.000  C
  O9       1.0000 0.74820  0.64680  0.74980  Biso   1.000  O
  O10      1.0000 0.25180  0.35320  0.74980  Biso   1.000  O
  O11      1.0000 0.24820  0.85320  0.24980  Biso   1.000  O
  O12      1.0000 0.75180  0.14680  0.24980  Biso   1.000  O
  N5       1.0000 0.86080  0.59390  0.69740  Biso   1.000  N
  N6       1.0000 0.13920  0.40610  0.69740  Biso   1.000  N
  N7       1.0000 0.36080  0.90610  0.19740  Biso   1.000  N
  N8       1.0000 0.63920  0.09390  0.19740  Biso   1.000  N
  C5       1.0000 0.93690  0.59410  0.69390  Biso   1.000  C
  C6       1.0000 0.06310  0.40590  0.69390  Biso   1.000  C
  C7       1.0000 0.43690  0.90590  0.19390  Biso   1.000  C
  C8       1.0000 0.56310  0.09410  0.19390  Biso   1.000  C
  H1       1.0000 0.96320  0.55910  0.65740  Biso   1.000  H
  H2       1.0000 0.03680  0.44090  0.65740  Biso   1.000  H
  H3       1.0000 0.46320  0.94090  0.15740  Biso   1.000  H
  H4       1.0000 0.53680  0.05910  0.15740  Biso   1.000  H
  C9       1.0000 0.98020  0.64490  0.73940  Biso   1.000  C
  C10      1.0000 0.01980  0.35510  0.73940  Biso   1.000  C
  C11      1.0000 0.48020  0.85510  0.23940  Biso   1.000  C
  C12      1.0000 0.51980  0.14490  0.23940  Biso   1.000  C
  H5       1.0000 0.03580  0.64500  0.73750  Biso   1.000  H
  H6       1.0000 0.96420  0.35500  0.73750  Biso   1.000  H
  H7       1.0000 0.53580  0.85500  0.23750  Biso   1.000  H
  H8       1.0000 0.46420  0.14500  0.23750  Biso   1.000  H
  C13      1.0000 0.93980  0.69640  0.79190  Biso   1.000  C
  C14      1.0000 0.06020  0.30360  0.79190  Biso   1.000  C
  C15      1.0000 0.43980  0.80360  0.29190  Biso   1.000  C
  C16      1.0000 0.56020  0.19640  0.29190  Biso   1.000  C
  H9       1.0000 0.96850  0.73190  0.82430  Biso   1.000  H
  H10      1.0000 0.03150  0.26810  0.82430  Biso   1.000  H
  H11      1.0000 0.46850  0.76810  0.32430  Biso   1.000  H
  H12      1.0000 0.53150  0.23190  0.32430  Biso   1.000  H
  N9       1.0000 0.74710  0.45720  0.37440  Biso   1.000  N
  N10      1.0000 0.25290  0.54280  0.37440  Biso   1.000  N
  N11      1.0000 0.24710  0.04280  0.87440  Biso   1.000  N
  N12      1.0000 0.75290  0.95720  0.87440  Biso   1.000  N
  C17      1.0000 0.68740  0.49760  0.34780  Biso   1.000  C
  C18      1.0000 0.31260  0.50240  0.34780  Biso   1.000  C
  C19      1.0000 0.18740  0.00240  0.84780  Biso   1.000  C
  C20      1.0000 0.81260  0.99760  0.84780  Biso   1.000  C
  H13      1.0000 0.64090  0.49680  0.38650  Biso   1.000  H
  H14      1.0000 0.35910  0.50320  0.38650  Biso   1.000  H
  H15      1.0000 0.14090  0.00320  0.88650  Biso   1.000  H
  H16      1.0000 0.85910  0.99680  0.88650  Biso   1.000  H
  C21      1.0000 0.69060  0.54010  0.26720  Biso   1.000  C
  C22      1.0000 0.30940  0.45990  0.26720  Biso   1.000  C
  C23      1.0000 0.19060  0.95990  0.76720  Biso   1.000  C
  C24      1.0000 0.80940  0.04010  0.76720  Biso   1.000  C
  H17      1.0000 0.64710  0.56830  0.25040  Biso   1.000  H
  H18      1.0000 0.35290  0.43170  0.25040  Biso   1.000  H
  H19      1.0000 0.14710  0.93170  0.75040  Biso   1.000  H
  H20      1.0000 0.85290  0.06830  0.75040  Biso   1.000  H
  C25      1.0000 0.75630  0.54220  0.21030  Biso   1.000  C
  C26      1.0000 0.24370  0.45780  0.21030  Biso   1.000  C
  C27      1.0000 0.25630  0.95780  0.71030  Biso   1.000  C
  C28      1.0000 0.74370  0.04220  0.71030  Biso   1.000  C
  C29      1.0000 0.81950  0.49900  0.23600  Biso   1.000  C
  C30      1.0000 0.18050  0.50100  0.23600  Biso   1.000  C
  C31      1.0000 0.31950  0.00100  0.73600  Biso   1.000  C
  C32      1.0000 0.68050  0.99900  0.73600  Biso   1.000  C
  H21      1.0000 0.86560  0.49770  0.19660  Biso   1.000  H
  H22      1.0000 0.13440  0.50230  0.19660  Biso   1.000  H
  H23      1.0000 0.36560  0.00230  0.69660  Biso   1.000  H
  H24      1.0000 0.63440  0.99770  0.69660  Biso   1.000  H
  C33      1.0000 0.81200  0.45770  0.32010  Biso   1.000  C
  C34      1.0000 0.18800  0.54230  0.32010  Biso   1.000  C
  C35      1.0000 0.31200  0.04230  0.82010  Biso   1.000  C
  C36      1.0000 0.68800  0.95770  0.82010  Biso   1.000  C
  H25      1.0000 0.85470  0.42920  0.33920  Biso   1.000  H
  H26      1.0000 0.14530  0.57080  0.33920  Biso   1.000  H
  H27      1.0000 0.35470  0.07080  0.83920  Biso   1.000  H
  H28      1.0000 0.64530  0.92920  0.83920  Biso   1.000  H
  N13      1.0000 0.73850  0.33650  0.62300  Biso   1.000  N
  N14      1.0000 0.26150  0.66350  0.62300  Biso   1.000  N
  N15      1.0000 0.23850  0.16350  0.12300  Biso   1.000  N
  N16      1.0000 0.76150  0.83650  0.12300  Biso   1.000  N
  C37      1.0000 0.67600  0.33230  0.68180  Biso   1.000  C
  C38      1.0000 0.32400  0.66770  0.68180  Biso   1.000  C
  C39      1.0000 0.17600  0.16770  0.18180  Biso   1.000  C
  C40      1.0000 0.82400  0.83230  0.18180  Biso   1.000  C
  H29      1.0000 0.63240  0.36100  0.66700  Biso   1.000  H
  H30      1.0000 0.36760  0.63900  0.66700  Biso   1.000  H
  H31      1.0000 0.13240  0.13900  0.16700  Biso   1.000  H
  H32      1.0000 0.86760  0.86100  0.16700  Biso   1.000  H
  C41      1.0000 0.67030  0.28850  0.76180  Biso   1.000  C
  C42      1.0000 0.32970  0.71150  0.76180  Biso   1.000  C
  C43      1.0000 0.17030  0.21150  0.26180  Biso   1.000  C
  C44      1.0000 0.82970  0.78850  0.26180  Biso   1.000  C
  H33      1.0000 0.62270  0.28520  0.79790  Biso   1.000  H
  H34      1.0000 0.37730  0.71480  0.79790  Biso   1.000  H
  H35      1.0000 0.12270  0.21480  0.29790  Biso   1.000  H
  H36      1.0000 0.87730  0.78520  0.29790  Biso   1.000  H
  C45      1.0000 0.73510  0.24940  0.78950  Biso   1.000  C
  C46      1.0000 0.26490  0.75060  0.78950  Biso   1.000  C
  C47      1.0000 0.23510  0.25060  0.28950  Biso   1.000  C
  C48      1.0000 0.76490  0.74940  0.28950  Biso   1.000  C
  C49      1.0000 0.80110  0.25370  0.72950  Biso   1.000  C
  C50      1.0000 0.19890  0.74630  0.72950  Biso   1.000  C
  C51      1.0000 0.30110  0.24630  0.22950  Biso   1.000  C
  C52      1.0000 0.69890  0.75370  0.22950  Biso   1.000  C
  H37      1.0000 0.84560  0.22600  0.74400  Biso   1.000  H
  H38      1.0000 0.15440  0.77400  0.74400  Biso   1.000  H
  H39      1.0000 0.34560  0.27400  0.24400  Biso   1.000  H
  H40      1.0000 0.65440  0.72600  0.24400  Biso   1.000  H
  C53      1.0000 0.80270  0.29730  0.64800  Biso   1.000  C
  C54      1.0000 0.19730  0.70270  0.64800  Biso   1.000  C
  C55      1.0000 0.30270  0.20270  0.14800  Biso   1.000  C
  C56      1.0000 0.69730  0.79730  0.14800  Biso   1.000  C
  H41      1.0000 0.84880  0.30030  0.60880  Biso   1.000  H
  H42      1.0000 0.15120  0.69970  0.60880  Biso   1.000  H
  H43      1.0000 0.34880  0.19970  0.10880  Biso   1.000  H
  H44      1.0000 0.65120  0.80030  0.10880  Biso   1.000  H
  N17      1.0000 0.72590  0.10000  0.02120  Biso   1.000  N
  N18      1.0000 0.27410  0.90000  0.02120  Biso   1.000  N
  N19      1.0000 0.22590  0.40000  0.52120  Biso   1.000  N
  N20      1.0000 0.77410  0.60000  0.52120  Biso   1.000  N
  C57      1.0000 0.66440  0.11450  0.96750  Biso   1.000  C
  C58      1.0000 0.33560  0.88550  0.96750  Biso   1.000  C
  C59      1.0000 0.16440  0.38550  0.46750  Biso   1.000  C
  C60      1.0000 0.83560  0.61450  0.46750  Biso   1.000  C
  H45      1.0000 0.61680  0.09120  0.98190  Biso   1.000  H
  H46      1.0000 0.38320  0.90880  0.98190  Biso   1.000  H
  H47      1.0000 0.11680  0.40880  0.48190  Biso   1.000  H
  H48      1.0000 0.88320  0.59120  0.48190  Biso   1.000  H
  C61      1.0000 0.66430  0.16260  0.89190  Biso   1.000  C
  C62      1.0000 0.33570  0.83740  0.89190  Biso   1.000  C
  C63      1.0000 0.16430  0.33740  0.39190  Biso   1.000  C
  C64      1.0000 0.83570  0.66260  0.39190  Biso   1.000  C
  H49      1.0000 0.61880  0.16980  0.85270  Biso   1.000  H
  H50      1.0000 0.38120  0.83020  0.85270  Biso   1.000  H
  H51      1.0000 0.11880  0.33020  0.35270  Biso   1.000  H
  H52      1.0000 0.88120  0.66980  0.35270  Biso   1.000  H
  C65      1.0000 0.73100  0.20000  0.87290  Biso   1.000  C
  C66      1.0000 0.26900  0.80000  0.87290  Biso   1.000  C
  C67      1.0000 0.23100  0.30000  0.37290  Biso   1.000  C
  C68      1.0000 0.76900  0.70000  0.37290  Biso   1.000  C
  C69      1.0000 0.79680  0.18400  0.93110  Biso   1.000  C
  C70      1.0000 0.20320  0.81600  0.93110  Biso   1.000  C
  C71      1.0000 0.29680  0.31600  0.43110  Biso   1.000  C
  C72      1.0000 0.70320  0.68400  0.43110  Biso   1.000  C
  H53      1.0000 0.84540  0.20650  0.91940  Biso   1.000  H
  H54      1.0000 0.15460  0.79350  0.91940  Biso   1.000  H
  H55      1.0000 0.34540  0.29350  0.41940  Biso   1.000  H
  H56      1.0000 0.65460  0.70650  0.41940  Biso   1.000  H
  C73      1.0000 0.79100  0.13590  0.00440  Biso   1.000  C
  C74      1.0000 0.20900  0.86410  0.00440  Biso   1.000  C
  C75      1.0000 0.29100  0.36410  0.50440  Biso   1.000  C
  C76      1.0000 0.70900  0.63590  0.50440  Biso   1.000  C
  H57      1.0000 0.83530  0.12720  0.04520  Biso   1.000  H
  H58      1.0000 0.16470  0.87280  0.04520  Biso   1.000  H
  H59      1.0000 0.33530  0.37280  0.54520  Biso   1.000  H
  H60      1.0000 0.66470  0.62720  0.54520  Biso   1.000  H
  N21      1.0000 0.76590  0.48320  0.76890  Biso   1.000  N
  N22      1.0000 0.23410  0.51680  0.76890  Biso   1.000  N
  N23      1.0000 0.26590  0.01680  0.26890  Biso   1.000  N
  N24      1.0000 0.73410  0.98320  0.26890  Biso   1.000  N
  C77      1.0000 0.69870  0.47840  0.81230  Biso   1.000  C
  C78      1.0000 0.30130  0.52160  0.81230  Biso   1.000  C
  C79      1.0000 0.19870  0.02160  0.31230  Biso   1.000  C
  C80      1.0000 0.80130  0.97840  0.31230  Biso   1.000  C
  H61      1.0000 0.65500  0.49850  0.77970  Biso   1.000  H
  H62      1.0000 0.34500  0.50150  0.77970  Biso   1.000  H
  H63      1.0000 0.15500  0.00150  0.27970  Biso   1.000  H
  H64      1.0000 0.84500  0.99850  0.27970  Biso   1.000  H
  C81      1.0000 0.68550  0.44680  0.90380  Biso   1.000  C
  C82      1.0000 0.31450  0.55320  0.90380  Biso   1.000  C
  C83      1.0000 0.18550  0.05320  0.40380  Biso   1.000  C
  C84      1.0000 0.81450  0.94680  0.40380  Biso   1.000  C
  H65      1.0000 0.63430  0.44460  0.93110  Biso   1.000  H
  H66      1.0000 0.36570  0.55540  0.93110  Biso   1.000  H
  H67      1.0000 0.13430  0.05540  0.43110  Biso   1.000  H
  H68      1.0000 0.86570  0.94460  0.43110  Biso   1.000  H
  C85      1.0000 0.74820  0.41770  0.95280  Biso   1.000  C
  C86      1.0000 0.25180  0.58230  0.95280  Biso   1.000  C
  C87      1.0000 0.24820  0.08230  0.45280  Biso   1.000  C
  C88      1.0000 0.75180  0.91770  0.45280  Biso   1.000  C
  C89      1.0000 0.82200  0.42480  0.90930  Biso   1.000  C
  C90      1.0000 0.17800  0.57520  0.90930  Biso   1.000  C
  C91      1.0000 0.32200  0.07520  0.40930  Biso   1.000  C
  C92      1.0000 0.67800  0.92480  0.40930  Biso   1.000  C
  H69      1.0000 0.86760  0.40900  0.94260  Biso   1.000  H
  H70      1.0000 0.13240  0.59100  0.94260  Biso   1.000  H
  H71      1.0000 0.36760  0.09100  0.44260  Biso   1.000  H
  H72      1.0000 0.63240  0.90900  0.44260  Biso   1.000  H
  C93      1.0000 0.82780  0.45650  0.81950  Biso   1.000  C
  C94      1.0000 0.17220  0.54350  0.81950  Biso   1.000  C
  C95      1.0000 0.32780  0.04350  0.31950  Biso   1.000  C
  C96      1.0000 0.67220  0.95650  0.31950  Biso   1.000  C
  H73      1.0000 0.87820  0.45930  0.78980  Biso   1.000  H
  H74      1.0000 0.12180  0.54070  0.78980  Biso   1.000  H
  H75      1.0000 0.37820  0.04070  0.28980  Biso   1.000  H
  H76      1.0000 0.62180  0.95930  0.28980  Biso   1.000  H
  N25      1.0000 0.77820  0.68930  0.97360  Biso   1.000  N
  N26      1.0000 0.22180  0.31070  0.97360  Biso   1.000  N
  N27      1.0000 0.27820  0.81070  0.47360  Biso   1.000  N
  N28      1.0000 0.72180  0.18930  0.47360  Biso   1.000  N
  C97      1.0000 0.83840  0.67400  0.03240  Biso   1.000  C
  C98      1.0000 0.16160  0.32600  0.03240  Biso   1.000  C
  C99      1.0000 0.33840  0.82600  0.53240  Biso   1.000  C
  C100     1.0000 0.66160  0.17400  0.53240  Biso   1.000  C
  H77      1.0000 0.88620  0.69820  0.02270  Biso   1.000  H
  H78      1.0000 0.11380  0.30180  0.02270  Biso   1.000  H
  H79      1.0000 0.38620  0.80180  0.52270  Biso   1.000  H
  H80      1.0000 0.61380  0.19820  0.52270  Biso   1.000  H
  C101     1.0000 0.83540  0.62560  0.10760  Biso   1.000  C
  C102     1.0000 0.16460  0.37440  0.10760  Biso   1.000  C
  C103     1.0000 0.33540  0.87440  0.60760  Biso   1.000  C
  C104     1.0000 0.66460  0.12560  0.60760  Biso   1.000  C
  H81      1.0000 0.88030  0.61550  0.14670  Biso   1.000  H
  H82      1.0000 0.11970  0.38450  0.14670  Biso   1.000  H
  H83      1.0000 0.38030  0.88450  0.64670  Biso   1.000  H
  H84      1.0000 0.61970  0.11550  0.64670  Biso   1.000  H
  C105     1.0000 0.76390  0.59160  0.12460  Biso   1.000  C
  C106     1.0000 0.23610  0.40840  0.12460  Biso   1.000  C
  C107     1.0000 0.26390  0.90840  0.62460  Biso   1.000  C
  C108     1.0000 0.73610  0.09160  0.62460  Biso   1.000  C
  C109     1.0000 0.70290  0.60530  0.06250  Biso   1.000  C
  C110     1.0000 0.29710  0.39470  0.06250  Biso   1.000  C
  C111     1.0000 0.20290  0.89470  0.56250  Biso   1.000  C
  C112     1.0000 0.79710  0.10530  0.56250  Biso   1.000  C
  H85      1.0000 0.65510  0.58080  0.07010  Biso   1.000  H
  H86      1.0000 0.34490  0.41920  0.07010  Biso   1.000  H
  H87      1.0000 0.15510  0.91920  0.57010  Biso   1.000  H
  H88      1.0000 0.84490  0.08080  0.57010  Biso   1.000  H
  C113     1.0000 0.71020  0.65470  0.98690  Biso   1.000  C
  C114     1.0000 0.28980  0.34530  0.98690  Biso   1.000  C
  C115     1.0000 0.21020  0.84530  0.48690  Biso   1.000  C
  C116     1.0000 0.78980  0.15470  0.48690  Biso   1.000  C
  H89      1.0000 0.66660  0.66420  0.94530  Biso   1.000  H
  H90      1.0000 0.33340  0.33580  0.94530  Biso   1.000  H
  H91      1.0000 0.16660  0.83580  0.44530  Biso   1.000  H
  H92      1.0000 0.83340  0.16420  0.44530  Biso   1.000  H
  N29      1.0000 0.72060  0.31300  0.23030  Biso   1.000  N
  N30      1.0000 0.27940  0.68700  0.23030  Biso   1.000  N
  N31      1.0000 0.22060  0.18700  0.73030  Biso   1.000  N
  N32      1.0000 0.77940  0.81300  0.73030  Biso   1.000  N
  C117     1.0000 0.78410  0.30730  0.17730  Biso   1.000  C
  C118     1.0000 0.21590  0.69270  0.17730  Biso   1.000  C
  C119     1.0000 0.28410  0.19270  0.67730  Biso   1.000  C
  C120     1.0000 0.71590  0.80730  0.67730  Biso   1.000  C
  H93      1.0000 0.82500  0.27900  0.20230  Biso   1.000  H
  H94      1.0000 0.17500  0.72100  0.20230  Biso   1.000  H
  H95      1.0000 0.32500  0.22100  0.70230  Biso   1.000  H
  H96      1.0000 0.67500  0.77900  0.70230  Biso   1.000  H
  C121     1.0000 0.79570  0.33850  0.08850  Biso   1.000  C
  C122     1.0000 0.20430  0.66150  0.08850  Biso   1.000  C
  C123     1.0000 0.29570  0.16150  0.58850  Biso   1.000  C
  C124     1.0000 0.70430  0.83850  0.58850  Biso   1.000  C
  H97      1.0000 0.84320  0.33130  0.05350  Biso   1.000  H
  H98      1.0000 0.15680  0.66870  0.05350  Biso   1.000  H
  H99      1.0000 0.34320  0.16870  0.55350  Biso   1.000  H
  H100     1.0000 0.65680  0.83130  0.55350  Biso   1.000  H
  C125     1.0000 0.73930  0.38180  0.04880  Biso   1.000  C
  C126     1.0000 0.26070  0.61820  0.04880  Biso   1.000  C
  C127     1.0000 0.23930  0.11820  0.54880  Biso   1.000  C
  C128     1.0000 0.76070  0.88180  0.54880  Biso   1.000  C
  C129     1.0000 0.67120  0.38710  0.10640  Biso   1.000  C
  C130     1.0000 0.32880  0.61290  0.10640  Biso   1.000  C
  C131     1.0000 0.17120  0.11290  0.60640  Biso   1.000  C
  C132     1.0000 0.82880  0.88710  0.60640  Biso   1.000  C
  H101     1.0000 0.62960  0.41590  0.08440  Biso   1.000  H
  H102     1.0000 0.37040  0.58410  0.08440  Biso   1.000  H
  H103     1.0000 0.12960  0.08410  0.58440  Biso   1.000  H
  H104     1.0000 0.87040  0.91590  0.58440  Biso   1.000  H
  C133     1.0000 0.66430  0.35240  0.19310  Biso   1.000  C
  C134     1.0000 0.33570  0.64760  0.19310  Biso   1.000  C
  C135     1.0000 0.16430  0.14760  0.69310  Biso   1.000  C
  C136     1.0000 0.83570  0.85240  0.69310  Biso   1.000  C
  H105     1.0000 0.61720  0.35660  0.23000  Biso   1.000  H
  H106     1.0000 0.38280  0.64340  0.23000  Biso   1.000  H
  H107     1.0000 0.11720  0.14340  0.73000  Biso   1.000  H
  H108     1.0000 0.88280  0.85660  0.73000  Biso   1.000  H
  N33      1.0000 0.99600  0.45040  0.01610  Biso   1.000  N
  N34      1.0000 0.00400  0.54960  0.01610  Biso   1.000  N
  N35      1.0000 0.49600  0.04960  0.51610  Biso   1.000  N
  N36      1.0000 0.50400  0.95040  0.51610  Biso   1.000  N
  O13      1.0000 0.00300  0.48660  0.94320  Biso   1.000  O
  O14      1.0000 0.99700  0.51340  0.94320  Biso   1.000  O
  O15      1.0000 0.50300  0.01340  0.44320  Biso   1.000  O
  O16      1.0000 0.49700  0.98660  0.44320  Biso   1.000  O
  O17      1.0000 0.98800  0.38790  0.00700  Biso   1.000  O
  O18      1.0000 0.01200  0.61210  0.00700  Biso   1.000  O
  O19      1.0000 0.48800  0.11210  0.50700  Biso   1.000  O
  O20      1.0000 0.51200  0.88790  0.50700  Biso   1.000  O
  O21      1.0000 0.98320  0.47640  0.09710  Biso   1.000  O
  O22      1.0000 0.01680  0.52360  0.09710  Biso   1.000  O
  O23      1.0000 0.48320  0.02360  0.59710  Biso   1.000  O
  O24      1.0000 0.51680  0.97640  0.59710  Biso   1.000  O
  N37      1.0000 0.49300  0.35800  0.02390  Biso   1.000  N
  N38      1.0000 0.50700  0.64200  0.02390  Biso   1.000  N
  N39      1.0000 0.99300  0.14200  0.52390  Biso   1.000  N
  N40      1.0000 0.00700  0.85800  0.52390  Biso   1.000  N
  O25      1.0000 0.47800  0.33930  0.10800  Biso   1.000  O
  O26      1.0000 0.52200  0.66070  0.10800  Biso   1.000  O
  O27      1.0000 0.97800  0.16070  0.60800  Biso   1.000  O
  O28      1.0000 0.02200  0.83930  0.60800  Biso   1.000  O
  O29      1.0000 0.48700  0.41940  0.00100  Biso   1.000  O
  O30      1.0000 0.51300  0.58060  0.00100  Biso   1.000  O
  O31      1.0000 0.98700  0.08060  0.50100  Biso   1.000  O
  O32      1.0000 0.01300  0.91940  0.50100  Biso   1.000  O
  O33      1.0000 0.49800  0.31500  0.95800  Biso   1.000  O
  O34      1.0000 0.50200  0.68500  0.95800  Biso   1.000  O
  O35      1.0000 0.99800  0.18500  0.45800  Biso   1.000  O
  O36      1.0000 0.00200  0.81500  0.45800  Biso   1.000  O
  O37      1.0000 0.00000  0.50000  0.39460  Biso   1.000  O
  O38      1.0000 0.50000  0.00000  0.89460  Biso   1.000  O
  O39      1.0000 0.46370  0.26770  0.56840  Biso   1.000  O
  O40      1.0000 0.53630  0.73230  0.56840  Biso   1.000  O
  O41      1.0000 0.96370  0.23230  0.06840  Biso   1.000  O
  O42      1.0000 0.03630  0.76770  0.06840  Biso   1.000  O
  O43      1.0000 0.90990  0.15810  0.23360  Biso   1.000  O
  O44      1.0000 0.09010  0.84190  0.23360  Biso   1.000  O
  O45      1.0000 0.40990  0.34190  0.73360  Biso   1.000  O
  O46      1.0000 0.59010  0.65810  0.73360  Biso   1.000  O
  O47      1.0000 0.99860  0.38070  0.24880  Biso   1.000  O
  O48      1.0000 0.00140  0.61930  0.24880  Biso   1.000  O
  O49      1.0000 0.49860  0.11930  0.74880  Biso   1.000  O
  O50      1.0000 0.50140  0.88070  0.74880  Biso   1.000  O
  O51      1.0000 0.50000  0.50000  0.16300  Biso   1.000  O
  O52      1.0000 0.00000  0.00000  0.66300  Biso   1.000  O
  O53      1.0000 0.94100  0.28330  0.38060  Biso   1.000  O
  O54      1.0000 0.05900  0.71670  0.38060  Biso   1.000  O
  O55      1.0000 0.44100  0.21670  0.88060  Biso   1.000  O
  O56      1.0000 0.55900  0.78330  0.88060  Biso   1.000  O
  O57      1.0000 0.48870  0.43520  0.33700  Biso   1.000  O
  O58      1.0000 0.51130  0.56480  0.33700  Biso   1.000  O
  O59      1.0000 0.98870  0.06480  0.83700  Biso   1.000  O
  O60      1.0000 0.01130  0.93520  0.83700  Biso   1.000  O
  O61      1.0000 0.97130  0.36660  0.06600  Biso   1.000  O
  O62      1.0000 0.02870  0.63340  0.06600  Biso   1.000  O
  O63      1.0000 0.47130  0.13340  0.56600  Biso   1.000  O
  O64      1.0000 0.52870  0.86660  0.56600  Biso   1.000  O
  O65      1.0000 0.52500  0.51200  0.60300  Biso   1.000  O
  O66      1.0000 0.47500  0.48800  0.60300  Biso   1.000  O
  O67      1.0000 0.02500  0.98800  0.10300  Biso   1.000  O
  O68      1.0000 0.97500  0.01200  0.10300  Biso   1.000  O
