data_image0
_cell_length_a       8.3096
_cell_length_b       10.9997
_cell_length_c       29.246
_cell_angle_alpha    90
_cell_angle_beta     91.101
_cell_angle_gamma    90

_symmetry_space_group_name_H-M    "P 1"
_symmetry_int_tables_number       1

loop_
  _symmetry_equiv_pos_as_xyz
  'x, y, z'

loop_
  _atom_site_label
  _atom_site_occupancy
  _atom_site_fract_x
  _atom_site_fract_y
  _atom_site_fract_z
  _atom_site_thermal_displace_type
  _atom_site_B_iso_or_equiv
  _atom_site_type_symbol
  Cu1      1.0000 0.94181  0.07506  0.63642  Biso   1.000  Cu
  Cu2      1.0000 0.05819  0.57506  0.86358  Biso   1.000  Cu
  Cu3      1.0000 0.05819  0.92494  0.36358  Biso   1.000  Cu
  Cu4      1.0000 0.94181  0.42494  0.13642  Biso   1.000  Cu
  O1       1.0000 0.14120  0.48849  0.40956  Biso   1.000  O
  O2       1.0000 0.85880  0.98849  0.09044  Biso   1.000  O
  O3       1.0000 0.85880  0.51151  0.59044  Biso   1.000  O
  O4       1.0000 0.14120  0.01151  0.90956  Biso   1.000  O
  O5       1.0000 0.08330  0.31834  0.20190  Biso   1.000  O
  O6       1.0000 0.91670  0.81834  0.29810  Biso   1.000  O
  O7       1.0000 0.91670  0.68166  0.79810  Biso   1.000  O
  O8       1.0000 0.08330  0.18166  0.70190  Biso   1.000  O
  O9       1.0000 0.96260  0.49748  0.19831  Biso   1.000  O
  O10      1.0000 0.03740  0.99748  0.30169  Biso   1.000  O
  O11      1.0000 0.03740  0.50252  0.80169  Biso   1.000  O
  O12      1.0000 0.96260  0.00252  0.69831  Biso   1.000  O
  C1       1.0000 0.45190  0.67770  0.64370  Biso   1.000  C
  C2       1.0000 0.54810  0.17770  0.85630  Biso   1.000  C
  C3       1.0000 0.54810  0.32230  0.35630  Biso   1.000  C
  C4       1.0000 0.45190  0.82230  0.14370  Biso   1.000  C
  O13      1.0000 0.96500  0.18464  0.58453  Biso   1.000  O
  O14      1.0000 0.03500  0.68464  0.91547  Biso   1.000  O
  O15      1.0000 0.03500  0.81536  0.41547  Biso   1.000  O
  O16      1.0000 0.96500  0.31536  0.08453  Biso   1.000  O
  O17      1.0000 0.78150  0.11020  0.53530  Biso   1.000  O
  O18      1.0000 0.21850  0.61020  0.96470  Biso   1.000  O
  O19      1.0000 0.21850  0.88980  0.46470  Biso   1.000  O
  O20      1.0000 0.78150  0.38980  0.03530  Biso   1.000  O
  N1       1.0000 0.48900  0.22240  0.64728  Biso   1.000  N
  N2       1.0000 0.51100  0.72240  0.85272  Biso   1.000  N
  N3       1.0000 0.51100  0.77760  0.35272  Biso   1.000  N
  N4       1.0000 0.48900  0.27760  0.14728  Biso   1.000  N
  N5       1.0000 0.14190  0.99050  0.61890  Biso   1.000  N
  N6       1.0000 0.85810  0.49050  0.88110  Biso   1.000  N
  N7       1.0000 0.85810  0.00950  0.38110  Biso   1.000  N
  N8       1.0000 0.14190  0.50950  0.11890  Biso   1.000  N
  C5       1.0000 0.03700  0.41330  0.22043  Biso   1.000  C
  C6       1.0000 0.96300  0.91330  0.27957  Biso   1.000  C
  C7       1.0000 0.96300  0.58670  0.77957  Biso   1.000  C
  C8       1.0000 0.03700  0.08670  0.72043  Biso   1.000  C
  N9       1.0000 0.72280  0.13110  0.65127  Biso   1.000  N
  N10      1.0000 0.27720  0.63110  0.84873  Biso   1.000  N
  N11      1.0000 0.27720  0.86890  0.34873  Biso   1.000  N
  N12      1.0000 0.72280  0.36890  0.15127  Biso   1.000  N
  C9       1.0000 0.07620  0.41150  0.44150  Biso   1.000  C
  C10      1.0000 0.92380  0.91150  0.05850  Biso   1.000  C
  C11      1.0000 0.92380  0.58850  0.55850  Biso   1.000  C
  C12      1.0000 0.07620  0.08850  0.94150  Biso   1.000  C
  N13      1.0000 0.36800  0.89030  0.62844  Biso   1.000  N
  N14      1.0000 0.63200  0.39030  0.87156  Biso   1.000  N
  N15      1.0000 0.63200  0.10970  0.37156  Biso   1.000  N
  N16      1.0000 0.36800  0.60970  0.12844  Biso   1.000  N
  C13      1.0000 0.35570  0.29660  0.62885  Biso   1.000  C
  C14      1.0000 0.64430  0.79660  0.87115  Biso   1.000  C
  C15      1.0000 0.64430  0.70340  0.37115  Biso   1.000  C
  C16      1.0000 0.35570  0.20340  0.12885  Biso   1.000  C
  H1       1.0000 0.25790  0.27610  0.64470  Biso   1.000  H
  H2       1.0000 0.74210  0.77610  0.85530  Biso   1.000  H
  H3       1.0000 0.74210  0.72390  0.35530  Biso   1.000  H
  H4       1.0000 0.25790  0.22390  0.14470  Biso   1.000  H
  H5       1.0000 0.33900  0.27750  0.59670  Biso   1.000  H
  H6       1.0000 0.66100  0.77750  0.90330  Biso   1.000  H
  H7       1.0000 0.66100  0.72250  0.40330  Biso   1.000  H
  H8       1.0000 0.33900  0.22250  0.09670  Biso   1.000  H
  C17      1.0000 0.93520  0.34810  0.43384  Biso   1.000  C
  C18      1.0000 0.06480  0.84810  0.06616  Biso   1.000  C
  C19      1.0000 0.06480  0.65190  0.56616  Biso   1.000  C
  C20      1.0000 0.93520  0.15190  0.93384  Biso   1.000  C
  H9       1.0000 0.88010  0.35490  0.40600  Biso   1.000  H
  H10      1.0000 0.11990  0.85490  0.09400  Biso   1.000  H
  H11      1.0000 0.11990  0.64510  0.59400  Biso   1.000  H
  H12      1.0000 0.88010  0.14510  0.90600  Biso   1.000  H
  C21      1.0000 0.95640  0.26510  0.51002  Biso   1.000  C
  C22      1.0000 0.04360  0.76510  0.98998  Biso   1.000  C
  C23      1.0000 0.04360  0.73490  0.48998  Biso   1.000  C
  C24      1.0000 0.95640  0.23490  0.01002  Biso   1.000  C
  C25      1.0000 0.63730  0.10270  0.68931  Biso   1.000  C
  C26      1.0000 0.36270  0.60270  0.81069  Biso   1.000  C
  C27      1.0000 0.36270  0.89730  0.31069  Biso   1.000  C
  C28      1.0000 0.63730  0.39730  0.18931  Biso   1.000  C
  H13      1.0000 0.67300  0.05270  0.71310  Biso   1.000  H
  H14      1.0000 0.32700  0.55270  0.78690  Biso   1.000  H
  H15      1.0000 0.32700  0.94730  0.28690  Biso   1.000  H
  H16      1.0000 0.67300  0.44730  0.21310  Biso   1.000  H
  C29      1.0000 0.11330  0.46580  0.36333  Biso   1.000  C
  C30      1.0000 0.88670  0.96580  0.13667  Biso   1.000  C
  C31      1.0000 0.88670  0.53420  0.63667  Biso   1.000  C
  C32      1.0000 0.11330  0.03420  0.86333  Biso   1.000  C
  C33      1.0000 0.12860  0.35030  0.34492  Biso   1.000  C
  C34      1.0000 0.87140  0.85030  0.15508  Biso   1.000  C
  C35      1.0000 0.87140  0.64970  0.65508  Biso   1.000  C
  C36      1.0000 0.12860  0.14970  0.84492  Biso   1.000  C
  H17      1.0000 0.15340  0.28430  0.36360  Biso   1.000  H
  H18      1.0000 0.84660  0.78430  0.13640  Biso   1.000  H
  H19      1.0000 0.84660  0.71570  0.63640  Biso   1.000  H
  H20      1.0000 0.15340  0.21570  0.86360  Biso   1.000  H
  C37      1.0000 0.87680  0.27490  0.46781  Biso   1.000  C
  C38      1.0000 0.12320  0.77490  0.03219  Biso   1.000  C
  C39      1.0000 0.12320  0.72510  0.53219  Biso   1.000  C
  C40      1.0000 0.87680  0.22510  0.96781  Biso   1.000  C
  H21      1.0000 0.78250  0.23110  0.46250  Biso   1.000  H
  H22      1.0000 0.21750  0.73110  0.03750  Biso   1.000  H
  H23      1.0000 0.21750  0.76890  0.53750  Biso   1.000  H
  H24      1.0000 0.78250  0.26890  0.96250  Biso   1.000  H
  C41      1.0000 0.05410  0.54720  0.28976  Biso   1.000  C
  C42      1.0000 0.94590  0.04720  0.21024  Biso   1.000  C
  C43      1.0000 0.94590  0.45280  0.71024  Biso   1.000  C
  C44      1.0000 0.05410  0.95280  0.78976  Biso   1.000  C
  H25      1.0000 0.02940  0.61360  0.27130  Biso   1.000  H
  H26      1.0000 0.97060  0.11360  0.22870  Biso   1.000  H
  H27      1.0000 0.97060  0.38640  0.72870  Biso   1.000  H
  H28      1.0000 0.02940  0.88640  0.77130  Biso   1.000  H
  C45      1.0000 0.06710  0.43280  0.27052  Biso   1.000  C
  C46      1.0000 0.93290  0.93280  0.22948  Biso   1.000  C
  C47      1.0000 0.93290  0.56720  0.72948  Biso   1.000  C
  C48      1.0000 0.06710  0.06720  0.77052  Biso   1.000  C
  C49      1.0000 0.38730  0.43040  0.63387  Biso   1.000  C
  C50      1.0000 0.61270  0.93040  0.86613  Biso   1.000  C
  C51      1.0000 0.61270  0.56960  0.36613  Biso   1.000  C
  C52      1.0000 0.38730  0.06960  0.13387  Biso   1.000  C
  C53      1.0000 0.22250  0.91380  0.64520  Biso   1.000  C
  C54      1.0000 0.77750  0.41380  0.85480  Biso   1.000  C
  C55      1.0000 0.77750  0.08620  0.35480  Biso   1.000  C
  C56      1.0000 0.22250  0.58620  0.14520  Biso   1.000  C
  H29      1.0000 0.18340  0.88030  0.67200  Biso   1.000  H
  H30      1.0000 0.81660  0.38030  0.82800  Biso   1.000  H
  H31      1.0000 0.81660  0.11970  0.32800  Biso   1.000  H
  H32      1.0000 0.18340  0.61970  0.17200  Biso   1.000  H
  C57      1.0000 0.10660  0.33490  0.29865  Biso   1.000  C
  C58      1.0000 0.89340  0.83490  0.20135  Biso   1.000  C
  C59      1.0000 0.89340  0.66510  0.70135  Biso   1.000  C
  C60      1.0000 0.10660  0.16510  0.79865  Biso   1.000  C
  H33      1.0000 0.11830  0.25800  0.28590  Biso   1.000  H
  H34      1.0000 0.88170  0.75800  0.21410  Biso   1.000  H
  H35      1.0000 0.88170  0.74200  0.71410  Biso   1.000  H
  H36      1.0000 0.11830  0.24200  0.78590  Biso   1.000  H
  C61      1.0000 0.48330  0.61890  0.60331  Biso   1.000  C
  C62      1.0000 0.51670  0.11890  0.89669  Biso   1.000  C
  C63      1.0000 0.51670  0.38110  0.39669  Biso   1.000  C
  C64      1.0000 0.48330  0.88110  0.10331  Biso   1.000  C
  H37      1.0000 0.52690  0.66190  0.57910  Biso   1.000  H
  H38      1.0000 0.47310  0.16190  0.92090  Biso   1.000  H
  H39      1.0000 0.47310  0.33810  0.42090  Biso   1.000  H
  H40      1.0000 0.52690  0.83810  0.07910  Biso   1.000  H
  C65      1.0000 0.07760  0.56350  0.33625  Biso   1.000  C
  C66      1.0000 0.92240  0.06350  0.16375  Biso   1.000  C
  C67      1.0000 0.92240  0.43650  0.66375  Biso   1.000  C
  C68      1.0000 0.07760  0.93650  0.83625  Biso   1.000  C
  H41      1.0000 0.06900  0.64060  0.34900  Biso   1.000  H
  H42      1.0000 0.93100  0.14060  0.15100  Biso   1.000  H
  H43      1.0000 0.93100  0.35940  0.65100  Biso   1.000  H
  H44      1.0000 0.06900  0.85940  0.84900  Biso   1.000  H
  C69      1.0000 0.49240  0.15910  0.68696  Biso   1.000  C
  C70      1.0000 0.50760  0.65910  0.81304  Biso   1.000  C
  C71      1.0000 0.50760  0.84090  0.31304  Biso   1.000  C
  C72      1.0000 0.49240  0.34090  0.18696  Biso   1.000  C
  H45      1.0000 0.41130  0.15500  0.70840  Biso   1.000  H
  H46      1.0000 0.58870  0.65500  0.79160  Biso   1.000  H
  H47      1.0000 0.58870  0.84500  0.29160  Biso   1.000  H
  H48      1.0000 0.41130  0.34500  0.20840  Biso   1.000  H
  C73      1.0000 0.09330  0.33410  0.51734  Biso   1.000  C
  C74      1.0000 0.90670  0.83410  0.98266  Biso   1.000  C
  C75      1.0000 0.90670  0.66590  0.48266  Biso   1.000  C
  C76      1.0000 0.09330  0.16590  0.01734  Biso   1.000  C
  H49      1.0000 0.14480  0.33190  0.54580  Biso   1.000  H
  H50      1.0000 0.85520  0.83190  0.95420  Biso   1.000  H
  H51      1.0000 0.85520  0.66810  0.45420  Biso   1.000  H
  H52      1.0000 0.14480  0.16810  0.04580  Biso   1.000  H
  C77      1.0000 0.49070  0.81150  0.64965  Biso   1.000  C
  C78      1.0000 0.50930  0.31150  0.85035  Biso   1.000  C
  C79      1.0000 0.50930  0.18850  0.35035  Biso   1.000  C
  C80      1.0000 0.49070  0.68850  0.14965  Biso   1.000  C
  H53      1.0000 0.49960  0.83000  0.68200  Biso   1.000  H
  H54      1.0000 0.50040  0.33000  0.81800  Biso   1.000  H
  H55      1.0000 0.50040  0.17000  0.31800  Biso   1.000  H
  H56      1.0000 0.49960  0.67000  0.18200  Biso   1.000  H
  H57      1.0000 0.59400  0.82840  0.63610  Biso   1.000  H
  H58      1.0000 0.40600  0.32840  0.86390  Biso   1.000  H
  H59      1.0000 0.40600  0.17160  0.36390  Biso   1.000  H
  H60      1.0000 0.59400  0.67160  0.13610  Biso   1.000  H
  C81      1.0000 0.62760  0.20290  0.62717  Biso   1.000  C
  C82      1.0000 0.37240  0.70290  0.87283  Biso   1.000  C
  C83      1.0000 0.37240  0.79710  0.37283  Biso   1.000  C
  C84      1.0000 0.62760  0.29710  0.12717  Biso   1.000  C
  H61      1.0000 0.65470  0.23630  0.59910  Biso   1.000  H
  H62      1.0000 0.34530  0.73630  0.90090  Biso   1.000  H
  H63      1.0000 0.34530  0.76370  0.40090  Biso   1.000  H
  H64      1.0000 0.65470  0.26370  0.09910  Biso   1.000  H
  C85      1.0000 0.24130  0.01580  0.58328  Biso   1.000  C
  C86      1.0000 0.75870  0.51580  0.91672  Biso   1.000  C
  C87      1.0000 0.75870  0.98420  0.41672  Biso   1.000  C
  C88      1.0000 0.24130  0.48420  0.08328  Biso   1.000  C
  H65      1.0000 0.21670  0.06760  0.55900  Biso   1.000  H
  H66      1.0000 0.78330  0.56760  0.94100  Biso   1.000  H
  H67      1.0000 0.78330  0.93240  0.44100  Biso   1.000  H
  H68      1.0000 0.21670  0.43240  0.05900  Biso   1.000  H
  C89      1.0000 0.15550  0.40640  0.48333  Biso   1.000  C
  C90      1.0000 0.84450  0.90640  0.01667  Biso   1.000  C
  C91      1.0000 0.84450  0.59360  0.51667  Biso   1.000  C
  C92      1.0000 0.15550  0.09360  0.98333  Biso   1.000  C
  H69      1.0000 0.24940  0.45070  0.48850  Biso   1.000  H
  H70      1.0000 0.75060  0.95070  0.01150  Biso   1.000  H
  H71      1.0000 0.75060  0.54930  0.51150  Biso   1.000  H
  H72      1.0000 0.24940  0.04930  0.98850  Biso   1.000  H
  C93      1.0000 0.45030  0.49650  0.59845  Biso   1.000  C
  C94      1.0000 0.54970  0.99650  0.90155  Biso   1.000  C
  C95      1.0000 0.54970  0.50350  0.40155  Biso   1.000  C
  C96      1.0000 0.45030  0.00350  0.09845  Biso   1.000  C
  H73      1.0000 0.47100  0.45810  0.57080  Biso   1.000  H
  H74      1.0000 0.52900  0.95810  0.92920  Biso   1.000  H
  H75      1.0000 0.52900  0.54190  0.42920  Biso   1.000  H
  H76      1.0000 0.47100  0.04190  0.07080  Biso   1.000  H
  C97      1.0000 0.89440  0.17940  0.54530  Biso   1.000  C
  C98      1.0000 0.10560  0.67940  0.95470  Biso   1.000  C
  C99      1.0000 0.10560  0.82060  0.45470  Biso   1.000  C
  C100     1.0000 0.89440  0.32060  0.04530  Biso   1.000  C
  C101     1.0000 0.38710  0.61280  0.67866  Biso   1.000  C
  C102     1.0000 0.61290  0.11280  0.82134  Biso   1.000  C
  C103     1.0000 0.61290  0.38720  0.32134  Biso   1.000  C
  C104     1.0000 0.38710  0.88720  0.17866  Biso   1.000  C
  H77      1.0000 0.36480  0.65170  0.70600  Biso   1.000  H
  H78      1.0000 0.63520  0.15170  0.79400  Biso   1.000  H
  H79      1.0000 0.63520  0.34830  0.29400  Biso   1.000  H
  H80      1.0000 0.36480  0.84830  0.20600  Biso   1.000  H
  C105     1.0000 0.35420  0.49040  0.67406  Biso   1.000  C
  C106     1.0000 0.64580  0.99040  0.82594  Biso   1.000  C
  C107     1.0000 0.64580  0.50960  0.32594  Biso   1.000  C
  C108     1.0000 0.35420  0.00960  0.17406  Biso   1.000  C
  H81      1.0000 0.30940  0.44800  0.69820  Biso   1.000  H
  H82      1.0000 0.69060  0.94800  0.80180  Biso   1.000  H
  H83      1.0000 0.69060  0.55200  0.30180  Biso   1.000  H
  H84      1.0000 0.30940  0.05200  0.19820  Biso   1.000  H
  C109     1.0000 0.38060  0.95390  0.58893  Biso   1.000  C
  C110     1.0000 0.61940  0.45390  0.91107  Biso   1.000  C
  C111     1.0000 0.61940  0.04610  0.41107  Biso   1.000  C
  C112     1.0000 0.38060  0.54610  0.08893  Biso   1.000  C
  H85      1.0000 0.46800  0.95470  0.56950  Biso   1.000  H
  H86      1.0000 0.53200  0.45470  0.93050  Biso   1.000  H
  H87      1.0000 0.53200  0.04530  0.43050  Biso   1.000  H
  H88      1.0000 0.46800  0.54530  0.06950  Biso   1.000  H
  O21      1.0000 0.47430  0.22170  0.51526  Biso   1.000  O
  O22      1.0000 0.52570  0.72170  0.98474  Biso   1.000  O
  O23      1.0000 0.52570  0.77830  0.48474  Biso   1.000  O
  O24      1.0000 0.47430  0.27830  0.01526  Biso   1.000  O
  O25      1.0000 0.23500  0.11730  0.43432  Biso   1.000  O
  O26      1.0000 0.76500  0.61730  0.06568  Biso   1.000  O
  O27      1.0000 0.76500  0.88270  0.56568  Biso   1.000  O
  O28      1.0000 0.23500  0.38270  0.93432  Biso   1.000  O
