data_image0
_cell_length_a       8.911
_cell_length_b       8.002
_cell_length_c       19.61
_cell_angle_alpha    90
_cell_angle_beta     90.2
_cell_angle_gamma    90

_symmetry_space_group_name_H-M    "P 1"
_symmetry_int_tables_number       1

loop_
  _symmetry_equiv_pos_as_xyz
  'x, y, z'

loop_
  _atom_site_label
  _atom_site_occupancy
  _atom_site_fract_x
  _atom_site_fract_y
  _atom_site_fract_z
  _atom_site_thermal_displace_type
  _atom_site_B_iso_or_equiv
  _atom_site_type_symbol
  Cu1      1.0000 0.99250  0.51960  0.71943  Biso   1.000  Cu
  Cu2      1.0000 0.00750  0.01960  0.78057  Biso   1.000  Cu
  Cu3      1.0000 0.00750  0.48040  0.28057  Biso   1.000  Cu
  Cu4      1.0000 0.99250  0.98040  0.21943  Biso   1.000  Cu
  N1       1.0000 0.22060  0.54300  0.71440  Biso   1.000  N
  N2       1.0000 0.77940  0.04300  0.78560  Biso   1.000  N
  N3       1.0000 0.77940  0.45700  0.28560  Biso   1.000  N
  N4       1.0000 0.22060  0.95700  0.21440  Biso   1.000  N
  N5       1.0000 0.01670  0.40930  0.62830  Biso   1.000  N
  N6       1.0000 0.98330  0.90930  0.87170  Biso   1.000  N
  N7       1.0000 0.98330  0.59070  0.37170  Biso   1.000  N
  N8       1.0000 0.01670  0.09070  0.12830  Biso   1.000  N
  N9       1.0000 0.77290  0.51280  0.70160  Biso   1.000  N
  N10      1.0000 0.22710  0.01280  0.79840  Biso   1.000  N
  N11      1.0000 0.22710  0.48720  0.29840  Biso   1.000  N
  N12      1.0000 0.77290  0.98720  0.20160  Biso   1.000  N
  C1       1.0000 0.27480  0.45300  0.65390  Biso   1.000  C
  C2       1.0000 0.72520  0.95300  0.84610  Biso   1.000  C
  C3       1.0000 0.72520  0.54700  0.34610  Biso   1.000  C
  C4       1.0000 0.27480  0.04700  0.15390  Biso   1.000  C
  C5       1.0000 0.15500  0.47300  0.59760  Biso   1.000  C
  C6       1.0000 0.84500  0.97300  0.90240  Biso   1.000  C
  C7       1.0000 0.84500  0.52700  0.40240  Biso   1.000  C
  C8       1.0000 0.15500  0.02700  0.09760  Biso   1.000  C
  C9       1.0000 0.87300  0.43800  0.58920  Biso   1.000  C
  C10      1.0000 0.12700  0.93800  0.91080  Biso   1.000  C
  C11      1.0000 0.12700  0.56200  0.41080  Biso   1.000  C
  C12      1.0000 0.87300  0.06200  0.08920  Biso   1.000  C
  C13      1.0000 0.74500  0.41100  0.63770  Biso   1.000  C
  C14      1.0000 0.25500  0.91100  0.86230  Biso   1.000  C
  C15      1.0000 0.25500  0.58900  0.36230  Biso   1.000  C
  C16      1.0000 0.74500  0.08900  0.13770  Biso   1.000  C
  C17      1.0000 0.00100  0.44310  0.85320  Biso   1.000  C
  C18      1.0000 0.99900  0.94310  0.64680  Biso   1.000  C
  C19      1.0000 0.99900  0.55690  0.14680  Biso   1.000  C
  C20      1.0000 0.00100  0.05690  0.35320  Biso   1.000  C
  O1       1.0000 0.97310  0.57500  0.81750  Biso   1.000  O
  O2       1.0000 0.02690  0.07500  0.68250  Biso   1.000  O
  O3       1.0000 0.02690  0.42500  0.18250  Biso   1.000  O
  O4       1.0000 0.97310  0.92500  0.31750  Biso   1.000  O
  O5       1.0000 0.03120  0.30580  0.82850  Biso   1.000  O
  O6       1.0000 0.96880  0.80580  0.67150  Biso   1.000  O
  O7       1.0000 0.96880  0.69420  0.17150  Biso   1.000  O
  O8       1.0000 0.03120  0.19420  0.32850  Biso   1.000  O
  C21      1.0000 0.00410  0.47210  0.92970  Biso   1.000  C
  C22      1.0000 0.99590  0.97210  0.57030  Biso   1.000  C
  C23      1.0000 0.99590  0.52790  0.07030  Biso   1.000  C
  C24      1.0000 0.00410  0.02790  0.42970  Biso   1.000  C
  C25      1.0000 0.12340  0.42450  0.96820  Biso   1.000  C
  C26      1.0000 0.87660  0.92450  0.53180  Biso   1.000  C
  C27      1.0000 0.87660  0.57550  0.03180  Biso   1.000  C
  C28      1.0000 0.12340  0.07550  0.46820  Biso   1.000  C
  C29      1.0000 0.12380  0.45010  0.03930  Biso   1.000  C
  C30      1.0000 0.87620  0.95010  0.46070  Biso   1.000  C
  C31      1.0000 0.87620  0.54990  0.96070  Biso   1.000  C
  C32      1.0000 0.12380  0.04990  0.53930  Biso   1.000  C
  Cl1      1.0000 0.49960  0.11810  0.34750  Biso   1.000  Cl
  Cl2      1.0000 0.50040  0.61810  0.15250  Biso   1.000  Cl
  Cl3      1.0000 0.50040  0.88190  0.65250  Biso   1.000  Cl
  Cl4      1.0000 0.49960  0.38190  0.84750  Biso   1.000  Cl
  O9       1.0000 0.47000  0.17900  0.28110  Biso   1.000  O
  O10      1.0000 0.53000  0.67900  0.21890  Biso   1.000  O
  O11      1.0000 0.53000  0.82100  0.71890  Biso   1.000  O
  O12      1.0000 0.47000  0.32100  0.78110  Biso   1.000  O
  O13      1.0000 0.65240  0.12000  0.34560  Biso   1.000  O
  O14      1.0000 0.34760  0.62000  0.15440  Biso   1.000  O
  O15      1.0000 0.34760  0.88000  0.65440  Biso   1.000  O
  O16      1.0000 0.65240  0.38000  0.84560  Biso   1.000  O
  O17      1.0000 0.44800  0.23400  0.40100  Biso   1.000  O
  O18      1.0000 0.55200  0.73400  0.09900  Biso   1.000  O
  O19      1.0000 0.55200  0.76600  0.59900  Biso   1.000  O
  O20      1.0000 0.44800  0.26600  0.90100  Biso   1.000  O
  O21      1.0000 0.42700  0.97800  0.36100  Biso   1.000  O
  O22      1.0000 0.57300  0.47800  0.13900  Biso   1.000  O
  O23      1.0000 0.57300  0.02200  0.63900  Biso   1.000  O
  O24      1.0000 0.42700  0.52200  0.86100  Biso   1.000  O
