data_image0
_cell_length_a       12.4115
_cell_length_b       26.8057
_cell_length_c       8.4121
_cell_angle_alpha    90
_cell_angle_beta     90
_cell_angle_gamma    90

_symmetry_space_group_name_H-M    "P 1"
_symmetry_int_tables_number       1

loop_
  _symmetry_equiv_pos_as_xyz
  'x, y, z'

loop_
  _atom_site_label
  _atom_site_occupancy
  _atom_site_fract_x
  _atom_site_fract_y
  _atom_site_fract_z
  _atom_site_thermal_displace_type
  _atom_site_B_iso_or_equiv
  _atom_site_type_symbol
  Cu1      1.0000 0.34135  0.25000  0.54113  Biso   1.000  Cu
  Cu2      1.0000 0.15865  0.75000  0.04113  Biso   1.000  Cu
  Cu3      1.0000 0.65865  0.75000  0.45887  Biso   1.000  Cu
  Cu4      1.0000 0.84135  0.25000  0.95887  Biso   1.000  Cu
  Cu5      1.0000 0.63919  0.25000  0.38829  Biso   1.000  Cu
  Cu6      1.0000 0.86081  0.75000  0.88829  Biso   1.000  Cu
  Cu7      1.0000 0.36081  0.75000  0.61171  Biso   1.000  Cu
  Cu8      1.0000 0.13919  0.25000  0.11171  Biso   1.000  Cu
  O1       1.0000 0.44440  0.25000  0.36630  Biso   1.000  O
  O2       1.0000 0.05560  0.75000  0.86630  Biso   1.000  O
  O3       1.0000 0.55560  0.75000  0.63370  Biso   1.000  O
  O4       1.0000 0.94440  0.25000  0.13370  Biso   1.000  O
  O5       1.0000 0.32020  0.25000  0.17310  Biso   1.000  O
  O6       1.0000 0.17980  0.75000  0.67310  Biso   1.000  O
  O7       1.0000 0.67980  0.75000  0.82690  Biso   1.000  O
  O8       1.0000 0.82020  0.25000  0.32690  Biso   1.000  O
  O9       1.0000 0.76780  0.25000  0.74160  Biso   1.000  O
  O10      1.0000 0.73220  0.75000  0.24160  Biso   1.000  O
  O11      1.0000 0.23220  0.75000  0.25840  Biso   1.000  O
  O12      1.0000 0.26780  0.25000  0.75840  Biso   1.000  O
  O13      1.0000 0.60620  0.25000  0.61980  Biso   1.000  O
  O14      1.0000 0.89380  0.75000  0.11980  Biso   1.000  O
  O15      1.0000 0.39380  0.75000  0.38020  Biso   1.000  O
  O16      1.0000 0.10620  0.25000  0.88020  Biso   1.000  O
  N1       1.0000 0.35680  0.32467  0.56330  Biso   1.000  N
  N2       1.0000 0.14320  0.67533  0.06330  Biso   1.000  N
  N3       1.0000 0.64320  0.82467  0.43670  Biso   1.000  N
  N4       1.0000 0.85680  0.17533  0.93670  Biso   1.000  N
  N5       1.0000 0.64320  0.67533  0.43670  Biso   1.000  N
  N6       1.0000 0.85680  0.32467  0.93670  Biso   1.000  N
  N7       1.0000 0.35680  0.17533  0.56330  Biso   1.000  N
  N8       1.0000 0.14320  0.82467  0.06330  Biso   1.000  N
  N9       1.0000 0.34890  0.67470  0.60470  Biso   1.000  N
  N10      1.0000 0.15110  0.32530  0.10470  Biso   1.000  N
  N11      1.0000 0.65110  0.17470  0.39530  Biso   1.000  N
  N12      1.0000 0.84890  0.82530  0.89530  Biso   1.000  N
  N13      1.0000 0.65110  0.32530  0.39530  Biso   1.000  N
  N14      1.0000 0.84890  0.67470  0.89530  Biso   1.000  N
  N15      1.0000 0.34890  0.82530  0.60470  Biso   1.000  N
  N16      1.0000 0.15110  0.17470  0.10470  Biso   1.000  N
  N17      1.0000 0.60810  0.25000  0.15730  Biso   1.000  N
  N18      1.0000 0.89190  0.75000  0.65730  Biso   1.000  N
  N19      1.0000 0.39190  0.75000  0.84270  Biso   1.000  N
  N20      1.0000 0.10810  0.25000  0.34270  Biso   1.000  N
  N21      1.0000 0.67330  0.25000  0.03140  Biso   1.000  N
  N22      1.0000 0.82670  0.75000  0.53140  Biso   1.000  N
  N23      1.0000 0.32670  0.75000  0.96860  Biso   1.000  N
  N24      1.0000 0.17330  0.25000  0.46860  Biso   1.000  N
  C1       1.0000 0.43390  0.34511  0.65220  Biso   1.000  C
  C2       1.0000 0.06610  0.65489  0.15220  Biso   1.000  C
  C3       1.0000 0.56610  0.84511  0.34780  Biso   1.000  C
  C4       1.0000 0.93390  0.15489  0.84780  Biso   1.000  C
  C5       1.0000 0.56610  0.65489  0.34780  Biso   1.000  C
  C6       1.0000 0.93390  0.34511  0.84780  Biso   1.000  C
  C7       1.0000 0.43390  0.15489  0.65220  Biso   1.000  C
  C8       1.0000 0.06610  0.84511  0.15220  Biso   1.000  C
  H1       1.0000 0.48470  0.32370  0.70220  Biso   1.000  H
  H2       1.0000 0.01530  0.67630  0.20220  Biso   1.000  H
  H3       1.0000 0.51530  0.82370  0.29780  Biso   1.000  H
  H4       1.0000 0.98470  0.17630  0.79780  Biso   1.000  H
  H5       1.0000 0.51530  0.67630  0.29780  Biso   1.000  H
  H6       1.0000 0.98470  0.32370  0.79780  Biso   1.000  H
  H7       1.0000 0.48470  0.17630  0.70220  Biso   1.000  H
  H8       1.0000 0.01530  0.82370  0.20220  Biso   1.000  H
  C9       1.0000 0.44350  0.39586  0.67490  Biso   1.000  C
  C10      1.0000 0.05650  0.60414  0.17490  Biso   1.000  C
  C11      1.0000 0.55650  0.89586  0.32510  Biso   1.000  C
  C12      1.0000 0.94350  0.10414  0.82510  Biso   1.000  C
  C13      1.0000 0.55650  0.60414  0.32510  Biso   1.000  C
  C14      1.0000 0.94350  0.39586  0.82510  Biso   1.000  C
  C15      1.0000 0.44350  0.10414  0.67490  Biso   1.000  C
  C16      1.0000 0.05650  0.89586  0.17490  Biso   1.000  C
  H9       1.0000 0.50000  0.40870  0.73920  Biso   1.000  H
  H10      1.0000 0.00000  0.59130  0.23920  Biso   1.000  H
  H11      1.0000 0.50000  0.90870  0.26080  Biso   1.000  H
  H12      1.0000 0.00000  0.09130  0.76080  Biso   1.000  H
  H13      1.0000 0.50000  0.59130  0.26080  Biso   1.000  H
  H14      1.0000 0.00000  0.40870  0.76080  Biso   1.000  H
  H15      1.0000 0.50000  0.09130  0.73920  Biso   1.000  H
  H16      1.0000 0.00000  0.90870  0.23920  Biso   1.000  H
  C17      1.0000 0.37070  0.42830  0.60410  Biso   1.000  C
  C18      1.0000 0.12930  0.57170  0.10410  Biso   1.000  C
  C19      1.0000 0.62930  0.92830  0.39590  Biso   1.000  C
  C20      1.0000 0.87070  0.07170  0.89590  Biso   1.000  C
  C21      1.0000 0.62930  0.57170  0.39590  Biso   1.000  C
  C22      1.0000 0.87070  0.42830  0.89590  Biso   1.000  C
  C23      1.0000 0.37070  0.07170  0.60410  Biso   1.000  C
  C24      1.0000 0.12930  0.92830  0.10410  Biso   1.000  C
  C25      1.0000 0.29010  0.40684  0.51120  Biso   1.000  C
  C26      1.0000 0.20990  0.59316  0.01120  Biso   1.000  C
  C27      1.0000 0.70990  0.90684  0.48880  Biso   1.000  C
  C28      1.0000 0.79010  0.09316  0.98880  Biso   1.000  C
  C29      1.0000 0.70990  0.59316  0.48880  Biso   1.000  C
  C30      1.0000 0.79010  0.40684  0.98880  Biso   1.000  C
  C31      1.0000 0.29010  0.09316  0.51120  Biso   1.000  C
  C32      1.0000 0.20990  0.90684  0.01120  Biso   1.000  C
  H17      1.0000 0.23820  0.42730  0.46000  Biso   1.000  H
  H18      1.0000 0.26180  0.57270  0.96000  Biso   1.000  H
  H19      1.0000 0.76180  0.92730  0.54000  Biso   1.000  H
  H20      1.0000 0.73820  0.07270  0.04000  Biso   1.000  H
  H21      1.0000 0.76180  0.57270  0.54000  Biso   1.000  H
  H22      1.0000 0.73820  0.42730  0.04000  Biso   1.000  H
  H23      1.0000 0.23820  0.07270  0.46000  Biso   1.000  H
  H24      1.0000 0.26180  0.92730  0.96000  Biso   1.000  H
  C33      1.0000 0.28620  0.35575  0.49410  Biso   1.000  C
  C34      1.0000 0.21380  0.64425  0.99410  Biso   1.000  C
  C35      1.0000 0.71380  0.85575  0.50590  Biso   1.000  C
  C36      1.0000 0.78620  0.14425  0.00590  Biso   1.000  C
  C37      1.0000 0.71380  0.64425  0.50590  Biso   1.000  C
  C38      1.0000 0.78620  0.35575  0.00590  Biso   1.000  C
  C39      1.0000 0.28620  0.14425  0.49410  Biso   1.000  C
  C40      1.0000 0.21380  0.85575  0.99410  Biso   1.000  C
  H25      1.0000 0.23080  0.34180  0.43000  Biso   1.000  H
  H26      1.0000 0.26920  0.65820  0.93000  Biso   1.000  H
  H27      1.0000 0.76920  0.84180  0.57000  Biso   1.000  H
  H28      1.0000 0.73080  0.15820  0.07000  Biso   1.000  H
  H29      1.0000 0.76920  0.65820  0.57000  Biso   1.000  H
  H30      1.0000 0.73080  0.34180  0.07000  Biso   1.000  H
  H31      1.0000 0.23080  0.15820  0.43000  Biso   1.000  H
  H32      1.0000 0.26920  0.84180  0.93000  Biso   1.000  H
  C41      1.0000 0.38270  0.48240  0.62510  Biso   1.000  C
  C42      1.0000 0.11730  0.51760  0.12510  Biso   1.000  C
  C43      1.0000 0.61730  0.98240  0.37490  Biso   1.000  C
  C44      1.0000 0.88270  0.01760  0.87490  Biso   1.000  C
  C45      1.0000 0.61730  0.51760  0.37490  Biso   1.000  C
  C46      1.0000 0.88270  0.48240  0.87490  Biso   1.000  C
  C47      1.0000 0.38270  0.01760  0.62510  Biso   1.000  C
  C48      1.0000 0.11730  0.98240  0.12510  Biso   1.000  C
  H33      1.0000 0.44470  0.49390  0.68010  Biso   1.000  H
  H34      1.0000 0.05530  0.50610  0.18010  Biso   1.000  H
  H35      1.0000 0.55530  0.99390  0.31990  Biso   1.000  H
  H36      1.0000 0.94470  0.00610  0.81990  Biso   1.000  H
  H37      1.0000 0.55530  0.50610  0.31990  Biso   1.000  H
  H38      1.0000 0.94470  0.49390  0.81990  Biso   1.000  H
  H39      1.0000 0.44470  0.00610  0.68010  Biso   1.000  H
  H40      1.0000 0.05530  0.99390  0.18010  Biso   1.000  H
  C49      1.0000 0.31380  0.51642  0.57350  Biso   1.000  C
  C50      1.0000 0.18620  0.48358  0.07350  Biso   1.000  C
  C51      1.0000 0.68620  0.01642  0.42650  Biso   1.000  C
  C52      1.0000 0.81380  0.98358  0.92650  Biso   1.000  C
  C53      1.0000 0.68620  0.48358  0.42650  Biso   1.000  C
  C54      1.0000 0.81380  0.51642  0.92650  Biso   1.000  C
  C55      1.0000 0.31380  0.98358  0.57350  Biso   1.000  C
  C56      1.0000 0.18620  0.01642  0.07350  Biso   1.000  C
  H41      1.0000 0.25090  0.50470  0.52130  Biso   1.000  H
  H42      1.0000 0.24910  0.49530  0.02130  Biso   1.000  H
  H43      1.0000 0.74910  0.00470  0.47870  Biso   1.000  H
  H44      1.0000 0.75090  0.99530  0.97870  Biso   1.000  H
  H45      1.0000 0.74910  0.49530  0.47870  Biso   1.000  H
  H46      1.0000 0.75090  0.50470  0.97870  Biso   1.000  H
  H47      1.0000 0.25090  0.99530  0.52130  Biso   1.000  H
  H48      1.0000 0.24910  0.00470  0.02130  Biso   1.000  H
  C57      1.0000 0.41760  0.64405  0.67940  Biso   1.000  C
  C58      1.0000 0.08240  0.35595  0.17940  Biso   1.000  C
  C59      1.0000 0.58240  0.14405  0.32060  Biso   1.000  C
  C60      1.0000 0.91760  0.85595  0.82060  Biso   1.000  C
  C61      1.0000 0.58240  0.35595  0.32060  Biso   1.000  C
  C62      1.0000 0.91760  0.64405  0.82060  Biso   1.000  C
  C63      1.0000 0.41760  0.85595  0.67940  Biso   1.000  C
  C64      1.0000 0.08240  0.14405  0.17940  Biso   1.000  C
  H49      1.0000 0.47480  0.65840  0.73870  Biso   1.000  H
  H50      1.0000 0.02520  0.34160  0.23870  Biso   1.000  H
  H51      1.0000 0.52520  0.15840  0.26130  Biso   1.000  H
  H52      1.0000 0.97480  0.84160  0.76130  Biso   1.000  H
  H53      1.0000 0.52520  0.34160  0.26130  Biso   1.000  H
  H54      1.0000 0.97480  0.65840  0.76130  Biso   1.000  H
  H55      1.0000 0.47480  0.84160  0.73870  Biso   1.000  H
  H56      1.0000 0.02520  0.15840  0.23870  Biso   1.000  H
  C65      1.0000 0.40980  0.59299  0.67480  Biso   1.000  C
  C66      1.0000 0.09020  0.40701  0.17480  Biso   1.000  C
  C67      1.0000 0.59020  0.09299  0.32520  Biso   1.000  C
  C68      1.0000 0.90980  0.90701  0.82520  Biso   1.000  C
  C69      1.0000 0.59020  0.40701  0.32520  Biso   1.000  C
  C70      1.0000 0.90980  0.59299  0.82520  Biso   1.000  C
  C71      1.0000 0.40980  0.90701  0.67480  Biso   1.000  C
  C72      1.0000 0.09020  0.09299  0.17480  Biso   1.000  C
  H57      1.0000 0.46100  0.57300  0.72920  Biso   1.000  H
  H58      1.0000 0.03900  0.42700  0.22920  Biso   1.000  H
  H59      1.0000 0.53900  0.07300  0.27080  Biso   1.000  H
  H60      1.0000 0.96100  0.92700  0.77080  Biso   1.000  H
  H61      1.0000 0.53900  0.42700  0.27080  Biso   1.000  H
  H62      1.0000 0.96100  0.57300  0.77080  Biso   1.000  H
  H63      1.0000 0.46100  0.92700  0.72920  Biso   1.000  H
  H64      1.0000 0.03900  0.07300  0.22920  Biso   1.000  H
  C73      1.0000 0.32600  0.57071  0.58970  Biso   1.000  C
  C74      1.0000 0.17400  0.42929  0.08970  Biso   1.000  C
  C75      1.0000 0.67400  0.07071  0.41030  Biso   1.000  C
  C76      1.0000 0.82600  0.92929  0.91030  Biso   1.000  C
  C77      1.0000 0.67400  0.42929  0.41030  Biso   1.000  C
  C78      1.0000 0.82600  0.57071  0.91030  Biso   1.000  C
  C79      1.0000 0.32600  0.92929  0.58970  Biso   1.000  C
  C80      1.0000 0.17400  0.07071  0.08970  Biso   1.000  C
  C81      1.0000 0.25340  0.60272  0.51440  Biso   1.000  C
  C82      1.0000 0.24660  0.39728  0.01440  Biso   1.000  C
  C83      1.0000 0.74660  0.10272  0.48560  Biso   1.000  C
  C84      1.0000 0.75340  0.89728  0.98560  Biso   1.000  C
  C85      1.0000 0.74660  0.39728  0.48560  Biso   1.000  C
  C86      1.0000 0.75340  0.60272  0.98560  Biso   1.000  C
  C87      1.0000 0.25340  0.89728  0.51440  Biso   1.000  C
  C88      1.0000 0.24660  0.10272  0.01440  Biso   1.000  C
  H65      1.0000 0.19430  0.58940  0.45650  Biso   1.000  H
  H66      1.0000 0.30570  0.41060  0.95650  Biso   1.000  H
  H67      1.0000 0.80570  0.08940  0.54350  Biso   1.000  H
  H68      1.0000 0.69430  0.91060  0.04350  Biso   1.000  H
  H69      1.0000 0.80570  0.41060  0.54350  Biso   1.000  H
  H70      1.0000 0.69430  0.58940  0.04350  Biso   1.000  H
  H71      1.0000 0.19430  0.91060  0.45650  Biso   1.000  H
  H72      1.0000 0.30570  0.08940  0.95650  Biso   1.000  H
  C89      1.0000 0.26740  0.65387  0.52380  Biso   1.000  C
  C90      1.0000 0.23260  0.34613  0.02380  Biso   1.000  C
  C91      1.0000 0.73260  0.15387  0.47620  Biso   1.000  C
  C92      1.0000 0.76740  0.84613  0.97620  Biso   1.000  C
  C93      1.0000 0.73260  0.34613  0.47620  Biso   1.000  C
  C94      1.0000 0.76740  0.65387  0.97620  Biso   1.000  C
  C95      1.0000 0.26740  0.84613  0.52380  Biso   1.000  C
  C96      1.0000 0.23260  0.15387  0.02380  Biso   1.000  C
  H73      1.0000 0.21750  0.67500  0.47100  Biso   1.000  H
  H74      1.0000 0.28250  0.32500  0.97100  Biso   1.000  H
  H75      1.0000 0.78250  0.17500  0.52900  Biso   1.000  H
  H76      1.0000 0.71750  0.82500  0.02900  Biso   1.000  H
  H77      1.0000 0.78250  0.32500  0.52900  Biso   1.000  H
  H78      1.0000 0.71750  0.67500  0.02900  Biso   1.000  H
  H79      1.0000 0.21750  0.82500  0.47100  Biso   1.000  H
  H80      1.0000 0.28250  0.17500  0.97100  Biso   1.000  H
  C97      1.0000 0.50320  0.25000  0.10300  Biso   1.000  C
  C98      1.0000 0.99680  0.75000  0.60300  Biso   1.000  C
  C99      1.0000 0.49680  0.75000  0.89700  Biso   1.000  C
  C100     1.0000 0.00320  0.25000  0.39700  Biso   1.000  C
  C101     1.0000 0.50180  0.25000  0.93850  Biso   1.000  C
  C102     1.0000 0.99820  0.75000  0.43850  Biso   1.000  C
  C103     1.0000 0.49820  0.75000  0.06150  Biso   1.000  C
  C104     1.0000 0.00180  0.25000  0.56150  Biso   1.000  C
  H81      1.0000 0.44110  0.25000  0.86980  Biso   1.000  H
  H82      1.0000 0.05890  0.75000  0.36980  Biso   1.000  H
  H83      1.0000 0.55890  0.75000  0.13020  Biso   1.000  H
  H84      1.0000 0.94110  0.25000  0.63020  Biso   1.000  H
  C105     1.0000 0.60960  0.25000  0.89790  Biso   1.000  C
  C106     1.0000 0.89040  0.75000  0.39790  Biso   1.000  C
  C107     1.0000 0.39040  0.75000  0.10210  Biso   1.000  C
  C108     1.0000 0.10960  0.25000  0.60210  Biso   1.000  C
  C109     1.0000 0.41520  0.25000  0.21990  Biso   1.000  C
  C110     1.0000 0.08480  0.75000  0.71990  Biso   1.000  C
  C111     1.0000 0.58480  0.75000  0.78010  Biso   1.000  C
  C112     1.0000 0.91520  0.25000  0.28010  Biso   1.000  C
  C113     1.0000 0.66570  0.25000  0.74460  Biso   1.000  C
  C114     1.0000 0.83430  0.75000  0.24460  Biso   1.000  C
  C115     1.0000 0.33430  0.75000  0.25540  Biso   1.000  C
  C116     1.0000 0.16570  0.25000  0.75540  Biso   1.000  C
  N25      1.0000 0.51900  0.50270  0.96290  Biso   1.000  N
  N26      1.0000 0.98100  0.49730  0.46290  Biso   1.000  N
  N27      1.0000 0.48100  0.00270  0.03710  Biso   1.000  N
  N28      1.0000 0.01900  0.99730  0.53710  Biso   1.000  N
  N29      1.0000 0.48100  0.49730  0.03710  Biso   1.000  N
  N30      1.0000 0.01900  0.50270  0.53710  Biso   1.000  N
  N31      1.0000 0.51900  0.99730  0.96290  Biso   1.000  N
  N32      1.0000 0.98100  0.00270  0.46290  Biso   1.000  N
  O17      1.0000 0.58190  0.51300  0.85440  Biso   1.000  O
  O18      1.0000 0.91810  0.48700  0.35440  Biso   1.000  O
  O19      1.0000 0.41810  0.01300  0.14560  Biso   1.000  O
  O20      1.0000 0.08190  0.98700  0.64560  Biso   1.000  O
  O21      1.0000 0.41810  0.48700  0.14560  Biso   1.000  O
  O22      1.0000 0.08190  0.51300  0.64560  Biso   1.000  O
  O23      1.0000 0.58190  0.98700  0.85440  Biso   1.000  O
  O24      1.0000 0.91810  0.01300  0.35440  Biso   1.000  O
  O25      1.0000 0.50110  0.45860  0.99860  Biso   1.000  O
  O26      1.0000 0.99890  0.54140  0.49860  Biso   1.000  O
  O27      1.0000 0.49890  0.95860  0.00140  Biso   1.000  O
  O28      1.0000 0.00110  0.04140  0.50140  Biso   1.000  O
  O29      1.0000 0.49890  0.54140  0.00140  Biso   1.000  O
  O30      1.0000 0.00110  0.45860  0.50140  Biso   1.000  O
  O31      1.0000 0.50110  0.04140  0.99860  Biso   1.000  O
  O32      1.0000 0.99890  0.95860  0.49860  Biso   1.000  O
  O33      1.0000 0.45870  0.53570  0.01600  Biso   1.000  O
  O34      1.0000 0.04130  0.46430  0.51600  Biso   1.000  O
  O35      1.0000 0.54130  0.03570  0.98400  Biso   1.000  O
  O36      1.0000 0.95870  0.96430  0.48400  Biso   1.000  O
  O37      1.0000 0.54130  0.46430  0.98400  Biso   1.000  O
  O38      1.0000 0.95870  0.53570  0.48400  Biso   1.000  O
  O39      1.0000 0.45870  0.96430  0.01600  Biso   1.000  O
  O40      1.0000 0.04130  0.03570  0.51600  Biso   1.000  O
