data_image0
_cell_length_a       12.8632
_cell_length_b       26.6997
_cell_length_c       8.4942
_cell_angle_alpha    90
_cell_angle_beta     90
_cell_angle_gamma    90

_symmetry_space_group_name_H-M    "P 1"
_symmetry_int_tables_number       1

loop_
  _symmetry_equiv_pos_as_xyz
  'x, y, z'

loop_
  _atom_site_label
  _atom_site_occupancy
  _atom_site_fract_x
  _atom_site_fract_y
  _atom_site_fract_z
  _atom_site_thermal_displace_type
  _atom_site_B_iso_or_equiv
  _atom_site_type_symbol
  Cu1      1.0000 0.31890  0.25000  0.97605  Biso   1.000  Cu
  Cu2      1.0000 0.18110  0.75000  0.47605  Biso   1.000  Cu
  Cu3      1.0000 0.68110  0.75000  0.02395  Biso   1.000  Cu
  Cu4      1.0000 0.81890  0.25000  0.52395  Biso   1.000  Cu
  Cu5      1.0000 0.62414  0.25000  0.10495  Biso   1.000  Cu
  Cu6      1.0000 0.87586  0.75000  0.60495  Biso   1.000  Cu
  Cu7      1.0000 0.37586  0.75000  0.89505  Biso   1.000  Cu
  Cu8      1.0000 0.12414  0.25000  0.39505  Biso   1.000  Cu
  O1       1.0000 0.43120  0.25000  0.13160  Biso   1.000  O
  O2       1.0000 0.06880  0.75000  0.63160  Biso   1.000  O
  O3       1.0000 0.56880  0.75000  0.86840  Biso   1.000  O
  O4       1.0000 0.93120  0.25000  0.36840  Biso   1.000  O
  O5       1.0000 0.31300  0.25000  0.32360  Biso   1.000  O
  O6       1.0000 0.18700  0.75000  0.82360  Biso   1.000  O
  O7       1.0000 0.68700  0.75000  0.67640  Biso   1.000  O
  O8       1.0000 0.81300  0.25000  0.17640  Biso   1.000  O
  O9       1.0000 0.74890  0.25000  0.75000  Biso   1.000  O
  O10      1.0000 0.75110  0.75000  0.25000  Biso   1.000  O
  O11      1.0000 0.25110  0.75000  0.25000  Biso   1.000  O
  O12      1.0000 0.24890  0.25000  0.75000  Biso   1.000  O
  O13      1.0000 0.59240  0.25000  0.87090  Biso   1.000  O
  O14      1.0000 0.90760  0.75000  0.37090  Biso   1.000  O
  O15      1.0000 0.40760  0.75000  0.12910  Biso   1.000  O
  O16      1.0000 0.09240  0.25000  0.62910  Biso   1.000  O
  N1       1.0000 0.59180  0.25000  0.33620  Biso   1.000  N
  N2       1.0000 0.90820  0.75000  0.83620  Biso   1.000  N
  N3       1.0000 0.40820  0.75000  0.66380  Biso   1.000  N
  N4       1.0000 0.09180  0.25000  0.16380  Biso   1.000  N
  N5       1.0000 0.65610  0.25000  0.46320  Biso   1.000  N
  N6       1.0000 0.84390  0.75000  0.96320  Biso   1.000  N
  N7       1.0000 0.34390  0.75000  0.53680  Biso   1.000  N
  N8       1.0000 0.15610  0.25000  0.03680  Biso   1.000  N
  N9       1.0000 0.64190  0.32470  0.09430  Biso   1.000  N
  N10      1.0000 0.85810  0.67530  0.59430  Biso   1.000  N
  N11      1.0000 0.35810  0.82470  0.90570  Biso   1.000  N
  N12      1.0000 0.14190  0.17530  0.40570  Biso   1.000  N
  N13      1.0000 0.35810  0.67530  0.90570  Biso   1.000  N
  N14      1.0000 0.14190  0.32470  0.40570  Biso   1.000  N
  N15      1.0000 0.64190  0.17530  0.09430  Biso   1.000  N
  N16      1.0000 0.85810  0.82470  0.59430  Biso   1.000  N
  N17      1.0000 0.66560  0.67570  0.04460  Biso   1.000  N
  N18      1.0000 0.83440  0.32430  0.54460  Biso   1.000  N
  N19      1.0000 0.33440  0.17570  0.95540  Biso   1.000  N
  N20      1.0000 0.16560  0.82430  0.45540  Biso   1.000  N
  N21      1.0000 0.33440  0.32430  0.95540  Biso   1.000  N
  N22      1.0000 0.16560  0.67570  0.45540  Biso   1.000  N
  N23      1.0000 0.66560  0.82430  0.04460  Biso   1.000  N
  N24      1.0000 0.83440  0.17570  0.54460  Biso   1.000  N
  C1       1.0000 0.49030  0.25000  0.39000  Biso   1.000  C
  C2       1.0000 0.00970  0.75000  0.89000  Biso   1.000  C
  C3       1.0000 0.50970  0.75000  0.61000  Biso   1.000  C
  C4       1.0000 0.99030  0.25000  0.11000  Biso   1.000  C
  C5       1.0000 0.49000  0.25000  0.55440  Biso   1.000  C
  C6       1.0000 0.01000  0.75000  0.05440  Biso   1.000  C
  C7       1.0000 0.51000  0.75000  0.44560  Biso   1.000  C
  C8       1.0000 0.99000  0.25000  0.94560  Biso   1.000  C
  H1       1.0000 0.43280  0.25000  0.62130  Biso   1.000  H
  H2       1.0000 0.06720  0.75000  0.12130  Biso   1.000  H
  H3       1.0000 0.56720  0.75000  0.37870  Biso   1.000  H
  H4       1.0000 0.93280  0.25000  0.87870  Biso   1.000  H
  C9       1.0000 0.59790  0.25000  0.59680  Biso   1.000  C
  C10      1.0000 0.90210  0.75000  0.09680  Biso   1.000  C
  C11      1.0000 0.40210  0.75000  0.40320  Biso   1.000  C
  C12      1.0000 0.09790  0.25000  0.90320  Biso   1.000  C
  C13      1.0000 0.40610  0.25000  0.27720  Biso   1.000  C
  C14      1.0000 0.09390  0.75000  0.77720  Biso   1.000  C
  C15      1.0000 0.59390  0.75000  0.72280  Biso   1.000  C
  C16      1.0000 0.90610  0.25000  0.22280  Biso   1.000  C
  C17      1.0000 0.65290  0.25000  0.74640  Biso   1.000  C
  C18      1.0000 0.84710  0.75000  0.24640  Biso   1.000  C
  C19      1.0000 0.34710  0.75000  0.25360  Biso   1.000  C
  C20      1.0000 0.15290  0.25000  0.75360  Biso   1.000  C
  C21      1.0000 0.71860  0.34390  0.00920  Biso   1.000  C
  C22      1.0000 0.78140  0.65610  0.50920  Biso   1.000  C
  C23      1.0000 0.28140  0.84390  0.99080  Biso   1.000  C
  C24      1.0000 0.21860  0.15610  0.49080  Biso   1.000  C
  C25      1.0000 0.28140  0.65610  0.99080  Biso   1.000  C
  C26      1.0000 0.21860  0.34390  0.49080  Biso   1.000  C
  C27      1.0000 0.71860  0.15610  0.00920  Biso   1.000  C
  C28      1.0000 0.78140  0.84390  0.50920  Biso   1.000  C
  H5       1.0000 0.76470  0.32200  0.96030  Biso   1.000  H
  H6       1.0000 0.73530  0.67800  0.46030  Biso   1.000  H
  H7       1.0000 0.23530  0.82200  0.03970  Biso   1.000  H
  H8       1.0000 0.26470  0.17800  0.53970  Biso   1.000  H
  H9       1.0000 0.23530  0.67800  0.03970  Biso   1.000  H
  H10      1.0000 0.26470  0.32200  0.53970  Biso   1.000  H
  H11      1.0000 0.76470  0.17800  0.96030  Biso   1.000  H
  H12      1.0000 0.73530  0.82200  0.46030  Biso   1.000  H
  C29      1.0000 0.73320  0.39440  0.98980  Biso   1.000  C
  C30      1.0000 0.76680  0.60560  0.48980  Biso   1.000  C
  C31      1.0000 0.26680  0.89440  0.01020  Biso   1.000  C
  C32      1.0000 0.23320  0.10560  0.51020  Biso   1.000  C
  C33      1.0000 0.26680  0.60560  0.01020  Biso   1.000  C
  C34      1.0000 0.23320  0.39440  0.51020  Biso   1.000  C
  C35      1.0000 0.73320  0.10560  0.98980  Biso   1.000  C
  C36      1.0000 0.76680  0.89440  0.48980  Biso   1.000  C
  H13      1.0000 0.78800  0.40600  0.92840  Biso   1.000  H
  H14      1.0000 0.71200  0.59400  0.42840  Biso   1.000  H
  H15      1.0000 0.21200  0.90600  0.07160  Biso   1.000  H
  H16      1.0000 0.28800  0.09400  0.57160  Biso   1.000  H
  H17      1.0000 0.21200  0.59400  0.07160  Biso   1.000  H
  H18      1.0000 0.28800  0.40600  0.57160  Biso   1.000  H
  H19      1.0000 0.78800  0.09400  0.92840  Biso   1.000  H
  H20      1.0000 0.71200  0.90600  0.42840  Biso   1.000  H
  C37      1.0000 0.66670  0.42830  0.06140  Biso   1.000  C
  C38      1.0000 0.83330  0.57170  0.56140  Biso   1.000  C
  C39      1.0000 0.33330  0.92830  0.93860  Biso   1.000  C
  C40      1.0000 0.16670  0.07170  0.43860  Biso   1.000  C
  C41      1.0000 0.33330  0.57170  0.93860  Biso   1.000  C
  C42      1.0000 0.16670  0.42830  0.43860  Biso   1.000  C
  C43      1.0000 0.66670  0.07170  0.06140  Biso   1.000  C
  C44      1.0000 0.83330  0.92830  0.56140  Biso   1.000  C
  C45      1.0000 0.58850  0.40840  0.15390  Biso   1.000  C
  C46      1.0000 0.91150  0.59160  0.65390  Biso   1.000  C
  C47      1.0000 0.41150  0.90840  0.84610  Biso   1.000  C
  C48      1.0000 0.08850  0.09160  0.34610  Biso   1.000  C
  C49      1.0000 0.41150  0.59160  0.84610  Biso   1.000  C
  C50      1.0000 0.08850  0.40840  0.34610  Biso   1.000  C
  C51      1.0000 0.58850  0.09160  0.15390  Biso   1.000  C
  C52      1.0000 0.91150  0.90840  0.65390  Biso   1.000  C
  H21      1.0000 0.54270  0.42950  0.20660  Biso   1.000  H
  H22      1.0000 0.95730  0.57050  0.70660  Biso   1.000  H
  H23      1.0000 0.45730  0.92950  0.79340  Biso   1.000  H
  H24      1.0000 0.04270  0.07050  0.29340  Biso   1.000  H
  H25      1.0000 0.45730  0.57050  0.79340  Biso   1.000  H
  H26      1.0000 0.04270  0.42950  0.29340  Biso   1.000  H
  H27      1.0000 0.54270  0.07050  0.20660  Biso   1.000  H
  H28      1.0000 0.95730  0.92950  0.70660  Biso   1.000  H
  C53      1.0000 0.57860  0.35690  0.16800  Biso   1.000  C
  C54      1.0000 0.92140  0.64310  0.66800  Biso   1.000  C
  C55      1.0000 0.42140  0.85690  0.83200  Biso   1.000  C
  C56      1.0000 0.07860  0.14310  0.33200  Biso   1.000  C
  C57      1.0000 0.42140  0.64310  0.83200  Biso   1.000  C
  C58      1.0000 0.07860  0.35690  0.33200  Biso   1.000  C
  C59      1.0000 0.57860  0.14310  0.16800  Biso   1.000  C
  C60      1.0000 0.92140  0.85690  0.66800  Biso   1.000  C
  H29      1.0000 0.52580  0.34420  0.23120  Biso   1.000  H
  H30      1.0000 0.97420  0.65580  0.73120  Biso   1.000  H
  H31      1.0000 0.47420  0.84420  0.76880  Biso   1.000  H
  H32      1.0000 0.02580  0.15580  0.26880  Biso   1.000  H
  H33      1.0000 0.47420  0.65580  0.76880  Biso   1.000  H
  H34      1.0000 0.02580  0.34420  0.26880  Biso   1.000  H
  H35      1.0000 0.52580  0.15580  0.23120  Biso   1.000  H
  H36      1.0000 0.97420  0.84420  0.73120  Biso   1.000  H
  C61      1.0000 0.68230  0.48230  0.03960  Biso   1.000  C
  C62      1.0000 0.81770  0.51770  0.53960  Biso   1.000  C
  C63      1.0000 0.31770  0.98230  0.96040  Biso   1.000  C
  C64      1.0000 0.18230  0.01770  0.46040  Biso   1.000  C
  C65      1.0000 0.31770  0.51770  0.96040  Biso   1.000  C
  C66      1.0000 0.18230  0.48230  0.46040  Biso   1.000  C
  C67      1.0000 0.68230  0.01770  0.03960  Biso   1.000  C
  C68      1.0000 0.81770  0.98230  0.53960  Biso   1.000  C
  H37      1.0000 0.74000  0.49220  0.98150  Biso   1.000  H
  H38      1.0000 0.76000  0.50780  0.48150  Biso   1.000  H
  H39      1.0000 0.26000  0.99220  0.01850  Biso   1.000  H
  H40      1.0000 0.24000  0.00780  0.51850  Biso   1.000  H
  H41      1.0000 0.26000  0.50780  0.01850  Biso   1.000  H
  H42      1.0000 0.24000  0.49220  0.51850  Biso   1.000  H
  H43      1.0000 0.74000  0.00780  0.98150  Biso   1.000  H
  H44      1.0000 0.76000  0.99220  0.48150  Biso   1.000  H
  C69      1.0000 0.62150  0.51810  0.09550  Biso   1.000  C
  C70      1.0000 0.87850  0.48190  0.59550  Biso   1.000  C
  C71      1.0000 0.37850  0.01810  0.90450  Biso   1.000  C
  C72      1.0000 0.12150  0.98190  0.40450  Biso   1.000  C
  C73      1.0000 0.37850  0.48190  0.90450  Biso   1.000  C
  C74      1.0000 0.12150  0.51810  0.40450  Biso   1.000  C
  C75      1.0000 0.62150  0.98190  0.09550  Biso   1.000  C
  C76      1.0000 0.87850  0.01810  0.59550  Biso   1.000  C
  H45      1.0000 0.56280  0.50850  0.15180  Biso   1.000  H
  H46      1.0000 0.93720  0.49150  0.65180  Biso   1.000  H
  H47      1.0000 0.43720  0.00850  0.84820  Biso   1.000  H
  H48      1.0000 0.06280  0.99150  0.34820  Biso   1.000  H
  H49      1.0000 0.43720  0.49150  0.84820  Biso   1.000  H
  H50      1.0000 0.06280  0.50850  0.34820  Biso   1.000  H
  H51      1.0000 0.56280  0.99150  0.15180  Biso   1.000  H
  H52      1.0000 0.93720  0.00850  0.65180  Biso   1.000  H
  C77      1.0000 0.72450  0.64390  0.96610  Biso   1.000  C
  C78      1.0000 0.77550  0.35610  0.46610  Biso   1.000  C
  C79      1.0000 0.27550  0.14390  0.03390  Biso   1.000  C
  C80      1.0000 0.22450  0.85610  0.53390  Biso   1.000  C
  C81      1.0000 0.27550  0.35610  0.03390  Biso   1.000  C
  C82      1.0000 0.22450  0.64390  0.53390  Biso   1.000  C
  C83      1.0000 0.72450  0.85610  0.96610  Biso   1.000  C
  C84      1.0000 0.77550  0.14390  0.46610  Biso   1.000  C
  H53      1.0000 0.77570  0.65670  0.90000  Biso   1.000  H
  H54      1.0000 0.72430  0.34330  0.40000  Biso   1.000  H
  H55      1.0000 0.22430  0.15670  0.10000  Biso   1.000  H
  H56      1.0000 0.27570  0.84330  0.60000  Biso   1.000  H
  H57      1.0000 0.22430  0.34330  0.10000  Biso   1.000  H
  H58      1.0000 0.27570  0.65670  0.60000  Biso   1.000  H
  H59      1.0000 0.77570  0.84330  0.90000  Biso   1.000  H
  H60      1.0000 0.72430  0.15670  0.40000  Biso   1.000  H
  C85      1.0000 0.71360  0.59280  0.97750  Biso   1.000  C
  C86      1.0000 0.78640  0.40720  0.47750  Biso   1.000  C
  C87      1.0000 0.28640  0.09280  0.02250  Biso   1.000  C
  C88      1.0000 0.21360  0.90720  0.52250  Biso   1.000  C
  C89      1.0000 0.28640  0.40720  0.02250  Biso   1.000  C
  C90      1.0000 0.21360  0.59280  0.52250  Biso   1.000  C
  C91      1.0000 0.71360  0.90720  0.97750  Biso   1.000  C
  C92      1.0000 0.78640  0.09280  0.47750  Biso   1.000  C
  H61      1.0000 0.75660  0.57200  0.91840  Biso   1.000  H
  H62      1.0000 0.74340  0.42800  0.41840  Biso   1.000  H
  H63      1.0000 0.24340  0.07200  0.08160  Biso   1.000  H
  H64      1.0000 0.25660  0.92800  0.58160  Biso   1.000  H
  H65      1.0000 0.24340  0.42800  0.08160  Biso   1.000  H
  H66      1.0000 0.25660  0.57200  0.58160  Biso   1.000  H
  H67      1.0000 0.75660  0.92800  0.91840  Biso   1.000  H
  H68      1.0000 0.74340  0.07200  0.41840  Biso   1.000  H
  C93      1.0000 0.64050  0.57210  0.07460  Biso   1.000  C
  C94      1.0000 0.85950  0.42790  0.57460  Biso   1.000  C
  C95      1.0000 0.35950  0.07210  0.92540  Biso   1.000  C
  C96      1.0000 0.14050  0.92790  0.42540  Biso   1.000  C
  C97      1.0000 0.35950  0.42790  0.92540  Biso   1.000  C
  C98      1.0000 0.14050  0.57210  0.42540  Biso   1.000  C
  C99      1.0000 0.64050  0.92790  0.07460  Biso   1.000  C
  C100     1.0000 0.85950  0.07210  0.57460  Biso   1.000  C
  C101     1.0000 0.57670  0.60530  0.15500  Biso   1.000  C
  C102     1.0000 0.92330  0.39470  0.65500  Biso   1.000  C
  C103     1.0000 0.42330  0.10530  0.84500  Biso   1.000  C
  C104     1.0000 0.07670  0.89470  0.34500  Biso   1.000  C
  C105     1.0000 0.42330  0.39470  0.84500  Biso   1.000  C
  C106     1.0000 0.07670  0.60530  0.34500  Biso   1.000  C
  C107     1.0000 0.57670  0.89470  0.15500  Biso   1.000  C
  C108     1.0000 0.92330  0.10530  0.65500  Biso   1.000  C
  H69      1.0000 0.52470  0.59350  0.22130  Biso   1.000  H
  H70      1.0000 0.97530  0.40650  0.72130  Biso   1.000  H
  H71      1.0000 0.47530  0.09350  0.77870  Biso   1.000  H
  H72      1.0000 0.02470  0.90650  0.27870  Biso   1.000  H
  H73      1.0000 0.47530  0.40650  0.77870  Biso   1.000  H
  H74      1.0000 0.02470  0.59350  0.27870  Biso   1.000  H
  H75      1.0000 0.52470  0.90650  0.22130  Biso   1.000  H
  H76      1.0000 0.97530  0.09350  0.72130  Biso   1.000  H
  C109     1.0000 0.59150  0.65640  0.13500  Biso   1.000  C
  C110     1.0000 0.90850  0.34360  0.63500  Biso   1.000  C
  C111     1.0000 0.40850  0.15640  0.86500  Biso   1.000  C
  C112     1.0000 0.09150  0.84360  0.36500  Biso   1.000  C
  C113     1.0000 0.40850  0.34360  0.86500  Biso   1.000  C
  C114     1.0000 0.09150  0.65640  0.36500  Biso   1.000  C
  C115     1.0000 0.59150  0.84360  0.13500  Biso   1.000  C
  C116     1.0000 0.90850  0.15640  0.63500  Biso   1.000  C
  H77      1.0000 0.54720  0.67820  0.18770  Biso   1.000  H
  H78      1.0000 0.95280  0.32180  0.68770  Biso   1.000  H
  H79      1.0000 0.45280  0.17820  0.81230  Biso   1.000  H
  H80      1.0000 0.04720  0.82180  0.31230  Biso   1.000  H
  H81      1.0000 0.45280  0.32180  0.81230  Biso   1.000  H
  H82      1.0000 0.04720  0.67820  0.31230  Biso   1.000  H
  H83      1.0000 0.54720  0.82180  0.18770  Biso   1.000  H
  H84      1.0000 0.95280  0.17820  0.68770  Biso   1.000  H
  Cl1      1.0000 0.53770  0.49950  0.53650  Biso   1.000  Cl
  Cl2      1.0000 0.96230  0.50050  0.03650  Biso   1.000  Cl
  Cl3      1.0000 0.46230  0.99950  0.46350  Biso   1.000  Cl
  Cl4      1.0000 0.03770  0.00050  0.96350  Biso   1.000  Cl
  Cl5      1.0000 0.46230  0.50050  0.46350  Biso   1.000  Cl
  Cl6      1.0000 0.03770  0.49950  0.96350  Biso   1.000  Cl
  Cl7      1.0000 0.53770  0.00050  0.53650  Biso   1.000  Cl
  Cl8      1.0000 0.96230  0.99950  0.03650  Biso   1.000  Cl
  O17      1.0000 0.47900  0.54190  0.51600  Biso   1.000  O
  O18      1.0000 0.02100  0.45810  0.01600  Biso   1.000  O
  O19      1.0000 0.52100  0.04190  0.48400  Biso   1.000  O
  O20      1.0000 0.97900  0.95810  0.98400  Biso   1.000  O
  O21      1.0000 0.52100  0.45810  0.48400  Biso   1.000  O
  O22      1.0000 0.97900  0.54190  0.98400  Biso   1.000  O
  O23      1.0000 0.47900  0.95810  0.51600  Biso   1.000  O
  O24      1.0000 0.02100  0.04190  0.01600  Biso   1.000  O
  O25      1.0000 0.60860  0.49680  0.41900  Biso   1.000  O
  O26      1.0000 0.89140  0.50320  0.91900  Biso   1.000  O
  O27      1.0000 0.39140  0.99680  0.58100  Biso   1.000  O
  O28      1.0000 0.10860  0.00320  0.08100  Biso   1.000  O
  O29      1.0000 0.39140  0.50320  0.58100  Biso   1.000  O
  O30      1.0000 0.10860  0.49680  0.08100  Biso   1.000  O
  O31      1.0000 0.60860  0.00320  0.41900  Biso   1.000  O
  O32      1.0000 0.89140  0.99680  0.91900  Biso   1.000  O
  O33      1.0000 0.58040  0.50140  0.68270  Biso   1.000  O
  O34      1.0000 0.91960  0.49860  0.18270  Biso   1.000  O
  O35      1.0000 0.41960  0.00140  0.31730  Biso   1.000  O
  O36      1.0000 0.08040  0.99860  0.81730  Biso   1.000  O
  O37      1.0000 0.41960  0.49860  0.31730  Biso   1.000  O
  O38      1.0000 0.08040  0.50140  0.81730  Biso   1.000  O
  O39      1.0000 0.58040  0.99860  0.68270  Biso   1.000  O
  O40      1.0000 0.91960  0.00140  0.18270  Biso   1.000  O
  O41      1.0000 0.47200  0.45910  0.52800  Biso   1.000  O
  O42      1.0000 0.02800  0.54090  0.02800  Biso   1.000  O
  O43      1.0000 0.52800  0.95910  0.47200  Biso   1.000  O
  O44      1.0000 0.97200  0.04090  0.97200  Biso   1.000  O
  O45      1.0000 0.52800  0.54090  0.47200  Biso   1.000  O
  O46      1.0000 0.97200  0.45910  0.97200  Biso   1.000  O
  O47      1.0000 0.47200  0.04090  0.52800  Biso   1.000  O
  O48      1.0000 0.02800  0.95910  0.02800  Biso   1.000  O
