data_image0
_cell_length_a       12.7346
_cell_length_b       26.731
_cell_length_c       8.4383
_cell_angle_alpha    90
_cell_angle_beta     90
_cell_angle_gamma    90

_symmetry_space_group_name_H-M    "P 1"
_symmetry_int_tables_number       1

loop_
  _symmetry_equiv_pos_as_xyz
  'x, y, z'

loop_
  _atom_site_label
  _atom_site_occupancy
  _atom_site_fract_x
  _atom_site_fract_y
  _atom_site_fract_z
  _atom_site_thermal_displace_type
  _atom_site_B_iso_or_equiv
  _atom_site_type_symbol
  Cu1      1.0000 0.82138  0.25000  0.47040  Biso   1.000  Cu
  Cu2      1.0000 0.67862  0.75000  0.97040  Biso   1.000  Cu
  Cu3      1.0000 0.17862  0.75000  0.52960  Biso   1.000  Cu
  Cu4      1.0000 0.32138  0.25000  0.02960  Biso   1.000  Cu
  Cu5      1.0000 0.12427  0.25000  0.60795  Biso   1.000  Cu
  Cu6      1.0000 0.37573  0.75000  0.10795  Biso   1.000  Cu
  Cu7      1.0000 0.87573  0.75000  0.39205  Biso   1.000  Cu
  Cu8      1.0000 0.62427  0.25000  0.89205  Biso   1.000  Cu
  O1       1.0000 0.93160  0.25000  0.63230  Biso   1.000  O
  O2       1.0000 0.56840  0.75000  0.13230  Biso   1.000  O
  O3       1.0000 0.06840  0.75000  0.36770  Biso   1.000  O
  O4       1.0000 0.43160  0.25000  0.86770  Biso   1.000  O
  O5       1.0000 0.81190  0.25000  0.82670  Biso   1.000  O
  O6       1.0000 0.68810  0.75000  0.32670  Biso   1.000  O
  O7       1.0000 0.18810  0.75000  0.17330  Biso   1.000  O
  O8       1.0000 0.31190  0.25000  0.67330  Biso   1.000  O
  O9       1.0000 0.09540  0.25000  0.37690  Biso   1.000  O
  O10      1.0000 0.40460  0.75000  0.87690  Biso   1.000  O
  O11      1.0000 0.90460  0.75000  0.62310  Biso   1.000  O
  O12      1.0000 0.59540  0.25000  0.12310  Biso   1.000  O
  O13      1.0000 0.25080  0.25000  0.25100  Biso   1.000  O
  O14      1.0000 0.24920  0.75000  0.75100  Biso   1.000  O
  O15      1.0000 0.74920  0.75000  0.74900  Biso   1.000  O
  O16      1.0000 0.75080  0.25000  0.24900  Biso   1.000  O
  N1       1.0000 0.83710  0.32430  0.45000  Biso   1.000  N
  N2       1.0000 0.66290  0.67570  0.95000  Biso   1.000  N
  N3       1.0000 0.16290  0.82430  0.55000  Biso   1.000  N
  N4       1.0000 0.33710  0.17570  0.05000  Biso   1.000  N
  N5       1.0000 0.16290  0.67570  0.55000  Biso   1.000  N
  N6       1.0000 0.33710  0.32430  0.05000  Biso   1.000  N
  N7       1.0000 0.83710  0.17570  0.45000  Biso   1.000  N
  N8       1.0000 0.66290  0.82430  0.95000  Biso   1.000  N
  N9       1.0000 0.86170  0.67492  0.40220  Biso   1.000  N
  N10      1.0000 0.63830  0.32508  0.90220  Biso   1.000  N
  N11      1.0000 0.13830  0.17492  0.59780  Biso   1.000  N
  N12      1.0000 0.36170  0.82508  0.09780  Biso   1.000  N
  N13      1.0000 0.13830  0.32508  0.59780  Biso   1.000  N
  N14      1.0000 0.36170  0.67492  0.09780  Biso   1.000  N
  N15      1.0000 0.86170  0.82508  0.40220  Biso   1.000  N
  N16      1.0000 0.63830  0.17492  0.90220  Biso   1.000  N
  N17      1.0000 0.09220  0.25000  0.84040  Biso   1.000  N
  N18      1.0000 0.40780  0.75000  0.34040  Biso   1.000  N
  N19      1.0000 0.90780  0.75000  0.15960  Biso   1.000  N
  N20      1.0000 0.59220  0.25000  0.65960  Biso   1.000  N
  N21      1.0000 0.15680  0.25000  0.96620  Biso   1.000  N
  N22      1.0000 0.34320  0.75000  0.46620  Biso   1.000  N
  N23      1.0000 0.84320  0.75000  0.03380  Biso   1.000  N
  N24      1.0000 0.65680  0.25000  0.53380  Biso   1.000  N
  C1       1.0000 0.77640  0.35630  0.52640  Biso   1.000  C
  C2       1.0000 0.72360  0.64370  0.02640  Biso   1.000  C
  C3       1.0000 0.22360  0.85630  0.47360  Biso   1.000  C
  C4       1.0000 0.27640  0.14370  0.97360  Biso   1.000  C
  C5       1.0000 0.22360  0.64370  0.47360  Biso   1.000  C
  C6       1.0000 0.27640  0.35630  0.97360  Biso   1.000  C
  C7       1.0000 0.77640  0.14370  0.52640  Biso   1.000  C
  C8       1.0000 0.72360  0.85630  0.02640  Biso   1.000  C
  H1       1.0000 0.72420  0.34400  0.59280  Biso   1.000  H
  H2       1.0000 0.77580  0.65600  0.09280  Biso   1.000  H
  H3       1.0000 0.27580  0.84400  0.40720  Biso   1.000  H
  H4       1.0000 0.22420  0.15600  0.90720  Biso   1.000  H
  H5       1.0000 0.27580  0.65600  0.40720  Biso   1.000  H
  H6       1.0000 0.22420  0.34400  0.90720  Biso   1.000  H
  H7       1.0000 0.72420  0.15600  0.59280  Biso   1.000  H
  H8       1.0000 0.77580  0.84400  0.09280  Biso   1.000  H
  C9       1.0000 0.78780  0.40740  0.51120  Biso   1.000  C
  C10      1.0000 0.71220  0.59260  0.01120  Biso   1.000  C
  C11      1.0000 0.21220  0.90740  0.48880  Biso   1.000  C
  C12      1.0000 0.28780  0.09260  0.98880  Biso   1.000  C
  C13      1.0000 0.21220  0.59260  0.48880  Biso   1.000  C
  C14      1.0000 0.28780  0.40740  0.98880  Biso   1.000  C
  C15      1.0000 0.78780  0.09260  0.51120  Biso   1.000  C
  C16      1.0000 0.71220  0.90740  0.01120  Biso   1.000  C
  H9       1.0000 0.74370  0.42840  0.56830  Biso   1.000  H
  H10      1.0000 0.75630  0.57160  0.06830  Biso   1.000  H
  H11      1.0000 0.25630  0.92840  0.43170  Biso   1.000  H
  H12      1.0000 0.24370  0.07160  0.93170  Biso   1.000  H
  H13      1.0000 0.25630  0.57160  0.43170  Biso   1.000  H
  H14      1.0000 0.24370  0.42840  0.93170  Biso   1.000  H
  H15      1.0000 0.74370  0.07160  0.56830  Biso   1.000  H
  H16      1.0000 0.75630  0.92840  0.06830  Biso   1.000  H
  C17      1.0000 0.86260  0.42780  0.41380  Biso   1.000  C
  C18      1.0000 0.63740  0.57220  0.91380  Biso   1.000  C
  C19      1.0000 0.13740  0.92780  0.58620  Biso   1.000  C
  C20      1.0000 0.36260  0.07220  0.08620  Biso   1.000  C
  C21      1.0000 0.13740  0.57220  0.58620  Biso   1.000  C
  C22      1.0000 0.36260  0.42780  0.08620  Biso   1.000  C
  C23      1.0000 0.86260  0.07220  0.41380  Biso   1.000  C
  C24      1.0000 0.63740  0.92780  0.91380  Biso   1.000  C
  C25      1.0000 0.92530  0.39410  0.33490  Biso   1.000  C
  C26      1.0000 0.57470  0.60590  0.83490  Biso   1.000  C
  C27      1.0000 0.07470  0.89410  0.66510  Biso   1.000  C
  C28      1.0000 0.42530  0.10590  0.16510  Biso   1.000  C
  C29      1.0000 0.07470  0.60590  0.66510  Biso   1.000  C
  C30      1.0000 0.42530  0.39410  0.16510  Biso   1.000  C
  C31      1.0000 0.92530  0.10590  0.33490  Biso   1.000  C
  C32      1.0000 0.57470  0.89410  0.83490  Biso   1.000  C
  H17      1.0000 0.97740  0.40530  0.26640  Biso   1.000  H
  H18      1.0000 0.52260  0.59470  0.76640  Biso   1.000  H
  H19      1.0000 0.02260  0.90530  0.73360  Biso   1.000  H
  H20      1.0000 0.47740  0.09470  0.23360  Biso   1.000  H
  H21      1.0000 0.02260  0.59470  0.73360  Biso   1.000  H
  H22      1.0000 0.47740  0.40530  0.23360  Biso   1.000  H
  H23      1.0000 0.97740  0.09470  0.26640  Biso   1.000  H
  H24      1.0000 0.52260  0.90530  0.76640  Biso   1.000  H
  C33      1.0000 0.91060  0.34410  0.35780  Biso   1.000  C
  C34      1.0000 0.58940  0.65590  0.85780  Biso   1.000  C
  C35      1.0000 0.08940  0.84410  0.64220  Biso   1.000  C
  C36      1.0000 0.41060  0.15590  0.14220  Biso   1.000  C
  C37      1.0000 0.08940  0.65590  0.64220  Biso   1.000  C
  C38      1.0000 0.41060  0.34410  0.14220  Biso   1.000  C
  C39      1.0000 0.91060  0.15590  0.35780  Biso   1.000  C
  C40      1.0000 0.58940  0.84410  0.85780  Biso   1.000  C
  H25      1.0000 0.95530  0.32220  0.30490  Biso   1.000  H
  H26      1.0000 0.54470  0.67780  0.80490  Biso   1.000  H
  H27      1.0000 0.04470  0.82220  0.69510  Biso   1.000  H
  H28      1.0000 0.45530  0.17780  0.19510  Biso   1.000  H
  H29      1.0000 0.04470  0.67780  0.69510  Biso   1.000  H
  H30      1.0000 0.45530  0.32220  0.19510  Biso   1.000  H
  H31      1.0000 0.95530  0.17780  0.30490  Biso   1.000  H
  H32      1.0000 0.54470  0.82220  0.80490  Biso   1.000  H
  C41      1.0000 0.87870  0.48220  0.39070  Biso   1.000  C
  C42      1.0000 0.62130  0.51780  0.89070  Biso   1.000  C
  C43      1.0000 0.12130  0.98220  0.60930  Biso   1.000  C
  C44      1.0000 0.37870  0.01780  0.10930  Biso   1.000  C
  C45      1.0000 0.12130  0.51780  0.60930  Biso   1.000  C
  C46      1.0000 0.37870  0.48220  0.10930  Biso   1.000  C
  C47      1.0000 0.87870  0.01780  0.39070  Biso   1.000  C
  C48      1.0000 0.62130  0.98220  0.89070  Biso   1.000  C
  H33      1.0000 0.93250  0.49220  0.32320  Biso   1.000  H
  H34      1.0000 0.56750  0.50780  0.82320  Biso   1.000  H
  H35      1.0000 0.06750  0.99220  0.67680  Biso   1.000  H
  H36      1.0000 0.43250  0.00780  0.17680  Biso   1.000  H
  H37      1.0000 0.06750  0.50780  0.67680  Biso   1.000  H
  H38      1.0000 0.43250  0.49220  0.17680  Biso   1.000  H
  H39      1.0000 0.93250  0.00780  0.32320  Biso   1.000  H
  H40      1.0000 0.56750  0.99220  0.82320  Biso   1.000  H
  C49      1.0000 0.82360  0.51660  0.45730  Biso   1.000  C
  C50      1.0000 0.67640  0.48340  0.95730  Biso   1.000  C
  C51      1.0000 0.17640  0.01660  0.54270  Biso   1.000  C
  C52      1.0000 0.32360  0.98340  0.04270  Biso   1.000  C
  C53      1.0000 0.17640  0.48340  0.54270  Biso   1.000  C
  C54      1.0000 0.32360  0.51660  0.04270  Biso   1.000  C
  C55      1.0000 0.82360  0.98340  0.45730  Biso   1.000  C
  C56      1.0000 0.67640  0.01660  0.95730  Biso   1.000  C
  H41      1.0000 0.77010  0.50660  0.52520  Biso   1.000  H
  H42      1.0000 0.72990  0.49340  0.02520  Biso   1.000  H
  H43      1.0000 0.22990  0.00660  0.47480  Biso   1.000  H
  H44      1.0000 0.27010  0.99340  0.97480  Biso   1.000  H
  H45      1.0000 0.22990  0.49340  0.47480  Biso   1.000  H
  H46      1.0000 0.27010  0.50660  0.97480  Biso   1.000  H
  H47      1.0000 0.77010  0.99340  0.52520  Biso   1.000  H
  H48      1.0000 0.72990  0.00660  0.02520  Biso   1.000  H
  C57      1.0000 0.78540  0.65540  0.49210  Biso   1.000  C
  C58      1.0000 0.71460  0.34460  0.99210  Biso   1.000  C
  C59      1.0000 0.21460  0.15540  0.50790  Biso   1.000  C
  C60      1.0000 0.28540  0.84460  0.00790  Biso   1.000  C
  C61      1.0000 0.21460  0.34460  0.50790  Biso   1.000  C
  C62      1.0000 0.28540  0.65540  0.00790  Biso   1.000  C
  C63      1.0000 0.78540  0.84460  0.49210  Biso   1.000  C
  C64      1.0000 0.71460  0.15540  0.99210  Biso   1.000  C
  H49      1.0000 0.73990  0.67680  0.54520  Biso   1.000  H
  H50      1.0000 0.76010  0.32320  0.04520  Biso   1.000  H
  H51      1.0000 0.26010  0.17680  0.45480  Biso   1.000  H
  H52      1.0000 0.23990  0.82320  0.95480  Biso   1.000  H
  H53      1.0000 0.26010  0.32320  0.45480  Biso   1.000  H
  H54      1.0000 0.23990  0.67680  0.95480  Biso   1.000  H
  H55      1.0000 0.73990  0.82320  0.54520  Biso   1.000  H
  H56      1.0000 0.76010  0.17680  0.04520  Biso   1.000  H
  C65      1.0000 0.77220  0.60460  0.50860  Biso   1.000  C
  C66      1.0000 0.72780  0.39540  0.00860  Biso   1.000  C
  C67      1.0000 0.22780  0.10460  0.49140  Biso   1.000  C
  C68      1.0000 0.27220  0.89540  0.99140  Biso   1.000  C
  C69      1.0000 0.22780  0.39540  0.49140  Biso   1.000  C
  C70      1.0000 0.27220  0.60460  0.99140  Biso   1.000  C
  C71      1.0000 0.77220  0.89540  0.50860  Biso   1.000  C
  C72      1.0000 0.72780  0.10460  0.00860  Biso   1.000  C
  H57      1.0000 0.71750  0.59250  0.57080  Biso   1.000  H
  H58      1.0000 0.78250  0.40750  0.07080  Biso   1.000  H
  H59      1.0000 0.28250  0.09250  0.42920  Biso   1.000  H
  H60      1.0000 0.21750  0.90750  0.92920  Biso   1.000  H
  H61      1.0000 0.28250  0.40750  0.42920  Biso   1.000  H
  H62      1.0000 0.21750  0.59250  0.92920  Biso   1.000  H
  H63      1.0000 0.71750  0.90750  0.57080  Biso   1.000  H
  H64      1.0000 0.78250  0.09250  0.07080  Biso   1.000  H
  C73      1.0000 0.83910  0.57110  0.43370  Biso   1.000  C
  C74      1.0000 0.66090  0.42890  0.93370  Biso   1.000  C
  C75      1.0000 0.16090  0.07110  0.56630  Biso   1.000  C
  C76      1.0000 0.33910  0.92890  0.06630  Biso   1.000  C
  C77      1.0000 0.16090  0.42890  0.56630  Biso   1.000  C
  C78      1.0000 0.33910  0.57110  0.06630  Biso   1.000  C
  C79      1.0000 0.83910  0.92890  0.43370  Biso   1.000  C
  C80      1.0000 0.66090  0.07110  0.93370  Biso   1.000  C
  C81      1.0000 0.91620  0.59170  0.33920  Biso   1.000  C
  C82      1.0000 0.58380  0.40830  0.83920  Biso   1.000  C
  C83      1.0000 0.08380  0.09170  0.66080  Biso   1.000  C
  C84      1.0000 0.41620  0.90830  0.16080  Biso   1.000  C
  C85      1.0000 0.08380  0.40830  0.66080  Biso   1.000  C
  C86      1.0000 0.41620  0.59170  0.16080  Biso   1.000  C
  C87      1.0000 0.91620  0.90830  0.33920  Biso   1.000  C
  C88      1.0000 0.58380  0.09170  0.83920  Biso   1.000  C
  H65      1.0000 0.96200  0.57110  0.28370  Biso   1.000  H
  H66      1.0000 0.53800  0.42890  0.78370  Biso   1.000  H
  H67      1.0000 0.03800  0.07110  0.71630  Biso   1.000  H
  H68      1.0000 0.46200  0.92890  0.21630  Biso   1.000  H
  H69      1.0000 0.03800  0.42890  0.71630  Biso   1.000  H
  H70      1.0000 0.46200  0.57110  0.21630  Biso   1.000  H
  H71      1.0000 0.96200  0.92890  0.28370  Biso   1.000  H
  H72      1.0000 0.53800  0.07110  0.78370  Biso   1.000  H
  C89      1.0000 0.92510  0.64280  0.32720  Biso   1.000  C
  C90      1.0000 0.57490  0.35720  0.82720  Biso   1.000  C
  C91      1.0000 0.07490  0.14280  0.67280  Biso   1.000  C
  C92      1.0000 0.42510  0.85720  0.17280  Biso   1.000  C
  C93      1.0000 0.07490  0.35720  0.67280  Biso   1.000  C
  C94      1.0000 0.42510  0.64280  0.17280  Biso   1.000  C
  C95      1.0000 0.92510  0.85720  0.32720  Biso   1.000  C
  C96      1.0000 0.57490  0.14280  0.82720  Biso   1.000  C
  H73      1.0000 0.97810  0.65580  0.26340  Biso   1.000  H
  H74      1.0000 0.52190  0.34420  0.76340  Biso   1.000  H
  H75      1.0000 0.02190  0.15580  0.73660  Biso   1.000  H
  H76      1.0000 0.47810  0.84420  0.23660  Biso   1.000  H
  H77      1.0000 0.02190  0.34420  0.73660  Biso   1.000  H
  H78      1.0000 0.47810  0.65580  0.23660  Biso   1.000  H
  H79      1.0000 0.97810  0.84420  0.26340  Biso   1.000  H
  H80      1.0000 0.52190  0.15580  0.76340  Biso   1.000  H
  C97      1.0000 0.99220  0.25000  0.89190  Biso   1.000  C
  C98      1.0000 0.50780  0.75000  0.39190  Biso   1.000  C
  C99      1.0000 0.00780  0.75000  0.10810  Biso   1.000  C
  C100     1.0000 0.49220  0.25000  0.60810  Biso   1.000  C
  C101     1.0000 0.99010  0.25000  0.05800  Biso   1.000  C
  C102     1.0000 0.50990  0.75000  0.55800  Biso   1.000  C
  C103     1.0000 0.00990  0.75000  0.94200  Biso   1.000  C
  C104     1.0000 0.49010  0.25000  0.44200  Biso   1.000  C
  H81      1.0000 0.93200  0.25000  0.12470  Biso   1.000  H
  H82      1.0000 0.56800  0.75000  0.62470  Biso   1.000  H
  H83      1.0000 0.06800  0.75000  0.87530  Biso   1.000  H
  H84      1.0000 0.43200  0.25000  0.37530  Biso   1.000  H
  C105     1.0000 0.09670  0.25000  0.09980  Biso   1.000  C
  C106     1.0000 0.40330  0.75000  0.59980  Biso   1.000  C
  C107     1.0000 0.90330  0.75000  0.90020  Biso   1.000  C
  C108     1.0000 0.59670  0.25000  0.40020  Biso   1.000  C
  C109     1.0000 0.90310  0.25000  0.77850  Biso   1.000  C
  C110     1.0000 0.59690  0.75000  0.27850  Biso   1.000  C
  C111     1.0000 0.09690  0.75000  0.22150  Biso   1.000  C
  C112     1.0000 0.40310  0.25000  0.72150  Biso   1.000  C
  C113     1.0000 0.15100  0.25000  0.25200  Biso   1.000  C
  C114     1.0000 0.34900  0.75000  0.75200  Biso   1.000  C
  C115     1.0000 0.84900  0.75000  0.74800  Biso   1.000  C
  C116     1.0000 0.65100  0.25000  0.24800  Biso   1.000  C
  S1       1.0000 0.04010  0.48150  0.03900  Biso   1.000  S
  S2       1.0000 0.45990  0.51850  0.53900  Biso   1.000  S
  S3       1.0000 0.95990  0.98150  0.96100  Biso   1.000  S
  S4       1.0000 0.54010  0.01850  0.46100  Biso   1.000  S
  S5       1.0000 0.95990  0.51850  0.96100  Biso   1.000  S
  S6       1.0000 0.54010  0.48150  0.46100  Biso   1.000  S
  S7       1.0000 0.04010  0.01850  0.03900  Biso   1.000  S
  S8       1.0000 0.45990  0.98150  0.53900  Biso   1.000  S
  N25      1.0000 0.87200  0.49680  0.83100  Biso   1.000  N
  N26      1.0000 0.62800  0.50320  0.33100  Biso   1.000  N
  N27      1.0000 0.12800  0.99680  0.16900  Biso   1.000  N
  N28      1.0000 0.37200  0.00320  0.66900  Biso   1.000  N
  N29      1.0000 0.12800  0.50320  0.16900  Biso   1.000  N
  N30      1.0000 0.37200  0.49680  0.66900  Biso   1.000  N
  N31      1.0000 0.87200  0.00320  0.83100  Biso   1.000  N
  N32      1.0000 0.62800  0.99680  0.33100  Biso   1.000  N
  C117     1.0000 0.93400  0.48240  0.93400  Biso   1.000  C
  C118     1.0000 0.56600  0.51760  0.43400  Biso   1.000  C
  C119     1.0000 0.06600  0.98240  0.06600  Biso   1.000  C
  C120     1.0000 0.43400  0.01760  0.56600  Biso   1.000  C
  C121     1.0000 0.06600  0.51760  0.06600  Biso   1.000  C
  C122     1.0000 0.43400  0.48240  0.56600  Biso   1.000  C
  C123     1.0000 0.93400  0.01760  0.93400  Biso   1.000  C
  C124     1.0000 0.56600  0.98240  0.43400  Biso   1.000  C
