data_image0
_cell_length_a       12.7573
_cell_length_b       26.7175
_cell_length_c       8.4773
_cell_angle_alpha    90
_cell_angle_beta     90
_cell_angle_gamma    90

_symmetry_space_group_name_H-M    "P 1"
_symmetry_int_tables_number       1

loop_
  _symmetry_equiv_pos_as_xyz
  'x, y, z'

loop_
  _atom_site_label
  _atom_site_occupancy
  _atom_site_fract_x
  _atom_site_fract_y
  _atom_site_fract_z
  _atom_site_thermal_displace_type
  _atom_site_B_iso_or_equiv
  _atom_site_type_symbol
  Cu1      1.0000 0.67697  0.75000  0.97247  Biso   1.000  Cu
  Cu2      1.0000 0.82303  0.25000  0.47247  Biso   1.000  Cu
  Cu3      1.0000 0.32303  0.25000  0.02753  Biso   1.000  Cu
  Cu4      1.0000 0.17697  0.75000  0.52753  Biso   1.000  Cu
  Cu5      1.0000 0.37293  0.75000  0.10669  Biso   1.000  Cu
  Cu6      1.0000 0.12707  0.25000  0.60669  Biso   1.000  Cu
  Cu7      1.0000 0.62707  0.25000  0.89331  Biso   1.000  Cu
  Cu8      1.0000 0.87293  0.75000  0.39331  Biso   1.000  Cu
  O1       1.0000 0.56610  0.75000  0.13140  Biso   1.000  O
  O2       1.0000 0.93390  0.25000  0.63140  Biso   1.000  O
  O3       1.0000 0.43390  0.25000  0.86860  Biso   1.000  O
  O4       1.0000 0.06610  0.75000  0.36860  Biso   1.000  O
  O5       1.0000 0.68520  0.75000  0.32500  Biso   1.000  O
  O6       1.0000 0.81480  0.25000  0.82500  Biso   1.000  O
  O7       1.0000 0.31480  0.25000  0.67500  Biso   1.000  O
  O8       1.0000 0.18520  0.75000  0.17500  Biso   1.000  O
  O9       1.0000 0.40470  0.75000  0.87240  Biso   1.000  O
  O10      1.0000 0.09530  0.25000  0.37240  Biso   1.000  O
  O11      1.0000 0.59530  0.25000  0.12760  Biso   1.000  O
  O12      1.0000 0.90470  0.75000  0.62760  Biso   1.000  O
  O13      1.0000 0.24780  0.75000  0.75040  Biso   1.000  O
  O14      1.0000 0.25220  0.25000  0.25040  Biso   1.000  O
  O15      1.0000 0.75220  0.25000  0.24960  Biso   1.000  O
  O16      1.0000 0.74780  0.75000  0.74960  Biso   1.000  O
  N1       1.0000 0.66120  0.67552  0.95170  Biso   1.000  N
  N2       1.0000 0.83880  0.32448  0.45170  Biso   1.000  N
  N3       1.0000 0.33880  0.17552  0.04830  Biso   1.000  N
  N4       1.0000 0.16120  0.82448  0.54830  Biso   1.000  N
  N5       1.0000 0.33880  0.32448  0.04830  Biso   1.000  N
  N6       1.0000 0.16120  0.67552  0.54830  Biso   1.000  N
  N7       1.0000 0.66120  0.82448  0.95170  Biso   1.000  N
  N8       1.0000 0.83880  0.17552  0.45170  Biso   1.000  N
  N9       1.0000 0.64290  0.32492  0.90370  Biso   1.000  N
  N10      1.0000 0.85710  0.67508  0.40370  Biso   1.000  N
  N11      1.0000 0.35710  0.82492  0.09630  Biso   1.000  N
  N12      1.0000 0.14290  0.17508  0.59630  Biso   1.000  N
  N13      1.0000 0.35710  0.67508  0.09630  Biso   1.000  N
  N14      1.0000 0.14290  0.32492  0.59630  Biso   1.000  N
  N15      1.0000 0.64290  0.17508  0.90370  Biso   1.000  N
  N16      1.0000 0.85710  0.82492  0.40370  Biso   1.000  N
  N17      1.0000 0.40520  0.75000  0.33710  Biso   1.000  N
  N18      1.0000 0.09480  0.25000  0.83710  Biso   1.000  N
  N19      1.0000 0.59480  0.25000  0.66290  Biso   1.000  N
  N20      1.0000 0.90520  0.75000  0.16290  Biso   1.000  N
  N21      1.0000 0.34140  0.75000  0.46360  Biso   1.000  N
  N22      1.0000 0.15860  0.25000  0.96360  Biso   1.000  N
  N23      1.0000 0.65860  0.25000  0.53640  Biso   1.000  N
  N24      1.0000 0.84140  0.75000  0.03640  Biso   1.000  N
  C1       1.0000 0.72250  0.64420  0.02900  Biso   1.000  C
  C2       1.0000 0.77750  0.35580  0.52900  Biso   1.000  C
  C3       1.0000 0.27750  0.14420  0.97100  Biso   1.000  C
  C4       1.0000 0.22250  0.85580  0.47100  Biso   1.000  C
  C5       1.0000 0.27750  0.35580  0.97100  Biso   1.000  C
  C6       1.0000 0.22250  0.64420  0.47100  Biso   1.000  C
  C7       1.0000 0.72250  0.85580  0.02900  Biso   1.000  C
  C8       1.0000 0.77750  0.14420  0.52900  Biso   1.000  C
  H1       1.0000 0.77380  0.65700  0.09560  Biso   1.000  H
  H2       1.0000 0.72620  0.34300  0.59560  Biso   1.000  H
  H3       1.0000 0.22620  0.15700  0.90440  Biso   1.000  H
  H4       1.0000 0.27380  0.84300  0.40440  Biso   1.000  H
  H5       1.0000 0.22620  0.34300  0.90440  Biso   1.000  H
  H6       1.0000 0.27380  0.65700  0.40440  Biso   1.000  H
  H7       1.0000 0.77380  0.84300  0.09560  Biso   1.000  H
  H8       1.0000 0.72620  0.15700  0.59560  Biso   1.000  H
  C9       1.0000 0.71260  0.59290  0.01400  Biso   1.000  C
  C10      1.0000 0.78740  0.40710  0.51400  Biso   1.000  C
  C11      1.0000 0.28740  0.09290  0.98600  Biso   1.000  C
  C12      1.0000 0.21260  0.90710  0.48600  Biso   1.000  C
  C13      1.0000 0.28740  0.40710  0.98600  Biso   1.000  C
  C14      1.0000 0.21260  0.59290  0.48600  Biso   1.000  C
  C15      1.0000 0.71260  0.90710  0.01400  Biso   1.000  C
  C16      1.0000 0.78740  0.09290  0.51400  Biso   1.000  C
  H9       1.0000 0.75810  0.57210  0.06920  Biso   1.000  H
  H10      1.0000 0.74190  0.42790  0.56920  Biso   1.000  H
  H11      1.0000 0.24190  0.07210  0.93080  Biso   1.000  H
  H12      1.0000 0.25810  0.92790  0.43080  Biso   1.000  H
  H13      1.0000 0.24190  0.42790  0.93080  Biso   1.000  H
  H14      1.0000 0.25810  0.57210  0.43080  Biso   1.000  H
  H15      1.0000 0.75810  0.92790  0.06920  Biso   1.000  H
  H16      1.0000 0.74190  0.07210  0.56920  Biso   1.000  H
  C17      1.0000 0.63760  0.57220  0.92000  Biso   1.000  C
  C18      1.0000 0.86240  0.42780  0.42000  Biso   1.000  C
  C19      1.0000 0.36240  0.07220  0.08000  Biso   1.000  C
  C20      1.0000 0.13760  0.92780  0.58000  Biso   1.000  C
  C21      1.0000 0.36240  0.42780  0.08000  Biso   1.000  C
  C22      1.0000 0.13760  0.57220  0.58000  Biso   1.000  C
  C23      1.0000 0.63760  0.92780  0.92000  Biso   1.000  C
  C24      1.0000 0.86240  0.07220  0.42000  Biso   1.000  C
  C25      1.0000 0.57300  0.60510  0.84300  Biso   1.000  C
  C26      1.0000 0.92700  0.39490  0.34300  Biso   1.000  C
  C27      1.0000 0.42700  0.10510  0.15700  Biso   1.000  C
  C28      1.0000 0.07300  0.89490  0.65700  Biso   1.000  C
  C29      1.0000 0.42700  0.39490  0.15700  Biso   1.000  C
  C30      1.0000 0.07300  0.60510  0.65700  Biso   1.000  C
  C31      1.0000 0.57300  0.89490  0.84300  Biso   1.000  C
  C32      1.0000 0.92700  0.10510  0.34300  Biso   1.000  C
  H17      1.0000 0.52000  0.59330  0.77760  Biso   1.000  H
  H18      1.0000 0.98000  0.40670  0.27760  Biso   1.000  H
  H19      1.0000 0.48000  0.09330  0.22240  Biso   1.000  H
  H20      1.0000 0.02000  0.90670  0.72240  Biso   1.000  H
  H21      1.0000 0.48000  0.40670  0.22240  Biso   1.000  H
  H22      1.0000 0.02000  0.59330  0.72240  Biso   1.000  H
  H23      1.0000 0.52000  0.90670  0.77760  Biso   1.000  H
  H24      1.0000 0.98000  0.09330  0.27760  Biso   1.000  H
  C33      1.0000 0.58680  0.65590  0.86280  Biso   1.000  C
  C34      1.0000 0.91320  0.34410  0.36280  Biso   1.000  C
  C35      1.0000 0.41320  0.15590  0.13720  Biso   1.000  C
  C36      1.0000 0.08680  0.84410  0.63720  Biso   1.000  C
  C37      1.0000 0.41320  0.34410  0.13720  Biso   1.000  C
  C38      1.0000 0.08680  0.65590  0.63720  Biso   1.000  C
  C39      1.0000 0.58680  0.84410  0.86280  Biso   1.000  C
  C40      1.0000 0.91320  0.15590  0.36280  Biso   1.000  C
  H25      1.0000 0.54120  0.67750  0.81080  Biso   1.000  H
  H26      1.0000 0.95880  0.32250  0.31080  Biso   1.000  H
  H27      1.0000 0.45880  0.17750  0.18920  Biso   1.000  H
  H28      1.0000 0.04120  0.82250  0.68920  Biso   1.000  H
  H29      1.0000 0.45880  0.32250  0.18920  Biso   1.000  H
  H30      1.0000 0.04120  0.67750  0.68920  Biso   1.000  H
  H31      1.0000 0.54120  0.82250  0.81080  Biso   1.000  H
  H32      1.0000 0.95880  0.17750  0.31080  Biso   1.000  H
  C41      1.0000 0.61990  0.51820  0.90000  Biso   1.000  C
  C42      1.0000 0.88010  0.48180  0.40000  Biso   1.000  C
  C43      1.0000 0.38010  0.01820  0.10000  Biso   1.000  C
  C44      1.0000 0.11990  0.98180  0.60000  Biso   1.000  C
  C45      1.0000 0.38010  0.48180  0.10000  Biso   1.000  C
  C46      1.0000 0.11990  0.51820  0.60000  Biso   1.000  C
  C47      1.0000 0.61990  0.98180  0.90000  Biso   1.000  C
  C48      1.0000 0.88010  0.01820  0.40000  Biso   1.000  C
  H33      1.0000 0.56080  0.50830  0.84400  Biso   1.000  H
  H34      1.0000 0.93920  0.49170  0.34400  Biso   1.000  H
  H35      1.0000 0.43920  0.00830  0.15600  Biso   1.000  H
  H36      1.0000 0.06080  0.99170  0.65600  Biso   1.000  H
  H37      1.0000 0.43920  0.49170  0.15600  Biso   1.000  H
  H38      1.0000 0.06080  0.50830  0.65600  Biso   1.000  H
  H39      1.0000 0.56080  0.99170  0.84400  Biso   1.000  H
  H40      1.0000 0.93920  0.00830  0.34400  Biso   1.000  H
  C49      1.0000 0.68170  0.48290  0.95560  Biso   1.000  C
  C50      1.0000 0.81830  0.51710  0.45560  Biso   1.000  C
  C51      1.0000 0.31830  0.98290  0.04440  Biso   1.000  C
  C52      1.0000 0.18170  0.01710  0.54440  Biso   1.000  C
  C53      1.0000 0.31830  0.51710  0.04440  Biso   1.000  C
  C54      1.0000 0.18170  0.48290  0.54440  Biso   1.000  C
  C55      1.0000 0.68170  0.01710  0.95560  Biso   1.000  C
  C56      1.0000 0.81830  0.98290  0.45560  Biso   1.000  C
  H41      1.0000 0.73970  0.49300  0.01390  Biso   1.000  H
  H42      1.0000 0.76030  0.50700  0.51390  Biso   1.000  H
  H43      1.0000 0.26030  0.99300  0.98610  Biso   1.000  H
  H44      1.0000 0.23970  0.00700  0.48610  Biso   1.000  H
  H45      1.0000 0.26030  0.50700  0.98610  Biso   1.000  H
  H46      1.0000 0.23970  0.49300  0.48610  Biso   1.000  H
  H47      1.0000 0.73970  0.00700  0.01390  Biso   1.000  H
  H48      1.0000 0.76030  0.99300  0.51390  Biso   1.000  H
  C57      1.0000 0.71990  0.34420  0.98940  Biso   1.000  C
  C58      1.0000 0.78010  0.65580  0.48940  Biso   1.000  C
  C59      1.0000 0.28010  0.84420  0.01060  Biso   1.000  C
  C60      1.0000 0.21990  0.15580  0.51060  Biso   1.000  C
  C61      1.0000 0.28010  0.65580  0.01060  Biso   1.000  C
  C62      1.0000 0.21990  0.34420  0.51060  Biso   1.000  C
  C63      1.0000 0.71990  0.15580  0.98940  Biso   1.000  C
  C64      1.0000 0.78010  0.84420  0.48940  Biso   1.000  C
  H49      1.0000 0.76580  0.32260  0.04070  Biso   1.000  H
  H50      1.0000 0.73420  0.67740  0.54070  Biso   1.000  H
  H51      1.0000 0.23420  0.82260  0.95930  Biso   1.000  H
  H52      1.0000 0.26580  0.17740  0.45930  Biso   1.000  H
  H53      1.0000 0.23420  0.67740  0.95930  Biso   1.000  H
  H54      1.0000 0.26580  0.32260  0.45930  Biso   1.000  H
  H55      1.0000 0.76580  0.17740  0.04070  Biso   1.000  H
  H56      1.0000 0.73420  0.82260  0.54070  Biso   1.000  H
  C65      1.0000 0.73460  0.39520  0.00540  Biso   1.000  C
  C66      1.0000 0.76540  0.60480  0.50540  Biso   1.000  C
  C67      1.0000 0.26540  0.89520  0.99460  Biso   1.000  C
  C68      1.0000 0.23460  0.10480  0.49460  Biso   1.000  C
  C69      1.0000 0.26540  0.60480  0.99460  Biso   1.000  C
  C70      1.0000 0.23460  0.39520  0.49460  Biso   1.000  C
  C71      1.0000 0.73460  0.10480  0.00540  Biso   1.000  C
  C72      1.0000 0.76540  0.89520  0.50540  Biso   1.000  C
  H57      1.0000 0.79050  0.40710  0.06510  Biso   1.000  H
  H58      1.0000 0.70950  0.59290  0.56510  Biso   1.000  H
  H59      1.0000 0.20950  0.90710  0.93490  Biso   1.000  H
  H60      1.0000 0.29050  0.09290  0.43490  Biso   1.000  H
  H61      1.0000 0.20950  0.59290  0.93490  Biso   1.000  H
  H62      1.0000 0.29050  0.40710  0.43490  Biso   1.000  H
  H63      1.0000 0.79050  0.09290  0.06510  Biso   1.000  H
  H64      1.0000 0.70950  0.90710  0.56510  Biso   1.000  H
  C73      1.0000 0.66690  0.42890  0.93350  Biso   1.000  C
  C74      1.0000 0.83310  0.57110  0.43350  Biso   1.000  C
  C75      1.0000 0.33310  0.92890  0.06650  Biso   1.000  C
  C76      1.0000 0.16690  0.07110  0.56650  Biso   1.000  C
  C77      1.0000 0.33310  0.57110  0.06650  Biso   1.000  C
  C78      1.0000 0.16690  0.42890  0.56650  Biso   1.000  C
  C79      1.0000 0.66690  0.07110  0.93350  Biso   1.000  C
  C80      1.0000 0.83310  0.92890  0.43350  Biso   1.000  C
  C81      1.0000 0.58930  0.40820  0.84220  Biso   1.000  C
  C82      1.0000 0.91070  0.59180  0.34220  Biso   1.000  C
  C83      1.0000 0.41070  0.90820  0.15780  Biso   1.000  C
  C84      1.0000 0.08930  0.09180  0.65780  Biso   1.000  C
  C85      1.0000 0.41070  0.59180  0.15780  Biso   1.000  C
  C86      1.0000 0.08930  0.40820  0.65780  Biso   1.000  C
  C87      1.0000 0.58930  0.09180  0.84220  Biso   1.000  C
  C88      1.0000 0.91070  0.90820  0.34220  Biso   1.000  C
  H65      1.0000 0.54320  0.42890  0.78790  Biso   1.000  H
  H66      1.0000 0.95680  0.57110  0.28790  Biso   1.000  H
  H67      1.0000 0.45680  0.92890  0.21210  Biso   1.000  H
  H68      1.0000 0.04320  0.07110  0.71210  Biso   1.000  H
  H69      1.0000 0.45680  0.57110  0.21210  Biso   1.000  H
  H70      1.0000 0.04320  0.42890  0.71210  Biso   1.000  H
  H71      1.0000 0.54320  0.07110  0.78790  Biso   1.000  H
  H72      1.0000 0.95680  0.92890  0.28790  Biso   1.000  H
  C89      1.0000 0.57910  0.35700  0.83050  Biso   1.000  C
  C90      1.0000 0.92090  0.64300  0.33050  Biso   1.000  C
  C91      1.0000 0.42090  0.85700  0.16950  Biso   1.000  C
  C92      1.0000 0.07910  0.14300  0.66950  Biso   1.000  C
  C93      1.0000 0.42090  0.64300  0.16950  Biso   1.000  C
  C94      1.0000 0.07910  0.35700  0.66950  Biso   1.000  C
  C95      1.0000 0.57910  0.14300  0.83050  Biso   1.000  C
  C96      1.0000 0.92090  0.85700  0.33050  Biso   1.000  C
  H73      1.0000 0.52520  0.34420  0.76870  Biso   1.000  H
  H74      1.0000 0.97480  0.65580  0.26870  Biso   1.000  H
  H75      1.0000 0.47480  0.84420  0.23130  Biso   1.000  H
  H76      1.0000 0.02520  0.15580  0.73130  Biso   1.000  H
  H77      1.0000 0.47480  0.65580  0.23130  Biso   1.000  H
  H78      1.0000 0.02520  0.34420  0.73130  Biso   1.000  H
  H79      1.0000 0.52520  0.15580  0.76870  Biso   1.000  H
  H80      1.0000 0.97480  0.84420  0.26870  Biso   1.000  H
  C97      1.0000 0.50620  0.75000  0.39090  Biso   1.000  C
  C98      1.0000 0.99380  0.25000  0.89090  Biso   1.000  C
  C99      1.0000 0.49380  0.25000  0.60910  Biso   1.000  C
  C100     1.0000 0.00620  0.75000  0.10910  Biso   1.000  C
  C101     1.0000 0.50820  0.75000  0.55590  Biso   1.000  C
  C102     1.0000 0.99180  0.25000  0.05590  Biso   1.000  C
  C103     1.0000 0.49180  0.25000  0.44410  Biso   1.000  C
  C104     1.0000 0.00820  0.75000  0.94410  Biso   1.000  C
  H81      1.0000 0.56620  0.75000  0.62240  Biso   1.000  H
  H82      1.0000 0.93380  0.25000  0.12240  Biso   1.000  H
  H83      1.0000 0.43380  0.25000  0.37760  Biso   1.000  H
  H84      1.0000 0.06620  0.75000  0.87760  Biso   1.000  H
  C105     1.0000 0.40120  0.75000  0.59700  Biso   1.000  C
  C106     1.0000 0.09880  0.25000  0.09700  Biso   1.000  C
  C107     1.0000 0.59880  0.25000  0.40300  Biso   1.000  C
  C108     1.0000 0.90120  0.75000  0.90300  Biso   1.000  C
  C109     1.0000 0.59220  0.75000  0.27700  Biso   1.000  C
  C110     1.0000 0.90780  0.25000  0.77700  Biso   1.000  C
  C111     1.0000 0.40780  0.25000  0.72300  Biso   1.000  C
  C112     1.0000 0.09220  0.75000  0.22300  Biso   1.000  C
  C113     1.0000 0.34640  0.75000  0.74890  Biso   1.000  C
  C114     1.0000 0.15360  0.25000  0.24890  Biso   1.000  C
  C115     1.0000 0.65360  0.25000  0.25110  Biso   1.000  C
  C116     1.0000 0.84640  0.75000  0.75110  Biso   1.000  C
  B1       1.0000 0.47110  0.49880  0.53630  Biso   1.000  B
  B2       1.0000 0.02890  0.50120  0.03630  Biso   1.000  B
  B3       1.0000 0.52890  0.99880  0.46370  Biso   1.000  B
  B4       1.0000 0.97110  0.00120  0.96370  Biso   1.000  B
  B5       1.0000 0.52890  0.50120  0.46370  Biso   1.000  B
  B6       1.0000 0.97110  0.49880  0.96370  Biso   1.000  B
  B7       1.0000 0.47110  0.00120  0.53630  Biso   1.000  B
  B8       1.0000 0.02890  0.99880  0.03630  Biso   1.000  B
  F1       1.0000 0.54220  0.53630  0.53200  Biso   1.000  F
  F2       1.0000 0.95780  0.46370  0.03200  Biso   1.000  F
  F3       1.0000 0.45780  0.03630  0.46800  Biso   1.000  F
  F4       1.0000 0.04220  0.96370  0.96800  Biso   1.000  F
  F5       1.0000 0.45780  0.46370  0.46800  Biso   1.000  F
  F6       1.0000 0.04220  0.53630  0.96800  Biso   1.000  F
  F7       1.0000 0.54220  0.96370  0.53200  Biso   1.000  F
  F8       1.0000 0.95780  0.03630  0.03200  Biso   1.000  F
  F9       1.0000 0.39880  0.50580  0.42590  Biso   1.000  F
  F10      1.0000 0.10120  0.49420  0.92590  Biso   1.000  F
  F11      1.0000 0.60120  0.00580  0.57410  Biso   1.000  F
  F12      1.0000 0.89880  0.99420  0.07410  Biso   1.000  F
  F13      1.0000 0.60120  0.49420  0.57410  Biso   1.000  F
  F14      1.0000 0.89880  0.50580  0.07410  Biso   1.000  F
  F15      1.0000 0.39880  0.99420  0.42590  Biso   1.000  F
  F16      1.0000 0.10120  0.00580  0.92590  Biso   1.000  F
  F17      1.0000 0.52500  0.45680  0.50100  Biso   1.000  F
  F18      1.0000 0.97500  0.54320  0.00100  Biso   1.000  F
  F19      1.0000 0.47500  0.95680  0.49900  Biso   1.000  F
  F20      1.0000 0.02500  0.04320  0.99900  Biso   1.000  F
  F21      1.0000 0.47500  0.54320  0.49900  Biso   1.000  F
  F22      1.0000 0.02500  0.45680  0.99900  Biso   1.000  F
  F23      1.0000 0.52500  0.04320  0.50100  Biso   1.000  F
  F24      1.0000 0.97500  0.95680  0.00100  Biso   1.000  F
  F25      1.0000 0.42800  0.49650  0.67960  Biso   1.000  F
  F26      1.0000 0.07200  0.50350  0.17960  Biso   1.000  F
  F27      1.0000 0.57200  0.99650  0.32040  Biso   1.000  F
  F28      1.0000 0.92800  0.00350  0.82040  Biso   1.000  F
  F29      1.0000 0.57200  0.50350  0.32040  Biso   1.000  F
  F30      1.0000 0.92800  0.49650  0.82040  Biso   1.000  F
  F31      1.0000 0.42800  0.00350  0.67960  Biso   1.000  F
  F32      1.0000 0.07200  0.99650  0.17960  Biso   1.000  F
