data_image0
_cell_length_a       9.8788
_cell_length_b       11.1243
_cell_length_c       13.842
_cell_angle_alpha    69.776
_cell_angle_beta     79.719
_cell_angle_gamma    64.406

_symmetry_space_group_name_H-M    "P 1"
_symmetry_int_tables_number       1

loop_
  _symmetry_equiv_pos_as_xyz
  'x, y, z'

loop_
  _atom_site_label
  _atom_site_occupancy
  _atom_site_fract_x
  _atom_site_fract_y
  _atom_site_fract_z
  _atom_site_thermal_displace_type
  _atom_site_B_iso_or_equiv
  _atom_site_type_symbol
  Cu1      1.0000 0.16780  0.87738  0.48234  Biso   1.000  Cu
  Cu2      1.0000 0.83220  0.12262  0.51766  Biso   1.000  Cu
  Cu3      1.0000 0.07142  0.72087  0.80689  Biso   1.000  Cu
  Cu4      1.0000 0.92858  0.27913  0.19311  Biso   1.000  Cu
  Cu5      1.0000 0.00000  0.50000  0.50000  Biso   1.000  Cu
  P1       1.0000 0.94077  0.74867  0.60156  Biso   1.000  P
  P2       1.0000 0.05923  0.25133  0.39844  Biso   1.000  P
  O1       1.0000 0.37470  0.86390  0.43382  Biso   1.000  O
  O2       1.0000 0.62530  0.13610  0.56618  Biso   1.000  O
  O3       1.0000 0.58640  0.84630  0.48360  Biso   1.000  O
  O4       1.0000 0.41360  0.15370  0.51640  Biso   1.000  O
  O5       1.0000 0.17870  0.71820  0.91300  Biso   1.000  O
  O6       1.0000 0.82130  0.28180  0.08700  Biso   1.000  O
  O7       1.0000 0.36050  0.77100  0.93670  Biso   1.000  O
  O8       1.0000 0.63950  0.22900  0.06330  Biso   1.000  O
  O9       1.0000 0.97180  0.87890  0.54133  Biso   1.000  O
  O10      1.0000 0.02820  0.12110  0.45867  Biso   1.000  O
  O11      1.0000 0.00940  0.67560  0.70680  Biso   1.000  O
  O12      1.0000 0.99060  0.32440  0.29320  Biso   1.000  O
  O13      1.0000 0.99280  0.65010  0.53840  Biso   1.000  O
  O14      1.0000 0.00720  0.34990  0.46160  Biso   1.000  O
  O15      1.0000 0.76760  0.79720  0.62600  Biso   1.000  O
  O16      1.0000 0.23240  0.20280  0.37400  Biso   1.000  O
  H1       1.0000 0.72400  0.81800  0.58200  Biso   1.000  H
  H2       1.0000 0.27600  0.18200  0.41800  Biso   1.000  H
  N1       1.0000 0.25830  0.81480  0.61610  Biso   1.000  N
  N2       1.0000 0.74170  0.18520  0.38390  Biso   1.000  N
  N3       1.0000 0.21450  0.78950  0.71610  Biso   1.000  N
  N4       1.0000 0.78550  0.21050  0.28390  Biso   1.000  N
  N5       1.0000 0.12460  0.90630  0.33760  Biso   1.000  N
  N6       1.0000 0.87540  0.09370  0.66240  Biso   1.000  N
  N7       1.0000 0.17080  0.52210  0.39990  Biso   1.000  N
  N8       1.0000 0.82920  0.47790  0.60010  Biso   1.000  N
  N9       1.0000 0.91910  0.67980  0.91540  Biso   1.000  N
  N10      1.0000 0.08090  0.32020  0.08460  Biso   1.000  N
  C1       1.0000 0.38890  0.82960  0.60700  Biso   1.000  C
  C2       1.0000 0.61110  0.17040  0.39300  Biso   1.000  C
  C3       1.0000 0.43010  0.81500  0.70200  Biso   1.000  C
  C4       1.0000 0.56990  0.18500  0.29800  Biso   1.000  C
  H3       1.0000 0.51450  0.82090  0.71750  Biso   1.000  H
  H4       1.0000 0.48550  0.17910  0.28250  Biso   1.000  H
  C5       1.0000 0.31750  0.78970  0.76830  Biso   1.000  C
  C6       1.0000 0.68250  0.21030  0.23170  Biso   1.000  C
  C7       1.0000 0.45750  0.84980  0.50160  Biso   1.000  C
  C8       1.0000 0.54250  0.15020  0.49840  Biso   1.000  C
  C9       1.0000 0.28640  0.75850  0.88100  Biso   1.000  C
  C10      1.0000 0.71360  0.24150  0.11900  Biso   1.000  C
  C11      1.0000 0.20810  0.95250  0.25850  Biso   1.000  C
  C12      1.0000 0.79190  0.04750  0.74150  Biso   1.000  C
  H5       1.0000 0.28660  0.96790  0.27300  Biso   1.000  H
  H6       1.0000 0.71340  0.03210  0.72700  Biso   1.000  H
  C13      1.0000 0.18390  0.97850  0.15740  Biso   1.000  C
  C14      1.0000 0.81610  0.02150  0.84260  Biso   1.000  C
  H7       1.0000 0.24550  0.01040  0.10560  Biso   1.000  H
  H8       1.0000 0.75450  0.98960  0.89440  Biso   1.000  H
  C15      1.0000 0.07090  0.95800  0.13240  Biso   1.000  C
  C16      1.0000 0.92910  0.04200  0.86760  Biso   1.000  C
  C17      1.0000 0.98170  0.91010  0.21350  Biso   1.000  C
  C18      1.0000 0.01830  0.08990  0.78650  Biso   1.000  C
  H9       1.0000 0.90280  0.89460  0.19990  Biso   1.000  H
  H10      1.0000 0.09720  0.10540  0.80010  Biso   1.000  H
  C19      1.0000 0.01160  0.88570  0.31540  Biso   1.000  C
  C20      1.0000 0.98840  0.11430  0.68460  Biso   1.000  C
  H11      1.0000 0.95140  0.85440  0.36870  Biso   1.000  H
  H12      1.0000 0.04860  0.14560  0.63130  Biso   1.000  H
  C21      1.0000 0.28740  0.52630  0.43090  Biso   1.000  C
  C22      1.0000 0.71260  0.47370  0.56910  Biso   1.000  C
  H13      1.0000 0.29250  0.51360  0.50040  Biso   1.000  H
  H14      1.0000 0.70750  0.48640  0.49960  Biso   1.000  H
  C23      1.0000 0.40200  0.54890  0.36400  Biso   1.000  C
  C24      1.0000 0.59800  0.45110  0.63600  Biso   1.000  C
  H15      1.0000 0.48150  0.55070  0.38980  Biso   1.000  H
  H16      1.0000 0.51850  0.44930  0.61020  Biso   1.000  H
  C25      1.0000 0.40120  0.56850  0.26200  Biso   1.000  C
  C26      1.0000 0.59880  0.43150  0.73800  Biso   1.000  C
  C27      1.0000 0.27890  0.56640  0.23090  Biso   1.000  C
  C28      1.0000 0.72110  0.43360  0.76910  Biso   1.000  C
  H17      1.0000 0.27030  0.58160  0.16140  Biso   1.000  H
  H18      1.0000 0.72970  0.41840  0.83860  Biso   1.000  H
  C29      1.0000 0.16740  0.54210  0.30080  Biso   1.000  C
  C30      1.0000 0.83260  0.45790  0.69920  Biso   1.000  C
  H19      1.0000 0.08680  0.53970  0.27670  Biso   1.000  H
  H20      1.0000 0.91320  0.46030  0.72330  Biso   1.000  H
  C31      1.0000 0.92160  0.67670  0.01250  Biso   1.000  C
  C32      1.0000 0.07840  0.32330  0.98750  Biso   1.000  C
  H21      1.0000 0.99770  0.69200  0.03060  Biso   1.000  H
  H22      1.0000 0.00230  0.30800  0.96940  Biso   1.000  H
  C33      1.0000 0.81460  0.65160  0.08730  Biso   1.000  C
  C34      1.0000 0.18540  0.34840  0.91270  Biso   1.000  C
  H23      1.0000 0.81910  0.65180  0.15380  Biso   1.000  H
  H24      1.0000 0.18090  0.34820  0.84620  Biso   1.000  H
  C35      1.0000 0.70130  0.62620  0.06300  Biso   1.000  C
  C36      1.0000 0.29870  0.37380  0.93700  Biso   1.000  C
  C37      1.0000 0.70040  0.62900  0.96410  Biso   1.000  C
  C38      1.0000 0.29960  0.37100  0.03590  Biso   1.000  C
  H25      1.0000 0.62620  0.61260  0.94450  Biso   1.000  H
  H26      1.0000 0.37380  0.38740  0.05550  Biso   1.000  H
  C39      1.0000 0.80930  0.65620  0.89180  Biso   1.000  C
  C40      1.0000 0.19070  0.34380  0.10820  Biso   1.000  C
  H27      1.0000 0.80540  0.65810  0.82470  Biso   1.000  H
  H28      1.0000 0.19460  0.34190  0.17530  Biso   1.000  H
  C41      1.0000 0.54320  0.58800  0.21090  Biso   1.000  C
  C42      1.0000 0.45680  0.41200  0.78910  Biso   1.000  C
  H29      1.0000 0.61000  0.59310  0.24730  Biso   1.000  H
  H30      1.0000 0.39000  0.40690  0.75270  Biso   1.000  H
  C43      1.0000 0.56530  0.59660  0.11750  Biso   1.000  C
  C44      1.0000 0.43470  0.40340  0.88250  Biso   1.000  C
  H31      1.0000 0.50150  0.58550  0.08260  Biso   1.000  H
  H32      1.0000 0.49850  0.41450  0.91740  Biso   1.000  H
  C45      1.0000 0.06140  0.99480  0.01940  Biso   1.000  C
  C46      1.0000 0.93860  0.00520  0.98060  Biso   1.000  C
  H33      1.0000 0.13890  0.01080  0.97550  Biso   1.000  H
  H34      1.0000 0.86110  0.98920  0.02450  Biso   1.000  H
  C47      1.0000 0.49000  0.59520  0.16030  Biso   1.000  C
  C48      1.0000 0.51000  0.40480  0.83970  Biso   1.000  C
  H35      1.0000 0.45840  0.60460  0.09770  Biso   1.000  H
  H36      1.0000 0.54160  0.39540  0.90230  Biso   1.000  H
  C49      1.0000 0.61840  0.60360  0.17020  Biso   1.000  C
  C50      1.0000 0.38160  0.39640  0.82980  Biso   1.000  C
  H37      1.0000 0.65210  0.59710  0.23120  Biso   1.000  H
  H38      1.0000 0.34790  0.40290  0.76880  Biso   1.000  H
  C51      1.0000 0.97290  0.97770  0.04060  Biso   1.000  C
  C52      1.0000 0.02710  0.02230  0.95940  Biso   1.000  C
  H39      1.0000 0.88850  0.95740  0.05010  Biso   1.000  H
  H40      1.0000 0.11150  0.04260  0.94990  Biso   1.000  H
