data_image0
_cell_length_a       7.3118
_cell_length_b       10.0597
_cell_length_c       11.2579
_cell_angle_alpha    92.109
_cell_angle_beta     105.804
_cell_angle_gamma    98.416

_symmetry_space_group_name_H-M    "P 1"
_symmetry_int_tables_number       1

loop_
  _symmetry_equiv_pos_as_xyz
  'x, y, z'

loop_
  _atom_site_label
  _atom_site_occupancy
  _atom_site_fract_x
  _atom_site_fract_y
  _atom_site_fract_z
  _atom_site_thermal_displace_type
  _atom_site_B_iso_or_equiv
  _atom_site_type_symbol
  Cu1      1.0000 0.50000  0.00000  0.00000  Biso   1.000  Cu
  C1       1.0000 0.25790  0.21080  0.36250  Biso   1.000  C
  C2       1.0000 0.74210  0.78920  0.63750  Biso   1.000  C
  O1       1.0000 0.09670  0.19600  0.29540  Biso   1.000  O
  O2       1.0000 0.90330  0.80400  0.70460  Biso   1.000  O
  O3       1.0000 0.32060  0.29160  0.46810  Biso   1.000  O
  O4       1.0000 0.67940  0.70840  0.53190  Biso   1.000  O
  C3       1.0000 0.18110  0.36750  0.49640  Biso   1.000  C
  C4       1.0000 0.81890  0.63250  0.50360  Biso   1.000  C
  H1       1.0000 0.08400  0.30760  0.52460  Biso   1.000  H
  H2       1.0000 0.91600  0.69240  0.47540  Biso   1.000  H
  H3       1.0000 0.11400  0.40950  0.42220  Biso   1.000  H
  H4       1.0000 0.88600  0.59050  0.57780  Biso   1.000  H
  C5       1.0000 0.29280  0.47390  0.59730  Biso   1.000  C
  C6       1.0000 0.70720  0.52610  0.40270  Biso   1.000  C
  H5       1.0000 0.39630  0.52910  0.57100  Biso   1.000  H
  H6       1.0000 0.60370  0.47090  0.42900  Biso   1.000  H
  H7       1.0000 0.20660  0.53400  0.61580  Biso   1.000  H
  H8       1.0000 0.79340  0.46600  0.38420  Biso   1.000  H
  O5       1.0000 0.37490  0.40688  0.70580  Biso   1.000  O
  O6       1.0000 0.62510  0.59312  0.29420  Biso   1.000  O
  O7       1.0000 0.57270  0.59920  0.78850  Biso   1.000  O
  O8       1.0000 0.42730  0.40080  0.21150  Biso   1.000  O
  C7       1.0000 0.51670  0.48200  0.79400  Biso   1.000  C
  C8       1.0000 0.48330  0.51800  0.20600  Biso   1.000  C
  C9       1.0000 0.41370  0.14290  0.34000  Biso   1.000  C
  C10      1.0000 0.58630  0.85710  0.66000  Biso   1.000  C
  C11      1.0000 0.39290  0.09490  0.21880  Biso   1.000  C
  C12      1.0000 0.60710  0.90510  0.78120  Biso   1.000  C
  H9       1.0000 0.27960  0.10500  0.15640  Biso   1.000  H
  H10      1.0000 0.72040  0.89500  0.84360  Biso   1.000  H
  N1       1.0000 0.52690  0.03480  0.18650  Biso   1.000  N
  N2       1.0000 0.47310  0.96520  0.81350  Biso   1.000  N
  C13      1.0000 0.68390  0.01800  0.27700  Biso   1.000  C
  C14      1.0000 0.31610  0.98200  0.72300  Biso   1.000  C
  H11      1.0000 0.77770  0.97310  0.25590  Biso   1.000  H
  H12      1.0000 0.22230  0.02690  0.74410  Biso   1.000  H
  C15      1.0000 0.71380  0.06350  0.39910  Biso   1.000  C
  C16      1.0000 0.28620  0.93650  0.60090  Biso   1.000  C
  H13      1.0000 0.82580  0.04910  0.46050  Biso   1.000  H
  H14      1.0000 0.17420  0.95090  0.53950  Biso   1.000  H
  C17      1.0000 0.57960  0.13020  0.43130  Biso   1.000  C
  C18      1.0000 0.42040  0.86980  0.56870  Biso   1.000  C
  H15      1.0000 0.60060  0.16640  0.51390  Biso   1.000  H
  H16      1.0000 0.39940  0.83360  0.48610  Biso   1.000  H
  C19      1.0000 0.59910  0.40430  0.89910  Biso   1.000  C
  C20      1.0000 0.40090  0.59570  0.10090  Biso   1.000  C
  C21      1.0000 0.52770  0.26960  0.90400  Biso   1.000  C
  C22      1.0000 0.47230  0.73040  0.09600  Biso   1.000  C
  H17      1.0000 0.41990  0.22700  0.83910  Biso   1.000  H
  H18      1.0000 0.58010  0.77300  0.16090  Biso   1.000  H
  N3       1.0000 0.60480  0.19770  0.99660  Biso   1.000  N
  N4       1.0000 0.39520  0.80230  0.00340  Biso   1.000  N
  C23      1.0000 0.75770  0.25980  0.08810  Biso   1.000  C
  C24      1.0000 0.24230  0.74020  0.91190  Biso   1.000  C
  H19      1.0000 0.81490  0.20910  0.15370  Biso   1.000  H
  H20      1.0000 0.18510  0.79090  0.84630  Biso   1.000  H
  C25      1.0000 0.83450  0.39400  0.09050  Biso   1.000  C
  C26      1.0000 0.16550  0.60600  0.90950  Biso   1.000  C
  H21      1.0000 0.94030  0.43490  0.15730  Biso   1.000  H
  H22      1.0000 0.05970  0.56510  0.84270  Biso   1.000  H
  C27      1.0000 0.75530  0.46760  0.99440  Biso   1.000  C
  C28      1.0000 0.24470  0.53240  0.00560  Biso   1.000  C
  H23      1.0000 0.80650  0.55980  0.99340  Biso   1.000  H
  H24      1.0000 0.19350  0.44020  0.00660  Biso   1.000  H
  O9       1.0000 0.15240  0.04740  0.94050  Biso   1.000  O
  O10      1.0000 0.84760  0.95260  0.05950  Biso   1.000  O
  H25      1.0000 0.09400  0.11100  0.90800  Biso   1.000  H
  H26      1.0000 0.90600  0.88900  0.09200  Biso   1.000  H
  H27      1.0000 0.08430  0.00180  0.98840  Biso   1.000  H
  H28      1.0000 0.91570  0.99820  0.01160  Biso   1.000  H
  H29      1.0000 0.08850  0.98840  0.88550  Biso   1.000  H
  H30      1.0000 0.91150  0.01160  0.11450  Biso   1.000  H
  N5       1.0000 0.94040  0.25950  0.73650  Biso   1.000  N
  N6       1.0000 0.05960  0.74050  0.26350  Biso   1.000  N
  O11      1.0000 0.00370  0.26730  0.85270  Biso   1.000  O
  O12      1.0000 0.99630  0.73270  0.14730  Biso   1.000  O
  O13      1.0000 0.86800  0.35400  0.68300  Biso   1.000  O
  O14      1.0000 0.13200  0.64600  0.31700  Biso   1.000  O
  O15      1.0000 0.95540  0.15710  0.67760  Biso   1.000  O
  O16      1.0000 0.04460  0.84290  0.32240  Biso   1.000  O
