data_image0
_cell_length_a       7.15
_cell_length_b       9.314
_cell_length_c       10.523
_cell_angle_alpha    93.55
_cell_angle_beta     97.15
_cell_angle_gamma    109.06

_symmetry_space_group_name_H-M    "P 1"
_symmetry_int_tables_number       1

loop_
  _symmetry_equiv_pos_as_xyz
  'x, y, z'

loop_
  _atom_site_label
  _atom_site_occupancy
  _atom_site_fract_x
  _atom_site_fract_y
  _atom_site_fract_z
  _atom_site_thermal_displace_type
  _atom_site_B_iso_or_equiv
  _atom_site_type_symbol
  Cu1      1.0000 0.00000  0.00000  0.00000  Biso   1.000  Cu
  N1       1.0000 0.96870  0.83140  0.11450  Biso   1.000  N
  N2       1.0000 0.03130  0.16860  0.88550  Biso   1.000  N
  N3       1.0000 0.75090  0.88040  0.89200  Biso   1.000  N
  N4       1.0000 0.24910  0.11960  0.10800  Biso   1.000  N
  N5       1.0000 0.42890  0.77380  0.75550  Biso   1.000  N
  N6       1.0000 0.57110  0.22620  0.24450  Biso   1.000  N
  S1       1.0000 0.26870  0.85940  0.75440  Biso   1.000  S
  S2       1.0000 0.73130  0.14060  0.24560  Biso   1.000  S
  O1       1.0000 0.20780  0.86780  0.87800  Biso   1.000  O
  O2       1.0000 0.79220  0.13220  0.12200  Biso   1.000  O
  O3       1.0000 0.88300  0.21510  0.35140  Biso   1.000  O
  O4       1.0000 0.11700  0.78490  0.64860  Biso   1.000  O
  C1       1.0000 0.00250  0.85960  0.24190  Biso   1.000  C
  C2       1.0000 0.99750  0.14040  0.75810  Biso   1.000  C
  C3       1.0000 0.96540  0.74660  0.32190  Biso   1.000  C
  C4       1.0000 0.03460  0.25340  0.67810  Biso   1.000  C
  C5       1.0000 0.89090  0.59840  0.26950  Biso   1.000  C
  C6       1.0000 0.10910  0.40160  0.73050  Biso   1.000  C
  C7       1.0000 0.85920  0.56790  0.13920  Biso   1.000  C
  C8       1.0000 0.14080  0.43210  0.86080  Biso   1.000  C
  C9       1.0000 0.89870  0.68530  0.06540  Biso   1.000  C
  C10      1.0000 0.10130  0.31470  0.93460  Biso   1.000  C
  C11      1.0000 0.60850  0.95330  0.27600  Biso   1.000  C
  C12      1.0000 0.39150  0.04670  0.72400  Biso   1.000  C
  C13      1.0000 0.50920  0.84310  0.17610  Biso   1.000  C
  C14      1.0000 0.49080  0.15690  0.82390  Biso   1.000  C
  C15      1.0000 0.41540  0.69690  0.20110  Biso   1.000  C
  C16      1.0000 0.58460  0.30310  0.79890  Biso   1.000  C
  C17      1.0000 0.41650  0.65740  0.32460  Biso   1.000  C
  C18      1.0000 0.58350  0.34260  0.67540  Biso   1.000  C
  C19      1.0000 0.51420  0.77080  0.42390  Biso   1.000  C
  C20      1.0000 0.48580  0.22920  0.57610  Biso   1.000  C
  C21      1.0000 0.61060  0.91750  0.40100  Biso   1.000  C
  C22      1.0000 0.38940  0.08250  0.59900  Biso   1.000  C
  C23      1.0000 0.31720  0.49640  0.34910  Biso   1.000  C
  C24      1.0000 0.68280  0.50360  0.65090  Biso   1.000  C
  C25      1.0000 0.59610  0.83430  0.83060  Biso   1.000  C
  C26      1.0000 0.40390  0.16570  0.16940  Biso   1.000  C
  H1       1.0000 0.04940  0.96070  0.27350  Biso   1.000  H
  H2       1.0000 0.95060  0.03930  0.72650  Biso   1.000  H
  H3       1.0000 0.99060  0.77530  0.40740  Biso   1.000  H
  H4       1.0000 0.00940  0.22470  0.59260  Biso   1.000  H
  H5       1.0000 0.85980  0.52740  0.31770  Biso   1.000  H
  H6       1.0000 0.14020  0.47260  0.68230  Biso   1.000  H
  H7       1.0000 0.80710  0.46590  0.10010  Biso   1.000  H
  H8       1.0000 0.19290  0.53410  0.89990  Biso   1.000  H
  H9       1.0000 0.88200  0.66940  0.97720  Biso   1.000  H
  H10      1.0000 0.11800  0.33060  0.02280  Biso   1.000  H
  H11      1.0000 0.50320  0.86470  0.09320  Biso   1.000  H
  H12      1.0000 0.49680  0.13530  0.90680  Biso   1.000  H
  H13      1.0000 0.34880  0.62310  0.13330  Biso   1.000  H
  H14      1.0000 0.65120  0.37690  0.86670  Biso   1.000  H
  H15      1.0000 0.50880  0.74390  0.50120  Biso   1.000  H
  H16      1.0000 0.49120  0.25610  0.49880  Biso   1.000  H
  H17      1.0000 0.68060  0.00200  0.46940  Biso   1.000  H
  H18      1.0000 0.31940  0.99800  0.53060  Biso   1.000  H
  H19      1.0000 0.27070  0.49330  0.41800  Biso   1.000  H
  H20      1.0000 0.72930  0.50670  0.58200  Biso   1.000  H
  H21      1.0000 0.39710  0.44810  0.35750  Biso   1.000  H
  H22      1.0000 0.60290  0.55190  0.64250  Biso   1.000  H
  H23      1.0000 0.18340  0.43400  0.28600  Biso   1.000  H
  H24      1.0000 0.81660  0.56600  0.71400  Biso   1.000  H
