data_image0
_cell_length_a       11.6327
_cell_length_b       11.6594
_cell_length_c       11.861
_cell_angle_alpha    71.091
_cell_angle_beta     77.13
_cell_angle_gamma    85.864

_symmetry_space_group_name_H-M    "P 1"
_symmetry_int_tables_number       1

loop_
  _symmetry_equiv_pos_as_xyz
  'x, y, z'

loop_
  _atom_site_label
  _atom_site_occupancy
  _atom_site_fract_x
  _atom_site_fract_y
  _atom_site_fract_z
  _atom_site_thermal_displace_type
  _atom_site_B_iso_or_equiv
  _atom_site_type_symbol
  Cu1      1.0000 0.74632  0.20697  0.61788  Biso   1.000  Cu
  Cu2      1.0000 0.25368  0.79303  0.38212  Biso   1.000  Cu
  Mo1      1.0000 0.79756  0.30829  0.24917  Biso   1.000  Mo
  Mo2      1.0000 0.20244  0.69171  0.75083  Biso   1.000  Mo
  Mo3      1.0000 0.03930  0.49543  0.13773  Biso   1.000  Mo
  Mo4      1.0000 0.96070  0.50457  0.86227  Biso   1.000  Mo
  Mo5      1.0000 0.00046  0.23952  0.04622  Biso   1.000  Mo
  Mo6      1.0000 0.99954  0.76048  0.95378  Biso   1.000  Mo
  Mo7      1.0000 0.75964  0.57512  0.06420  Biso   1.000  Mo
  Mo8      1.0000 0.24036  0.42488  0.93580  Biso   1.000  Mo
  C1       1.0000 0.96770  0.35240  0.54860  Biso   1.000  C
  C2       1.0000 0.03230  0.64760  0.45140  Biso   1.000  C
  H1       1.0000 0.93810  0.41590  0.49170  Biso   1.000  H
  H2       1.0000 0.06190  0.58410  0.50830  Biso   1.000  H
  C3       1.0000 0.98010  0.18680  0.68170  Biso   1.000  C
  C4       1.0000 0.01990  0.81320  0.31830  Biso   1.000  C
  H3       1.0000 0.96390  0.11000  0.73800  Biso   1.000  H
  H4       1.0000 0.03610  0.89000  0.26200  Biso   1.000  H
  C5       1.0000 0.18450  0.21270  0.70530  Biso   1.000  C
  C6       1.0000 0.81550  0.78730  0.29470  Biso   1.000  C
  H5       1.0000 0.18910  0.25660  0.76100  Biso   1.000  H
  H6       1.0000 0.81090  0.74340  0.23900  Biso   1.000  H
  H7       1.0000 0.25270  0.23440  0.63840  Biso   1.000  H
  H8       1.0000 0.74730  0.76560  0.36160  Biso   1.000  H
  C7       1.0000 0.18610  0.07790  0.77100  Biso   1.000  C
  C8       1.0000 0.81390  0.92210  0.22900  Biso   1.000  C
  H9       1.0000 0.11630  0.05540  0.83570  Biso   1.000  H
  H10      1.0000 0.88370  0.94460  0.16430  Biso   1.000  H
  H11      1.0000 0.18510  0.03380  0.71440  Biso   1.000  H
  H12      1.0000 0.81490  0.96620  0.28560  Biso   1.000  H
  C9       1.0000 0.29460  0.04410  0.82390  Biso   1.000  C
  C10      1.0000 0.70540  0.95590  0.17610  Biso   1.000  C
  H13      1.0000 0.28970  0.08070  0.88750  Biso   1.000  H
  H14      1.0000 0.71030  0.91930  0.11250  Biso   1.000  H
  H15      1.0000 0.29600  0.95690  0.86130  Biso   1.000  H
  H16      1.0000 0.70400  0.04310  0.13870  Biso   1.000  H
  C11      1.0000 0.53970  0.08690  0.58440  Biso   1.000  C
  C12      1.0000 0.46030  0.91310  0.41560  Biso   1.000  C
  H17      1.0000 0.58280  0.07610  0.51250  Biso   1.000  H
  H18      1.0000 0.41720  0.92390  0.48750  Biso   1.000  H
  C13      1.0000 0.49120  0.14280  0.73920  Biso   1.000  C
  C14      1.0000 0.50880  0.85720  0.26080  Biso   1.000  C
  H19      1.0000 0.49130  0.17720  0.79980  Biso   1.000  H
  H20      1.0000 0.50870  0.82280  0.20020  Biso   1.000  H
  C15      1.0000 0.85800  0.00970  0.51520  Biso   1.000  C
  C16      1.0000 0.14200  0.99030  0.48480  Biso   1.000  C
  H21      1.0000 0.90130  0.06450  0.44540  Biso   1.000  H
  H22      1.0000 0.09870  0.93550  0.55460  Biso   1.000  H
  C17      1.0000 0.75670  0.93640  0.69310  Biso   1.000  C
  C18      1.0000 0.24330  0.06360  0.30690  Biso   1.000  C
  H23      1.0000 0.71340  0.92610  0.77170  Biso   1.000  H
  H24      1.0000 0.28660  0.07390  0.22830  Biso   1.000  H
  C19      1.0000 0.73610  0.72620  0.68960  Biso   1.000  C
  C20      1.0000 0.26390  0.27380  0.31040  Biso   1.000  C
  H25      1.0000 0.74230  0.68900  0.77390  Biso   1.000  H
  H26      1.0000 0.25770  0.31100  0.22610  Biso   1.000  H
  H27      1.0000 0.78150  0.67800  0.64220  Biso   1.000  H
  H28      1.0000 0.21850  0.32200  0.35780  Biso   1.000  H
  C21      1.0000 0.60840  0.72990  0.67990  Biso   1.000  C
  C22      1.0000 0.39160  0.27010  0.32010  Biso   1.000  C
  H29      1.0000 0.56420  0.78160  0.72400  Biso   1.000  H
  H30      1.0000 0.43580  0.21840  0.27600  Biso   1.000  H
  H31      1.0000 0.60300  0.76430  0.59500  Biso   1.000  H
  H32      1.0000 0.39700  0.23570  0.40500  Biso   1.000  H
  C23      1.0000 0.55560  0.60550  0.73090  Biso   1.000  C
  C24      1.0000 0.44440  0.39450  0.26910  Biso   1.000  C
  H33      1.0000 0.56520  0.56990  0.81440  Biso   1.000  H
  H34      1.0000 0.43480  0.43010  0.18560  Biso   1.000  H
  H35      1.0000 0.47180  0.61190  0.73220  Biso   1.000  H
  H36      1.0000 0.52820  0.38810  0.26780  Biso   1.000  H
  C25      1.0000 0.65220  0.41660  0.70020  Biso   1.000  C
  C26      1.0000 0.34780  0.58340  0.29980  Biso   1.000  C
  H37      1.0000 0.65770  0.37590  0.78040  Biso   1.000  H
  H38      1.0000 0.34230  0.62410  0.21960  Biso   1.000  H
  H39      1.0000 0.67540  0.46280  0.43100  Biso   1.000  H
  H40      1.0000 0.32460  0.53720  0.56900  Biso   1.000  H
  C27      1.0000 0.66130  0.46670  0.50970  Biso   1.000  C
  C28      1.0000 0.33870  0.53330  0.49030  Biso   1.000  C
  N1       1.0000 0.90730  0.25180  0.61290  Biso   1.000  N
  N2       1.0000 0.09270  0.74820  0.38710  Biso   1.000  N
  N3       1.0000 0.07230  0.35580  0.57120  Biso   1.000  N
  N4       1.0000 0.92770  0.64420  0.42880  Biso   1.000  N
  N5       1.0000 0.07800  0.24720  0.65830  Biso   1.000  N
  N6       1.0000 0.92200  0.75280  0.34170  Biso   1.000  N
  N7       1.0000 0.58040  0.14910  0.64460  Biso   1.000  N
  N8       1.0000 0.41960  0.85090  0.35540  Biso   1.000  N
  N9       1.0000 0.43400  0.04300  0.63620  Biso   1.000  N
  N10      1.0000 0.56600  0.95700  0.36380  Biso   1.000  N
  N11      1.0000 0.40450  0.08210  0.73450  Biso   1.000  N
  N12      1.0000 0.59550  0.91790  0.26550  Biso   1.000  N
  N13      1.0000 0.80080  0.04120  0.61490  Biso   1.000  N
  N14      1.0000 0.19920  0.95880  0.38510  Biso   1.000  N
  N15      1.0000 0.84620  0.89670  0.52700  Biso   1.000  N
  N16      1.0000 0.15380  0.10330  0.47300  Biso   1.000  N
  N17      1.0000 0.78280  0.84910  0.64410  Biso   1.000  N
  N18      1.0000 0.21720  0.15090  0.35590  Biso   1.000  N
  N19      1.0000 0.68700  0.37340  0.60790  Biso   1.000  N
  N20      1.0000 0.31300  0.62660  0.39210  Biso   1.000  N
  N21      1.0000 0.61470  0.55910  0.53870  Biso   1.000  N
  N22      1.0000 0.38530  0.44090  0.46130  Biso   1.000  N
  N23      1.0000 0.60900  0.52560  0.66100  Biso   1.000  N
  N24      1.0000 0.39100  0.47440  0.33900  Biso   1.000  N
  O1       1.0000 0.75630  0.24900  0.40290  Biso   1.000  O
  O2       1.0000 0.24370  0.75100  0.59710  Biso   1.000  O
  O3       1.0000 0.69630  0.25610  0.19520  Biso   1.000  O
  O4       1.0000 0.30370  0.74390  0.80480  Biso   1.000  O
  O5       1.0000 0.14280  0.55170  0.18400  Biso   1.000  O
  O6       1.0000 0.85720  0.44830  0.81600  Biso   1.000  O
  O7       1.0000 0.89700  0.19310  0.99130  Biso   1.000  O
  O8       1.0000 0.10300  0.80690  0.00870  Biso   1.000  O
  O9       1.0000 0.10540  0.13120  0.05470  Biso   1.000  O
  O10      1.0000 0.89460  0.86880  0.94530  Biso   1.000  O
  O11      1.0000 0.66120  0.51900  0.00900  Biso   1.000  O
  O12      1.0000 0.33880  0.48100  0.99100  Biso   1.000  O
  O13      1.0000 0.69630  0.70400  0.08520  Biso   1.000  O
  O14      1.0000 0.30370  0.29600  0.91480  Biso   1.000  O
  O15      1.0000 0.94980  0.40490  0.26980  Biso   1.000  O
  O16      1.0000 0.05020  0.59510  0.73020  Biso   1.000  O
  O17      1.0000 0.92770  0.20680  0.21200  Biso   1.000  O
  O18      1.0000 0.07230  0.79320  0.78800  Biso   1.000  O
  O19      1.0000 0.73690  0.47010  0.22530  Biso   1.000  O
  O20      1.0000 0.26310  0.52990  0.77470  Biso   1.000  O
  O21      1.0000 0.93120  0.63230  0.10510  Biso   1.000  O
  O22      1.0000 0.06880  0.36770  0.89490  Biso   1.000  O
  O23      1.0000 0.12460  0.36080  0.09060  Biso   1.000  O
  O24      1.0000 0.87540  0.63920  0.90940  Biso   1.000  O
  O25      1.0000 0.90120  0.42410  0.05460  Biso   1.000  O
  O26      1.0000 0.09880  0.57590  0.94540  Biso   1.000  O
  O27      1.0000 0.72580  0.13000  0.85520  Biso   1.000  O
  O28      1.0000 0.27420  0.87000  0.14480  Biso   1.000  O
  H41      1.0000 0.74710  0.18600  0.87760  Biso   1.000  H
  H42      1.0000 0.25290  0.81400  0.12240  Biso   1.000  H
  H43      1.0000 0.65420  0.11160  0.88950  Biso   1.000  H
  H44      1.0000 0.34580  0.88840  0.11050  Biso   1.000  H
  O29      1.0000 0.55210  0.29130  0.00640  Biso   1.000  O
  O30      1.0000 0.44790  0.70870  0.99360  Biso   1.000  O
  H45      1.0000 0.57340  0.28220  0.07290  Biso   1.000  H
  H46      1.0000 0.42660  0.71780  0.92710  Biso   1.000  H
  H47      1.0000 0.47870  0.27700  0.02120  Biso   1.000  H
  H48      1.0000 0.52130  0.72300  0.97880  Biso   1.000  H
  O31      1.0000 0.43070  0.09110  0.05030  Biso   1.000  O
  O32      1.0000 0.56930  0.90890  0.94970  Biso   1.000  O
  H49      1.0000 0.46100  0.10210  0.10490  Biso   1.000  H
  H50      1.0000 0.53900  0.89790  0.89510  Biso   1.000  H
  H51      1.0000 0.41040  0.15900  0.00530  Biso   1.000  H
  H52      1.0000 0.58960  0.84100  0.99470  Biso   1.000  H
