data_image0
_cell_length_a       10.697
_cell_length_b       14.3444
_cell_length_c       17.8853
_cell_angle_alpha    90
_cell_angle_beta     91.635
_cell_angle_gamma    90

_symmetry_space_group_name_H-M    "P 1"
_symmetry_int_tables_number       1

loop_
  _symmetry_equiv_pos_as_xyz
  'x, y, z'

loop_
  _atom_site_label
  _atom_site_occupancy
  _atom_site_fract_x
  _atom_site_fract_y
  _atom_site_fract_z
  _atom_site_thermal_displace_type
  _atom_site_B_iso_or_equiv
  _atom_site_type_symbol
  Cu1      1.0000 0.43690  0.81162  0.27358  Biso   1.000  Cu
  Cu2      1.0000 0.06310  0.31162  0.22642  Biso   1.000  Cu
  Cu3      1.0000 0.56310  0.18838  0.72642  Biso   1.000  Cu
  Cu4      1.0000 0.93690  0.68838  0.77358  Biso   1.000  Cu
  Mo1      1.0000 0.48227  0.97338  0.09479  Biso   1.000  Mo
  Mo2      1.0000 0.01773  0.47338  0.40521  Biso   1.000  Mo
  Mo3      1.0000 0.51773  0.02662  0.90521  Biso   1.000  Mo
  Mo4      1.0000 0.98227  0.52662  0.59479  Biso   1.000  Mo
  Mo5      1.0000 0.58723  0.19537  0.04126  Biso   1.000  Mo
  Mo6      1.0000 0.91277  0.69537  0.45874  Biso   1.000  Mo
  Mo7      1.0000 0.41277  0.80463  0.95874  Biso   1.000  Mo
  Mo8      1.0000 0.08723  0.30463  0.54126  Biso   1.000  Mo
  Mo9      1.0000 0.28657  0.16577  0.04365  Biso   1.000  Mo
  Mo10     1.0000 0.21343  0.66577  0.45635  Biso   1.000  Mo
  Mo11     1.0000 0.71343  0.83423  0.95635  Biso   1.000  Mo
  Mo12     1.0000 0.78657  0.33423  0.54365  Biso   1.000  Mo
  Mo13     1.0000 0.16780  0.95275  0.03012  Biso   1.000  Mo
  Mo14     1.0000 0.33220  0.45275  0.46988  Biso   1.000  Mo
  Mo15     1.0000 0.83220  0.04725  0.96988  Biso   1.000  Mo
  Mo16     1.0000 0.66780  0.54725  0.53012  Biso   1.000  Mo
  C1       1.0000 0.58990  0.67380  0.18530  Biso   1.000  C
  C2       1.0000 0.91010  0.17380  0.31470  Biso   1.000  C
  C3       1.0000 0.41010  0.32620  0.81470  Biso   1.000  C
  C4       1.0000 0.08990  0.82620  0.68530  Biso   1.000  C
  H1       1.0000 0.59210  0.71110  0.14280  Biso   1.000  H
  H2       1.0000 0.90790  0.21110  0.35720  Biso   1.000  H
  H3       1.0000 0.40790  0.28890  0.85720  Biso   1.000  H
  H4       1.0000 0.09210  0.78890  0.64280  Biso   1.000  H
  C5       1.0000 0.54770  0.62660  0.29230  Biso   1.000  C
  C6       1.0000 0.95230  0.12660  0.20770  Biso   1.000  C
  C7       1.0000 0.45230  0.37340  0.70770  Biso   1.000  C
  C8       1.0000 0.04770  0.87340  0.79230  Biso   1.000  C
  H5       1.0000 0.51610  0.62140  0.34000  Biso   1.000  H
  H6       1.0000 0.98390  0.12140  0.16000  Biso   1.000  H
  H7       1.0000 0.48390  0.37860  0.66000  Biso   1.000  H
  H8       1.0000 0.01610  0.87860  0.84000  Biso   1.000  H
  C9       1.0000 0.66490  0.47720  0.29010  Biso   1.000  C
  C10      1.0000 0.83510  0.97720  0.20990  Biso   1.000  C
  C11      1.0000 0.33510  0.52280  0.70990  Biso   1.000  C
  C12      1.0000 0.16490  0.02280  0.79010  Biso   1.000  C
  H9       1.0000 0.65830  0.47810  0.34410  Biso   1.000  H
  H10      1.0000 0.84170  0.97810  0.15590  Biso   1.000  H
  H11      1.0000 0.34170  0.52190  0.65590  Biso   1.000  H
  H12      1.0000 0.15830  0.02190  0.84410  Biso   1.000  H
  H13      1.0000 0.75250  0.46990  0.27890  Biso   1.000  H
  H14      1.0000 0.74750  0.96990  0.22110  Biso   1.000  H
  H15      1.0000 0.24750  0.53010  0.72110  Biso   1.000  H
  H16      1.0000 0.25250  0.03010  0.77890  Biso   1.000  H
  C13      1.0000 0.59280  0.39470  0.25910  Biso   1.000  C
  C14      1.0000 0.90720  0.89470  0.24090  Biso   1.000  C
  C15      1.0000 0.40720  0.60530  0.74090  Biso   1.000  C
  C16      1.0000 0.09280  0.10530  0.75910  Biso   1.000  C
  H17      1.0000 0.61320  0.38570  0.20710  Biso   1.000  H
  H18      1.0000 0.88680  0.88570  0.29290  Biso   1.000  H
  H19      1.0000 0.38680  0.61430  0.79290  Biso   1.000  H
  H20      1.0000 0.11320  0.11430  0.70710  Biso   1.000  H
  H21      1.0000 0.50390  0.40730  0.26120  Biso   1.000  H
  H22      1.0000 0.99610  0.90730  0.23880  Biso   1.000  H
  H23      1.0000 0.49610  0.59270  0.73880  Biso   1.000  H
  H24      1.0000 0.00390  0.09270  0.76120  Biso   1.000  H
  C17      1.0000 0.62320  0.30610  0.30270  Biso   1.000  C
  C18      1.0000 0.87680  0.80610  0.19730  Biso   1.000  C
  C19      1.0000 0.37680  0.69390  0.69730  Biso   1.000  C
  C20      1.0000 0.12320  0.19390  0.80270  Biso   1.000  C
  H25      1.0000 0.71190  0.29360  0.29930  Biso   1.000  H
  H26      1.0000 0.78810  0.79360  0.20070  Biso   1.000  H
  H27      1.0000 0.28810  0.70640  0.70070  Biso   1.000  H
  H28      1.0000 0.21190  0.20640  0.79930  Biso   1.000  H
  H29      1.0000 0.60630  0.31700  0.35500  Biso   1.000  H
  H30      1.0000 0.89370  0.81700  0.14500  Biso   1.000  H
  H31      1.0000 0.39370  0.68300  0.64500  Biso   1.000  H
  H32      1.0000 0.10630  0.18300  0.85500  Biso   1.000  H
  C21      1.0000 0.55240  0.22110  0.27730  Biso   1.000  C
  C22      1.0000 0.94760  0.72110  0.22270  Biso   1.000  C
  C23      1.0000 0.44760  0.77890  0.72270  Biso   1.000  C
  C24      1.0000 0.05240  0.27890  0.77730  Biso   1.000  C
  H33      1.0000 0.56580  0.21050  0.22460  Biso   1.000  H
  H34      1.0000 0.93420  0.71050  0.27540  Biso   1.000  H
  H35      1.0000 0.43420  0.78950  0.77540  Biso   1.000  H
  H36      1.0000 0.06580  0.28950  0.72460  Biso   1.000  H
  H37      1.0000 0.58320  0.16710  0.30480  Biso   1.000  H
  H38      1.0000 0.91680  0.66710  0.19520  Biso   1.000  H
  H39      1.0000 0.41680  0.83290  0.69520  Biso   1.000  H
  H40      1.0000 0.08320  0.33290  0.80480  Biso   1.000  H
  C25      1.0000 0.25000  0.23720  0.34410  Biso   1.000  C
  C26      1.0000 0.25000  0.73720  0.15590  Biso   1.000  C
  C27      1.0000 0.75000  0.76280  0.65590  Biso   1.000  C
  C28      1.0000 0.75000  0.26280  0.84410  Biso   1.000  C
  H41      1.0000 0.19010  0.23200  0.38050  Biso   1.000  H
  H42      1.0000 0.30990  0.73200  0.11950  Biso   1.000  H
  H43      1.0000 0.80990  0.76800  0.61950  Biso   1.000  H
  H44      1.0000 0.69010  0.26800  0.88050  Biso   1.000  H
  C29      1.0000 0.33340  0.26450  0.24250  Biso   1.000  C
  C30      1.0000 0.16660  0.76450  0.25750  Biso   1.000  C
  C31      1.0000 0.66660  0.73550  0.75750  Biso   1.000  C
  C32      1.0000 0.83340  0.23550  0.74250  Biso   1.000  C
  H45      1.0000 0.34780  0.28190  0.19340  Biso   1.000  H
  H46      1.0000 0.15220  0.78190  0.30660  Biso   1.000  H
  H47      1.0000 0.65220  0.71810  0.80660  Biso   1.000  H
  H48      1.0000 0.84780  0.21810  0.69340  Biso   1.000  H
  C33      1.0000 0.26450  0.97830  0.28210  Biso   1.000  C
  C34      1.0000 0.23550  0.47830  0.21790  Biso   1.000  C
  C35      1.0000 0.73550  0.02170  0.71790  Biso   1.000  C
  C36      1.0000 0.76450  0.52170  0.78210  Biso   1.000  C
  H49      1.0000 0.26170  0.98840  0.23070  Biso   1.000  H
  H50      1.0000 0.23830  0.48840  0.26930  Biso   1.000  H
  H51      1.0000 0.73830  0.01160  0.76930  Biso   1.000  H
  H52      1.0000 0.76170  0.51160  0.73070  Biso   1.000  H
  C37      1.0000 0.31810  0.92490  0.38730  Biso   1.000  C
  C38      1.0000 0.18190  0.42490  0.11270  Biso   1.000  C
  C39      1.0000 0.68190  0.07510  0.61270  Biso   1.000  C
  C40      1.0000 0.81810  0.57510  0.88730  Biso   1.000  C
  H53      1.0000 0.35690  0.89180  0.42620  Biso   1.000  H
  H54      1.0000 0.14310  0.39180  0.07380  Biso   1.000  H
  H55      1.0000 0.64310  0.10820  0.57380  Biso   1.000  H
  H56      1.0000 0.85690  0.60820  0.92620  Biso   1.000  H
  C41      1.0000 0.16600  0.01230  0.46500  Biso   1.000  C
  C42      1.0000 0.33400  0.51230  0.03500  Biso   1.000  C
  C43      1.0000 0.83400  0.98770  0.53500  Biso   1.000  C
  C44      1.0000 0.66600  0.48770  0.96500  Biso   1.000  C
  H57      1.0000 0.17390  0.07910  0.47210  Biso   1.000  H
  H58      1.0000 0.32610  0.57910  0.02790  Biso   1.000  H
  H59      1.0000 0.82610  0.92090  0.52790  Biso   1.000  H
  H60      1.0000 0.67390  0.42090  0.97210  Biso   1.000  H
  H61      1.0000 0.20870  0.98190  0.50690  Biso   1.000  H
  H62      1.0000 0.29130  0.48190  0.99310  Biso   1.000  H
  H63      1.0000 0.79130  0.01810  0.49310  Biso   1.000  H
  H64      1.0000 0.70870  0.51810  0.00690  Biso   1.000  H
  C45      1.0000 0.03040  0.98650  0.46470  Biso   1.000  C
  C46      1.0000 0.46960  0.48650  0.03530  Biso   1.000  C
  C47      1.0000 0.96960  0.01350  0.53530  Biso   1.000  C
  C48      1.0000 0.53040  0.51350  0.96470  Biso   1.000  C
  H65      1.0000 0.98750  0.01690  0.42290  Biso   1.000  H
  H66      1.0000 0.51250  0.51690  0.07710  Biso   1.000  H
  H67      1.0000 0.01250  0.98310  0.57710  Biso   1.000  H
  H68      1.0000 0.48750  0.48310  0.92290  Biso   1.000  H
  H69      1.0000 0.02230  0.91970  0.45770  Biso   1.000  H
  H70      1.0000 0.47770  0.41970  0.04230  Biso   1.000  H
  H71      1.0000 0.97770  0.08030  0.54230  Biso   1.000  H
  H72      1.0000 0.52230  0.58030  0.95770  Biso   1.000  H
  N1       1.0000 0.62110  0.56480  0.26040  Biso   1.000  N
  N2       1.0000 0.87890  0.06480  0.23960  Biso   1.000  N
  N3       1.0000 0.37890  0.43520  0.73960  Biso   1.000  N
  N4       1.0000 0.12110  0.93520  0.76040  Biso   1.000  N
  N5       1.0000 0.64920  0.59410  0.19070  Biso   1.000  N
  N6       1.0000 0.85080  0.09410  0.30930  Biso   1.000  N
  N7       1.0000 0.35080  0.40590  0.80930  Biso   1.000  N
  N8       1.0000 0.14920  0.90590  0.69070  Biso   1.000  N
  N9       1.0000 0.52590  0.69730  0.24540  Biso   1.000  N
  N10      1.0000 0.97410  0.19730  0.25460  Biso   1.000  N
  N11      1.0000 0.47410  0.30270  0.75460  Biso   1.000  N
  N12      1.0000 0.02590  0.80270  0.74540  Biso   1.000  N
  N13      1.0000 0.41880  0.23240  0.28940  Biso   1.000  N
  N14      1.0000 0.08120  0.73240  0.21060  Biso   1.000  N
  N15      1.0000 0.58120  0.76760  0.71060  Biso   1.000  N
  N16      1.0000 0.91880  0.26760  0.78940  Biso   1.000  N
  N17      1.0000 0.36690  0.21450  0.35620  Biso   1.000  N
  N18      1.0000 0.13310  0.71450  0.14380  Biso   1.000  N
  N19      1.0000 0.63310  0.78550  0.64380  Biso   1.000  N
  N20      1.0000 0.86690  0.28550  0.85620  Biso   1.000  N
  N21      1.0000 0.22310  0.26860  0.27470  Biso   1.000  N
  N22      1.0000 0.27690  0.76860  0.22530  Biso   1.000  N
  N23      1.0000 0.77690  0.73140  0.72530  Biso   1.000  N
  N24      1.0000 0.72310  0.23140  0.77470  Biso   1.000  N
  N25      1.0000 0.22700  0.98570  0.39530  Biso   1.000  N
  N26      1.0000 0.27300  0.48570  0.10470  Biso   1.000  N
  N27      1.0000 0.77300  0.01430  0.60470  Biso   1.000  N
  N28      1.0000 0.72700  0.51430  0.89530  Biso   1.000  N
  N29      1.0000 0.19120  0.02030  0.32790  Biso   1.000  N
  N30      1.0000 0.30880  0.52030  0.17210  Biso   1.000  N
  N31      1.0000 0.80880  0.97970  0.67210  Biso   1.000  N
  N32      1.0000 0.69120  0.47970  0.82790  Biso   1.000  N
  N33      1.0000 0.34610  0.91790  0.31660  Biso   1.000  N
  N34      1.0000 0.15390  0.41790  0.18340  Biso   1.000  N
  N35      1.0000 0.65390  0.08210  0.68340  Biso   1.000  N
  N36      1.0000 0.84610  0.58210  0.81660  Biso   1.000  N
  O1       1.0000 0.49300  0.89650  0.16740  Biso   1.000  O
  O2       1.0000 0.00700  0.39650  0.33260  Biso   1.000  O
  O3       1.0000 0.50700  0.10350  0.83260  Biso   1.000  O
  O4       1.0000 0.99300  0.60350  0.66740  Biso   1.000  O
  O5       1.0000 0.69900  0.23750  0.10180  Biso   1.000  O
  O6       1.0000 0.80100  0.73750  0.39820  Biso   1.000  O
  O7       1.0000 0.30100  0.76250  0.89820  Biso   1.000  O
  O8       1.0000 0.19900  0.26250  0.60180  Biso   1.000  O
  O9       1.0000 0.56260  0.28130  0.97760  Biso   1.000  O
  O10      1.0000 0.93740  0.78130  0.52240  Biso   1.000  O
  O11      1.0000 0.43740  0.71870  0.02240  Biso   1.000  O
  O12      1.0000 0.06260  0.21870  0.47760  Biso   1.000  O
  O13      1.0000 0.27880  0.24680  0.97490  Biso   1.000  O
  O14      1.0000 0.22120  0.74680  0.52510  Biso   1.000  O
  O15      1.0000 0.72120  0.75320  0.02510  Biso   1.000  O
  O16      1.0000 0.77880  0.25320  0.47490  Biso   1.000  O
  O17      1.0000 0.18250  0.20320  0.10760  Biso   1.000  O
  O18      1.0000 0.31750  0.70320  0.39240  Biso   1.000  O
  O19      1.0000 0.81750  0.79680  0.89240  Biso   1.000  O
  O20      1.0000 0.68250  0.29680  0.60760  Biso   1.000  O
  O21      1.0000 0.09840  0.94730  0.11430  Biso   1.000  O
  O22      1.0000 0.40160  0.44730  0.38570  Biso   1.000  O
  O23      1.0000 0.90160  0.05270  0.88570  Biso   1.000  O
  O24      1.0000 0.59840  0.55270  0.61430  Biso   1.000  O
  O25      1.0000 0.07200  0.89760  0.96720  Biso   1.000  O
  O26      1.0000 0.42800  0.39760  0.53280  Biso   1.000  O
  O27      1.0000 0.92800  0.10240  0.03280  Biso   1.000  O
  O28      1.0000 0.57200  0.60240  0.46720  Biso   1.000  O
  O29      1.0000 0.59800  0.05630  0.11250  Biso   1.000  O
  O30      1.0000 0.90200  0.55630  0.38750  Biso   1.000  O
  O31      1.0000 0.40200  0.94370  0.88750  Biso   1.000  O
  O32      1.0000 0.09800  0.44370  0.61250  Biso   1.000  O
  O33      1.0000 0.43830  0.20910  0.09440  Biso   1.000  O
  O34      1.0000 0.06170  0.70910  0.40560  Biso   1.000  O
  O35      1.0000 0.56170  0.79090  0.90560  Biso   1.000  O
  O36      1.0000 0.93830  0.29090  0.59440  Biso   1.000  O
  O37      1.0000 0.18910  0.07060  0.99060  Biso   1.000  O
  O38      1.0000 0.31090  0.57060  0.50940  Biso   1.000  O
  O39      1.0000 0.81090  0.92940  0.00940  Biso   1.000  O
  O40      1.0000 0.68910  0.42940  0.49060  Biso   1.000  O
  O41      1.0000 0.31420  0.88250  0.02830  Biso   1.000  O
  O42      1.0000 0.18580  0.38250  0.47170  Biso   1.000  O
  O43      1.0000 0.68580  0.11750  0.97170  Biso   1.000  O
  O44      1.0000 0.81420  0.61750  0.52830  Biso   1.000  O
  O45      1.0000 0.33490  0.03500  0.10590  Biso   1.000  O
  O46      1.0000 0.16510  0.53500  0.39410  Biso   1.000  O
  O47      1.0000 0.66510  0.96500  0.89410  Biso   1.000  O
  O48      1.0000 0.83490  0.46500  0.60590  Biso   1.000  O
  O49      1.0000 0.54350  0.90830  0.01160  Biso   1.000  O
  O50      1.0000 0.95650  0.40830  0.48840  Biso   1.000  O
  O51      1.0000 0.45650  0.09170  0.98840  Biso   1.000  O
  O52      1.0000 0.04350  0.59170  0.51160  Biso   1.000  O
  O53      1.0000 0.58190  0.84480  0.34000  Biso   1.000  O
  O54      1.0000 0.91810  0.34480  0.16000  Biso   1.000  O
  O55      1.0000 0.41810  0.15520  0.66000  Biso   1.000  O
  O56      1.0000 0.08190  0.65520  0.84000  Biso   1.000  O
  H73      1.0000 0.64410  0.81380  0.35650  Biso   1.000  H
  H74      1.0000 0.85590  0.31380  0.14350  Biso   1.000  H
  H75      1.0000 0.35590  0.18620  0.64350  Biso   1.000  H
  H76      1.0000 0.14410  0.68620  0.85650  Biso   1.000  H
  O57      1.0000 0.63690  0.01600  0.38350  Biso   1.000  O
  O58      1.0000 0.86310  0.51600  0.11650  Biso   1.000  O
  O59      1.0000 0.36310  0.98400  0.61650  Biso   1.000  O
  O60      1.0000 0.13690  0.48400  0.88350  Biso   1.000  O
  H77      1.0000 0.58910  0.97940  0.35850  Biso   1.000  H
  H78      1.0000 0.91090  0.47940  0.14150  Biso   1.000  H
  H79      1.0000 0.41090  0.02060  0.64150  Biso   1.000  H
  H80      1.0000 0.08910  0.52060  0.85850  Biso   1.000  H
  H81      1.0000 0.71210  0.99750  0.38070  Biso   1.000  H
  H82      1.0000 0.78790  0.49750  0.11930  Biso   1.000  H
  H83      1.0000 0.28790  0.00250  0.61930  Biso   1.000  H
  H84      1.0000 0.21210  0.50250  0.88070  Biso   1.000  H
  O61      1.0000 0.97720  0.64720  0.02860  Biso   1.000  O
  O62      1.0000 0.52280  0.14720  0.47140  Biso   1.000  O
  O63      1.0000 0.02280  0.35280  0.97140  Biso   1.000  O
  O64      1.0000 0.47720  0.85280  0.52860  Biso   1.000  O
  H85      1.0000 0.91760  0.66510  0.05560  Biso   1.000  H
  H86      1.0000 0.58240  0.16510  0.44440  Biso   1.000  H
  H87      1.0000 0.08240  0.33490  0.94440  Biso   1.000  H
  H88      1.0000 0.41760  0.83490  0.55560  Biso   1.000  H
  H89      1.0000 0.03320  0.68920  0.02800  Biso   1.000  H
  H90      1.0000 0.46680  0.18920  0.47200  Biso   1.000  H
  H91      1.0000 0.96680  0.31080  0.97200  Biso   1.000  H
  H92      1.0000 0.53320  0.81080  0.52800  Biso   1.000  H
  H93      1.0000 0.62310  0.79540  0.35000  Biso   1.000  H
  H94      1.0000 0.87690  0.29540  0.15000  Biso   1.000  H
  H95      1.0000 0.37690  0.20460  0.65000  Biso   1.000  H
  H96      1.0000 0.12310  0.70460  0.85000  Biso   1.000  H
