data_image0
_cell_length_a       12.4369
_cell_length_b       12.8417
_cell_length_c       13.2691
_cell_angle_alpha    99.98
_cell_angle_beta     105.142
_cell_angle_gamma    111.649

_symmetry_space_group_name_H-M    "P 1"
_symmetry_int_tables_number       1

loop_
  _symmetry_equiv_pos_as_xyz
  'x, y, z'

loop_
  _atom_site_label
  _atom_site_occupancy
  _atom_site_fract_x
  _atom_site_fract_y
  _atom_site_fract_z
  _atom_site_thermal_displace_type
  _atom_site_B_iso_or_equiv
  _atom_site_type_symbol
  Mo1      1.0000 0.26844  0.81111  0.05011  Biso   1.000  Mo
  Mo2      1.0000 0.73156  0.18889  0.94989  Biso   1.000  Mo
  Mo3      1.0000 0.55984  0.90944  0.21602  Biso   1.000  Mo
  Mo4      1.0000 0.44016  0.09056  0.78398  Biso   1.000  Mo
  Mo5      1.0000 0.51126  0.87449  0.92256  Biso   1.000  Mo
  Mo6      1.0000 0.48874  0.12551  0.07744  Biso   1.000  Mo
  Mo7      1.0000 0.19913  0.88903  0.82150  Biso   1.000  Mo
  Mo8      1.0000 0.80087  0.11097  0.17850  Biso   1.000  Mo
  Cu1      1.0000 0.00000  0.50000  0.00000  Biso   1.000  Cu
  Cu2      1.0000 0.50000  0.00000  0.50000  Biso   1.000  Cu
  N1       1.0000 0.93220  0.70350  0.23220  Biso   1.000  N
  N2       1.0000 0.06780  0.29650  0.76780  Biso   1.000  N
  N3       1.0000 0.91090  0.61020  0.27110  Biso   1.000  N
  N4       1.0000 0.08910  0.38980  0.72890  Biso   1.000  N
  N5       1.0000 0.97040  0.58330  0.12700  Biso   1.000  N
  N6       1.0000 0.02960  0.41670  0.87300  Biso   1.000  N
  N7       1.0000 0.71970  0.86960  0.67310  Biso   1.000  N
  N8       1.0000 0.28030  0.13040  0.32690  Biso   1.000  N
  N9       1.0000 0.73860  0.84490  0.57970  Biso   1.000  N
  N10      1.0000 0.26140  0.15510  0.42030  Biso   1.000  N
  N11      1.0000 0.61200  0.93060  0.56330  Biso   1.000  N
  N12      1.0000 0.38800  0.06940  0.43670  Biso   1.000  N
  N13      1.0000 0.30790  0.49520  0.20540  Biso   1.000  N
  N14      1.0000 0.69210  0.50480  0.79460  Biso   1.000  N
  N15      1.0000 0.22280  0.41510  0.23310  Biso   1.000  N
  N16      1.0000 0.77720  0.58490  0.76690  Biso   1.000  N
  N17      1.0000 0.12990  0.47510  0.10390  Biso   1.000  N
  N18      1.0000 0.87010  0.52490  0.89610  Biso   1.000  N
  N19      1.0000 0.76890  0.31540  0.51980  Biso   1.000  N
  N20      1.0000 0.23110  0.68460  0.48020  Biso   1.000  N
  N21      1.0000 0.77980  0.34040  0.62450  Biso   1.000  N
  N22      1.0000 0.22020  0.65960  0.37550  Biso   1.000  N
  N23      1.0000 0.64400  0.15570  0.53500  Biso   1.000  N
  N24      1.0000 0.35600  0.84430  0.46500  Biso   1.000  N
  C1       1.0000 0.93430  0.54070  0.20530  Biso   1.000  C
  C2       1.0000 0.06570  0.45930  0.79470  Biso   1.000  C
  H1       1.0000 0.92670  0.46750  0.21140  Biso   1.000  H
  H2       1.0000 0.07330  0.53250  0.78860  Biso   1.000  H
  C3       1.0000 0.96800  0.68650  0.14770  Biso   1.000  C
  C4       1.0000 0.03200  0.31350  0.85230  Biso   1.000  C
  H3       1.0000 0.98850  0.73960  0.10850  Biso   1.000  H
  H4       1.0000 0.01150  0.26040  0.89150  Biso   1.000  H
  C5       1.0000 0.90990  0.80140  0.27920  Biso   1.000  C
  C6       1.0000 0.09010  0.19860  0.72080  Biso   1.000  C
  H5       1.0000 0.82410  0.77190  0.27400  Biso   1.000  H
  H6       1.0000 0.17590  0.22810  0.72600  Biso   1.000  H
  H7       1.0000 0.92300  0.85590  0.23640  Biso   1.000  H
  H8       1.0000 0.07700  0.14410  0.76360  Biso   1.000  H
  C7       1.0000 0.99120  0.86630  0.39630  Biso   1.000  C
  C8       1.0000 0.00880  0.13370  0.60370  Biso   1.000  C
  H9       1.0000 0.07720  0.89620  0.40220  Biso   1.000  H
  H10      1.0000 0.92280  0.10380  0.59780  Biso   1.000  H
  H11      1.0000 0.97760  0.81270  0.43990  Biso   1.000  H
  H12      1.0000 0.02240  0.18730  0.56010  Biso   1.000  H
  C9       1.0000 0.96490  0.96780  0.44080  Biso   1.000  C
  C10      1.0000 0.03510  0.03220  0.55920  Biso   1.000  C
  H13      1.0000 0.98360  0.02310  0.39940  Biso   1.000  H
  H14      1.0000 0.01640  0.97690  0.60060  Biso   1.000  H
  H15      1.0000 0.87710  0.93780  0.42860  Biso   1.000  H
  H16      1.0000 0.12290  0.06220  0.57140  Biso   1.000  H
  C11      1.0000 0.67290  0.88160  0.51560  Biso   1.000  C
  C12      1.0000 0.32710  0.11840  0.48440  Biso   1.000  C
  H17      1.0000 0.66790  0.87490  0.44340  Biso   1.000  H
  H18      1.0000 0.33210  0.12510  0.55660  Biso   1.000  H
  C13      1.0000 0.64570  0.92000  0.66160  Biso   1.000  C
  C14      1.0000 0.35430  0.08000  0.33840  Biso   1.000  C
  H19      1.0000 0.61980  0.94550  0.71680  Biso   1.000  H
  H20      1.0000 0.38020  0.05450  0.28320  Biso   1.000  H
  C15      1.0000 0.78410  0.84720  0.77030  Biso   1.000  C
  C16      1.0000 0.21590  0.15280  0.22970  Biso   1.000  C
  H21      1.0000 0.82180  0.79700  0.74940  Biso   1.000  H
  H22      1.0000 0.17820  0.20300  0.25060  Biso   1.000  H
  H23      1.0000 0.72510  0.80670  0.80190  Biso   1.000  H
  H24      1.0000 0.27490  0.19330  0.19810  Biso   1.000  H
  C17      1.0000 0.88310  0.96150  0.85440  Biso   1.000  C
  C18      1.0000 0.11690  0.03850  0.14560  Biso   1.000  C
  H25      1.0000 0.84560  0.01330  0.87120  Biso   1.000  H
  H26      1.0000 0.15440  0.98670  0.12880  Biso   1.000  H
  H27      1.0000 0.94410  0.99960  0.82350  Biso   1.000  H
  H28      1.0000 0.05590  0.00040  0.17650  Biso   1.000  H
  C19      1.0000 0.94760  0.94320  0.95960  Biso   1.000  C
  C20      1.0000 0.05240  0.05680  0.04040  Biso   1.000  C
  H29      1.0000 0.88760  0.91020  0.99320  Biso   1.000  H
  H30      1.0000 0.11240  0.08980  0.00680  Biso   1.000  H
  H31      1.0000 0.98020  0.88720  0.94220  Biso   1.000  H
  H32      1.0000 0.01980  0.11280  0.05780  Biso   1.000  H
  C21      1.0000 0.11850  0.40640  0.17050  Biso   1.000  C
  C22      1.0000 0.88150  0.59360  0.82950  Biso   1.000  C
  H33      1.0000 0.04230  0.35700  0.17140  Biso   1.000  H
  H34      1.0000 0.95770  0.64300  0.82860  Biso   1.000  H
  C23      1.0000 0.24990  0.52860  0.12810  Biso   1.000  C
  C24      1.0000 0.75010  0.47140  0.87190  Biso   1.000  C
  H35      1.0000 0.28880  0.58250  0.09550  Biso   1.000  H
  H36      1.0000 0.71120  0.41750  0.90450  Biso   1.000  H
  C25      1.0000 0.44210  0.56430  0.28670  Biso   1.000  C
  C26      1.0000 0.55790  0.43570  0.71330  Biso   1.000  C
  H37      1.0000 0.49310  0.61590  0.25510  Biso   1.000  H
  H38      1.0000 0.50690  0.38410  0.74490  Biso   1.000  H
  H39      1.0000 0.44500  0.61130  0.35380  Biso   1.000  H
  H40      1.0000 0.55500  0.38870  0.64620  Biso   1.000  H
  C27      1.0000 0.48550  0.47540  0.30830  Biso   1.000  C
  C28      1.0000 0.51450  0.52460  0.69170  Biso   1.000  C
  H41      1.0000 0.47850  0.42600  0.24040  Biso   1.000  H
  H42      1.0000 0.52150  0.57400  0.75960  Biso   1.000  H
  H43      1.0000 0.43630  0.42610  0.34250  Biso   1.000  H
  H44      1.0000 0.56370  0.57390  0.65750  Biso   1.000  H
  C29      1.0000 0.62240  0.54220  0.38550  Biso   1.000  C
  C30      1.0000 0.37760  0.45780  0.61450  Biso   1.000  C
  H45      1.0000 0.67140  0.59260  0.35190  Biso   1.000  H
  H46      1.0000 0.32860  0.40740  0.64810  Biso   1.000  H
  H47      1.0000 0.62940  0.59050  0.45400  Biso   1.000  H
  H48      1.0000 0.37060  0.40950  0.54600  Biso   1.000  H
  C31      1.0000 0.66470  0.45470  0.40470  Biso   1.000  C
  C32      1.0000 0.33530  0.54530  0.59530  Biso   1.000  C
  H49      1.0000 0.65360  0.40620  0.33460  Biso   1.000  H
  H50      1.0000 0.34640  0.59380  0.66540  Biso   1.000  H
  H51      1.0000 0.61240  0.40450  0.43620  Biso   1.000  H
  H52      1.0000 0.38760  0.59550  0.56380  Biso   1.000  H
  C33      1.0000 0.79680  0.50080  0.47810  Biso   1.000  C
  C34      1.0000 0.20320  0.49920  0.52190  Biso   1.000  C
  H53      1.0000 0.80580  0.53660  0.55230  Biso   1.000  H
  H54      1.0000 0.19420  0.46340  0.44770  Biso   1.000  H
  H55      1.0000 0.84920  0.56100  0.45440  Biso   1.000  H
  H56      1.0000 0.15080  0.43900  0.54560  Biso   1.000  H
  C35      1.0000 0.83810  0.40480  0.47670  Biso   1.000  C
  C36      1.0000 0.16190  0.59520  0.52330  Biso   1.000  C
  H57      1.0000 0.82720  0.36800  0.40220  Biso   1.000  H
  H58      1.0000 0.17280  0.63200  0.59780  Biso   1.000  H
  H59      1.0000 0.92550  0.43850  0.52020  Biso   1.000  H
  H60      1.0000 0.07450  0.56150  0.47980  Biso   1.000  H
  C37      1.0000 0.70330  0.23980  0.62920  Biso   1.000  C
  C38      1.0000 0.29670  0.76020  0.37080  Biso   1.000  C
  H61      1.0000 0.69200  0.22890  0.69380  Biso   1.000  H
  H62      1.0000 0.30800  0.77110  0.30620  Biso   1.000  H
  C39      1.0000 0.68840  0.20640  0.46940  Biso   1.000  C
  C40      1.0000 0.31160  0.79360  0.53060  Biso   1.000  C
  H63      1.0000 0.66590  0.16970  0.39530  Biso   1.000  H
  H64      1.0000 0.33410  0.83030  0.60470  Biso   1.000  H
  O1       1.0000 0.15980  0.67010  0.98400  Biso   1.000  O
  O2       1.0000 0.84020  0.32990  0.01600  Biso   1.000  O
  O3       1.0000 0.23410  0.84710  0.16200  Biso   1.000  O
  O4       1.0000 0.76590  0.15290  0.83800  Biso   1.000  O
  O5       1.0000 0.51450  0.93950  0.32440  Biso   1.000  O
  O6       1.0000 0.48550  0.06050  0.67560  Biso   1.000  O
  O7       1.0000 0.64100  0.83350  0.25190  Biso   1.000  O
  O8       1.0000 0.35900  0.16650  0.74810  Biso   1.000  O
  O9       1.0000 0.53040  0.77200  0.84080  Biso   1.000  O
  O10      1.0000 0.46960  0.22800  0.15920  Biso   1.000  O
  O11      1.0000 0.11870  0.96680  0.79170  Biso   1.000  O
  O12      1.0000 0.88130  0.03320  0.20830  Biso   1.000  O
  O13      1.0000 0.10380  0.74850  0.74630  Biso   1.000  O
  O14      1.0000 0.89620  0.25150  0.25370  Biso   1.000  O
  O15      1.0000 0.40860  0.78430  0.11390  Biso   1.000  O
  O16      1.0000 0.59140  0.21570  0.88610  Biso   1.000  O
  O17      1.0000 0.20480  0.89420  0.96590  Biso   1.000  O
  O18      1.0000 0.79520  0.10580  0.03410  Biso   1.000  O
  O19      1.0000 0.60750  0.90900  0.06040  Biso   1.000  O
  O20      1.0000 0.39250  0.09100  0.93960  Biso   1.000  O
  O21      1.0000 0.31300  0.93550  0.75080  Biso   1.000  O
  O22      1.0000 0.68700  0.06450  0.24920  Biso   1.000  O
  O23      1.0000 0.35350  0.82040  0.91080  Biso   1.000  O
  O24      1.0000 0.64650  0.17960  0.08920  Biso   1.000  O
  O25      1.0000 0.44370  0.99640  0.12070  Biso   1.000  O
  O26      1.0000 0.55630  0.00360  0.87930  Biso   1.000  O
  O27      1.0000 0.62020  0.45440  0.07280  Biso   1.000  O
  O28      1.0000 0.37980  0.54560  0.92720  Biso   1.000  O
  H65      1.0000 0.60870  0.41050  0.11380  Biso   1.000  H
  H66      1.0000 0.39130  0.58950  0.88620  Biso   1.000  H
  H67      1.0000 0.62550  0.52070  0.10380  Biso   1.000  H
  H68      1.0000 0.37450  0.47930  0.89620  Biso   1.000  H
  O29      1.0000 0.34510  0.32560  0.95760  Biso   1.000  O
  O30      1.0000 0.65490  0.67440  0.04240  Biso   1.000  O
  H69      1.0000 0.39520  0.34150  0.02170  Biso   1.000  H
  H70      1.0000 0.60480  0.65850  0.97830  Biso   1.000  H
  H71      1.0000 0.30500  0.36670  0.95910  Biso   1.000  H
  H72      1.0000 0.69500  0.63330  0.04090  Biso   1.000  H
  C41      1.0000 0.44030  0.49970  0.23100  Biso   1.000  C
  C42      1.0000 0.55970  0.50030  0.76900  Biso   1.000  C
  C43      1.0000 0.49230  0.54700  0.35640  Biso   1.000  C
  C44      1.0000 0.50770  0.45300  0.64360  Biso   1.000  C
  H73      1.0000 0.43620  0.42230  0.20570  Biso   1.000  H
  H74      1.0000 0.56380  0.57770  0.79430  Biso   1.000  H
  H75      1.0000 0.48890  0.55240  0.19870  Biso   1.000  H
  H76      1.0000 0.51110  0.44760  0.80130  Biso   1.000  H
  H77      1.0000 0.43950  0.49770  0.38810  Biso   1.000  H
  H78      1.0000 0.56050  0.50230  0.61190  Biso   1.000  H
  H79      1.0000 0.50230  0.62680  0.38130  Biso   1.000  H
  H80      1.0000 0.49770  0.37320  0.61870  Biso   1.000  H
