data_image0
_cell_length_a       23.005
_cell_length_b       9.2208
_cell_length_c       7.9222
_cell_angle_alpha    90
_cell_angle_beta     103.2
_cell_angle_gamma    90

_symmetry_space_group_name_H-M    "P 1"
_symmetry_int_tables_number       1

loop_
  _symmetry_equiv_pos_as_xyz
  'x, y, z'

loop_
  _atom_site_label
  _atom_site_occupancy
  _atom_site_fract_x
  _atom_site_fract_y
  _atom_site_fract_z
  _atom_site_thermal_displace_type
  _atom_site_B_iso_or_equiv
  _atom_site_type_symbol
  Cu1      1.0000 0.25000  0.25000  0.00000  Biso   1.000  Cu
  Cu2      1.0000 0.75000  0.75000  0.00000  Biso   1.000  Cu
  Cu3      1.0000 0.75000  0.25000  0.50000  Biso   1.000  Cu
  Cu4      1.0000 0.25000  0.75000  0.50000  Biso   1.000  Cu
  S1       1.0000 0.31450  0.28841  0.72614  Biso   1.000  S
  S2       1.0000 0.81450  0.78841  0.72614  Biso   1.000  S
  S3       1.0000 0.68550  0.28841  0.77386  Biso   1.000  S
  S4       1.0000 0.18550  0.78841  0.77386  Biso   1.000  S
  S5       1.0000 0.68550  0.71159  0.27386  Biso   1.000  S
  S6       1.0000 0.18550  0.21159  0.27386  Biso   1.000  S
  S7       1.0000 0.31450  0.71159  0.22614  Biso   1.000  S
  S8       1.0000 0.81450  0.21159  0.22614  Biso   1.000  S
  N1       1.0000 0.40289  0.18230  0.38129  Biso   1.000  N
  N2       1.0000 0.90289  0.68230  0.38129  Biso   1.000  N
  N3       1.0000 0.59711  0.18230  0.11871  Biso   1.000  N
  N4       1.0000 0.09711  0.68230  0.11871  Biso   1.000  N
  N5       1.0000 0.59711  0.81770  0.61871  Biso   1.000  N
  N6       1.0000 0.09711  0.31770  0.61871  Biso   1.000  N
  N7       1.0000 0.40289  0.81770  0.88129  Biso   1.000  N
  N8       1.0000 0.90289  0.31770  0.88129  Biso   1.000  N
  N9       1.0000 0.40758  0.06144  0.28690  Biso   1.000  N
  N10      1.0000 0.90758  0.56144  0.28690  Biso   1.000  N
  N11      1.0000 0.59242  0.06144  0.21310  Biso   1.000  N
  N12      1.0000 0.09242  0.56144  0.21310  Biso   1.000  N
  N13      1.0000 0.59242  0.93856  0.71310  Biso   1.000  N
  N14      1.0000 0.09242  0.43856  0.71310  Biso   1.000  N
  N15      1.0000 0.40758  0.93856  0.78690  Biso   1.000  N
  N16      1.0000 0.90758  0.43856  0.78690  Biso   1.000  N
  N17      1.0000 0.32549  0.18796  0.16601  Biso   1.000  N
  N18      1.0000 0.82549  0.68796  0.16601  Biso   1.000  N
  N19      1.0000 0.67451  0.18796  0.33399  Biso   1.000  N
  N20      1.0000 0.17451  0.68796  0.33399  Biso   1.000  N
  N21      1.0000 0.67451  0.81204  0.83399  Biso   1.000  N
  N22      1.0000 0.17451  0.31204  0.83399  Biso   1.000  N
  N23      1.0000 0.32549  0.81204  0.66601  Biso   1.000  N
  N24      1.0000 0.82549  0.31204  0.66601  Biso   1.000  N
  N25      1.0000 0.26537  0.54801  0.57860  Biso   1.000  N
  N26      1.0000 0.76537  0.04801  0.57860  Biso   1.000  N
  N27      1.0000 0.73463  0.54801  0.92140  Biso   1.000  N
  N28      1.0000 0.23463  0.04801  0.92140  Biso   1.000  N
  N29      1.0000 0.73463  0.45199  0.42140  Biso   1.000  N
  N30      1.0000 0.23463  0.95199  0.42140  Biso   1.000  N
  N31      1.0000 0.26537  0.45199  0.07860  Biso   1.000  N
  N32      1.0000 0.76537  0.95199  0.07860  Biso   1.000  N
  C1       1.0000 0.35955  0.07050  0.15990  Biso   1.000  C
  C2       1.0000 0.85955  0.57050  0.15990  Biso   1.000  C
  C3       1.0000 0.64045  0.07050  0.34010  Biso   1.000  C
  C4       1.0000 0.14045  0.57050  0.34010  Biso   1.000  C
  C5       1.0000 0.64045  0.92950  0.84010  Biso   1.000  C
  C6       1.0000 0.14045  0.42950  0.84010  Biso   1.000  C
  C7       1.0000 0.35955  0.92950  0.65990  Biso   1.000  C
  C8       1.0000 0.85955  0.42950  0.65990  Biso   1.000  C
  H1       1.0000 0.34970  0.99960  0.07090  Biso   1.000  H
  H2       1.0000 0.84970  0.49960  0.07090  Biso   1.000  H
  H3       1.0000 0.65030  0.99960  0.42910  Biso   1.000  H
  H4       1.0000 0.15030  0.49960  0.42910  Biso   1.000  H
  H5       1.0000 0.65030  0.00040  0.92910  Biso   1.000  H
  H6       1.0000 0.15030  0.50040  0.92910  Biso   1.000  H
  H7       1.0000 0.34970  0.00040  0.57090  Biso   1.000  H
  H8       1.0000 0.84970  0.50040  0.57090  Biso   1.000  H
  C9       1.0000 0.35421  0.25522  0.30870  Biso   1.000  C
  C10      1.0000 0.85421  0.75522  0.30870  Biso   1.000  C
  C11      1.0000 0.64579  0.25522  0.19130  Biso   1.000  C
  C12      1.0000 0.14579  0.75522  0.19130  Biso   1.000  C
  C13      1.0000 0.64579  0.74478  0.69130  Biso   1.000  C
  C14      1.0000 0.14579  0.24478  0.69130  Biso   1.000  C
  C15      1.0000 0.35421  0.74478  0.80870  Biso   1.000  C
  C16      1.0000 0.85421  0.24478  0.80870  Biso   1.000  C
  H9       1.0000 0.34160  0.34290  0.35220  Biso   1.000  H
  H10      1.0000 0.84160  0.84290  0.35220  Biso   1.000  H
  H11      1.0000 0.65840  0.34290  0.14780  Biso   1.000  H
  H12      1.0000 0.15840  0.84290  0.14780  Biso   1.000  H
  H13      1.0000 0.65840  0.65710  0.64780  Biso   1.000  H
  H14      1.0000 0.15840  0.15710  0.64780  Biso   1.000  H
  H15      1.0000 0.34160  0.65710  0.85220  Biso   1.000  H
  H16      1.0000 0.84160  0.15710  0.85220  Biso   1.000  H
  C17      1.0000 0.44843  0.21830  0.53940  Biso   1.000  C
  C18      1.0000 0.94843  0.71830  0.53940  Biso   1.000  C
  C19      1.0000 0.55157  0.21830  0.96060  Biso   1.000  C
  C20      1.0000 0.05157  0.71830  0.96060  Biso   1.000  C
  C21      1.0000 0.55157  0.78170  0.46060  Biso   1.000  C
  C22      1.0000 0.05157  0.28170  0.46060  Biso   1.000  C
  C23      1.0000 0.44843  0.78170  0.03940  Biso   1.000  C
  C24      1.0000 0.94843  0.28170  0.03940  Biso   1.000  C
  H17      1.0000 0.48000  0.14320  0.55990  Biso   1.000  H
  H18      1.0000 0.98000  0.64320  0.55990  Biso   1.000  H
  H19      1.0000 0.52000  0.14320  0.94010  Biso   1.000  H
  H20      1.0000 0.02000  0.64320  0.94010  Biso   1.000  H
  H21      1.0000 0.52000  0.85680  0.44010  Biso   1.000  H
  H22      1.0000 0.02000  0.35680  0.44010  Biso   1.000  H
  H23      1.0000 0.48000  0.85680  0.05990  Biso   1.000  H
  H24      1.0000 0.98000  0.35680  0.05990  Biso   1.000  H
  H25      1.0000 0.42980  0.21920  0.64040  Biso   1.000  H
  H26      1.0000 0.92980  0.71920  0.64040  Biso   1.000  H
  H27      1.0000 0.57020  0.21920  0.85960  Biso   1.000  H
  H28      1.0000 0.07020  0.71920  0.85960  Biso   1.000  H
  H29      1.0000 0.57020  0.78080  0.35960  Biso   1.000  H
  H30      1.0000 0.07020  0.28080  0.35960  Biso   1.000  H
  H31      1.0000 0.42980  0.78080  0.14040  Biso   1.000  H
  H32      1.0000 0.92980  0.28080  0.14040  Biso   1.000  H
  C25      1.0000 0.47586  0.36440  0.52210  Biso   1.000  C
  C26      1.0000 0.97586  0.86440  0.52210  Biso   1.000  C
  C27      1.0000 0.52414  0.36440  0.97790  Biso   1.000  C
  C28      1.0000 0.02414  0.86440  0.97790  Biso   1.000  C
  C29      1.0000 0.52414  0.63560  0.47790  Biso   1.000  C
  C30      1.0000 0.02414  0.13560  0.47790  Biso   1.000  C
  C31      1.0000 0.47586  0.63560  0.02210  Biso   1.000  C
  C32      1.0000 0.97586  0.13560  0.02210  Biso   1.000  C
  C33      1.0000 0.44648  0.49070  0.55060  Biso   1.000  C
  C34      1.0000 0.94648  0.99070  0.55060  Biso   1.000  C
  C35      1.0000 0.55352  0.49070  0.94940  Biso   1.000  C
  C36      1.0000 0.05352  0.99070  0.94940  Biso   1.000  C
  C37      1.0000 0.55352  0.50930  0.44940  Biso   1.000  C
  C38      1.0000 0.05352  0.00930  0.44940  Biso   1.000  C
  C39      1.0000 0.44648  0.50930  0.05060  Biso   1.000  C
  C40      1.0000 0.94648  0.00930  0.05060  Biso   1.000  C
  H33      1.0000 0.40970  0.48450  0.58570  Biso   1.000  H
  H34      1.0000 0.90970  0.98450  0.58570  Biso   1.000  H
  H35      1.0000 0.59030  0.48450  0.91430  Biso   1.000  H
  H36      1.0000 0.09030  0.98450  0.91430  Biso   1.000  H
  H37      1.0000 0.59030  0.51550  0.41430  Biso   1.000  H
  H38      1.0000 0.09030  0.01550  0.41430  Biso   1.000  H
  H39      1.0000 0.40970  0.51550  0.08570  Biso   1.000  H
  H40      1.0000 0.90970  0.01550  0.08570  Biso   1.000  H
  C41      1.0000 0.52969  0.37500  0.47160  Biso   1.000  C
  C42      1.0000 0.02969  0.87500  0.47160  Biso   1.000  C
  C43      1.0000 0.47031  0.37500  0.02840  Biso   1.000  C
  C44      1.0000 0.97031  0.87500  0.02840  Biso   1.000  C
  C45      1.0000 0.47031  0.62500  0.52840  Biso   1.000  C
  C46      1.0000 0.97031  0.12500  0.52840  Biso   1.000  C
  C47      1.0000 0.52969  0.62500  0.97160  Biso   1.000  C
  C48      1.0000 0.02969  0.12500  0.97160  Biso   1.000  C
  H41      1.0000 0.55020  0.28940  0.45230  Biso   1.000  H
  H42      1.0000 0.05020  0.78940  0.45230  Biso   1.000  H
  H43      1.0000 0.44980  0.28940  0.04770  Biso   1.000  H
  H44      1.0000 0.94980  0.78940  0.04770  Biso   1.000  H
  H45      1.0000 0.44980  0.71060  0.54770  Biso   1.000  H
  H46      1.0000 0.94980  0.21060  0.54770  Biso   1.000  H
  H47      1.0000 0.55020  0.71060  0.95230  Biso   1.000  H
  H48      1.0000 0.05020  0.21060  0.95230  Biso   1.000  H
  C49      1.0000 0.28523  0.43986  0.63960  Biso   1.000  C
  C50      1.0000 0.78523  0.93986  0.63960  Biso   1.000  C
  C51      1.0000 0.71477  0.43986  0.86040  Biso   1.000  C
  C52      1.0000 0.21477  0.93986  0.86040  Biso   1.000  C
  C53      1.0000 0.71477  0.56014  0.36040  Biso   1.000  C
  C54      1.0000 0.21477  0.06014  0.36040  Biso   1.000  C
  C55      1.0000 0.28523  0.56014  0.13960  Biso   1.000  C
  C56      1.0000 0.78523  0.06014  0.13960  Biso   1.000  C
