data_image0
_cell_length_a       12.076
_cell_length_b       6.757
_cell_length_c       17.875
_cell_angle_alpha    90
_cell_angle_beta     101.88
_cell_angle_gamma    90

_symmetry_space_group_name_H-M    "P 1"
_symmetry_int_tables_number       1

loop_
  _symmetry_equiv_pos_as_xyz
  'x, y, z'

loop_
  _atom_site_label
  _atom_site_occupancy
  _atom_site_fract_x
  _atom_site_fract_y
  _atom_site_fract_z
  _atom_site_thermal_displace_type
  _atom_site_B_iso_or_equiv
  _atom_site_type_symbol
  Cu1      1.0000 0.79396  0.04323  0.81938  Biso   1.000  Cu
  Cu2      1.0000 0.70604  0.54323  0.68062  Biso   1.000  Cu
  Cu3      1.0000 0.20604  0.95677  0.18062  Biso   1.000  Cu
  Cu4      1.0000 0.29396  0.45677  0.31938  Biso   1.000  Cu
  Br1      1.0000 0.36883  0.45925  0.92861  Biso   1.000  Br
  Br2      1.0000 0.13117  0.95925  0.57139  Biso   1.000  Br
  Br3      1.0000 0.63117  0.54075  0.07139  Biso   1.000  Br
  Br4      1.0000 0.86883  0.04075  0.42861  Biso   1.000  Br
  O1       1.0000 0.93630  0.04210  0.78870  Biso   1.000  O
  O2       1.0000 0.56370  0.54210  0.71130  Biso   1.000  O
  O3       1.0000 0.06370  0.95790  0.21130  Biso   1.000  O
  O4       1.0000 0.43630  0.45790  0.28870  Biso   1.000  O
  N1       1.0000 0.86110  0.13750  0.92178  Biso   1.000  N
  N2       1.0000 0.63890  0.63750  0.57822  Biso   1.000  N
  N3       1.0000 0.13890  0.86250  0.07822  Biso   1.000  N
  N4       1.0000 0.36110  0.36250  0.42178  Biso   1.000  N
  N5       1.0000 0.64354  0.04410  0.85784  Biso   1.000  N
  N6       1.0000 0.85646  0.54410  0.64216  Biso   1.000  N
  N7       1.0000 0.35646  0.95590  0.14216  Biso   1.000  N
  N8       1.0000 0.14354  0.45590  0.35784  Biso   1.000  N
  N9       1.0000 0.72361  0.92260  0.71995  Biso   1.000  N
  N10      1.0000 0.77639  0.42260  0.78005  Biso   1.000  N
  N11      1.0000 0.27639  0.07740  0.28005  Biso   1.000  N
  N12      1.0000 0.22361  0.57740  0.21995  Biso   1.000  N
  N13      1.0000 0.68144  0.03130  0.66898  Biso   1.000  N
  N14      1.0000 0.81856  0.53130  0.83102  Biso   1.000  N
  N15      1.0000 0.31856  0.96870  0.33102  Biso   1.000  N
  N16      1.0000 0.18144  0.46870  0.16898  Biso   1.000  N
  N17      1.0000 0.63950  0.13030  0.61845  Biso   1.000  N
  N18      1.0000 0.86050  0.63030  0.88155  Biso   1.000  N
  N19      1.0000 0.36050  0.86970  0.38155  Biso   1.000  N
  N20      1.0000 0.13950  0.36970  0.11845  Biso   1.000  N
  C1       1.0000 0.02788  0.13170  0.82277  Biso   1.000  C
  C2       1.0000 0.47212  0.63170  0.67723  Biso   1.000  C
  C3       1.0000 0.97212  0.86830  0.17723  Biso   1.000  C
  C4       1.0000 0.52788  0.36830  0.32277  Biso   1.000  C
  C5       1.0000 0.11890  0.14450  0.78440  Biso   1.000  C
  C6       1.0000 0.38110  0.64450  0.71560  Biso   1.000  C
  C7       1.0000 0.88110  0.85550  0.21560  Biso   1.000  C
  C8       1.0000 0.61890  0.35550  0.28440  Biso   1.000  C
  H1       1.0000 0.11140  0.08490  0.73670  Biso   1.000  H
  H2       1.0000 0.38860  0.58490  0.76330  Biso   1.000  H
  H3       1.0000 0.88860  0.91510  0.26330  Biso   1.000  H
  H4       1.0000 0.61140  0.41510  0.23670  Biso   1.000  H
  C9       1.0000 0.21750  0.24080  0.81447  Biso   1.000  C
  C10      1.0000 0.28250  0.74080  0.68553  Biso   1.000  C
  C11      1.0000 0.78250  0.75920  0.18553  Biso   1.000  C
  C12      1.0000 0.71750  0.25920  0.31447  Biso   1.000  C
  H5       1.0000 0.27530  0.24810  0.78730  Biso   1.000  H
  H6       1.0000 0.22470  0.74810  0.71270  Biso   1.000  H
  H7       1.0000 0.72470  0.75190  0.21270  Biso   1.000  H
  H8       1.0000 0.77530  0.25190  0.28730  Biso   1.000  H
  C13      1.0000 0.23024  0.32820  0.88650  Biso   1.000  C
  C14      1.0000 0.26976  0.82820  0.61350  Biso   1.000  C
  C15      1.0000 0.76976  0.67180  0.11350  Biso   1.000  C
  C16      1.0000 0.73024  0.17180  0.38650  Biso   1.000  C
  C17      1.0000 0.14586  0.31880  0.92653  Biso   1.000  C
  C18      1.0000 0.35414  0.81880  0.57347  Biso   1.000  C
  C19      1.0000 0.85414  0.68120  0.07347  Biso   1.000  C
  C20      1.0000 0.64586  0.18120  0.42653  Biso   1.000  C
  H9       1.0000 0.15580  0.37800  0.97440  Biso   1.000  H
  H10      1.0000 0.34420  0.87800  0.52560  Biso   1.000  H
  H11      1.0000 0.84420  0.62200  0.02560  Biso   1.000  H
  H12      1.0000 0.65580  0.12200  0.47440  Biso   1.000  H
  C21      1.0000 0.04384  0.22040  0.89620  Biso   1.000  C
  C22      1.0000 0.45616  0.72040  0.60380  Biso   1.000  C
  C23      1.0000 0.95616  0.77960  0.10380  Biso   1.000  C
  C24      1.0000 0.54384  0.27960  0.39620  Biso   1.000  C
  C25      1.0000 0.95973  0.21300  0.94272  Biso   1.000  C
  C26      1.0000 0.54027  0.71300  0.55728  Biso   1.000  C
  C27      1.0000 0.04027  0.78700  0.05728  Biso   1.000  C
  C28      1.0000 0.45973  0.28700  0.44272  Biso   1.000  C
  H13      1.0000 0.97850  0.26710  0.99150  Biso   1.000  H
  H14      1.0000 0.52150  0.76710  0.50850  Biso   1.000  H
  H15      1.0000 0.02150  0.73290  0.00850  Biso   1.000  H
  H16      1.0000 0.47850  0.23290  0.49150  Biso   1.000  H
  C29      1.0000 0.78120  0.14210  0.97296  Biso   1.000  C
  C30      1.0000 0.71880  0.64210  0.52704  Biso   1.000  C
  C31      1.0000 0.21880  0.85790  0.02704  Biso   1.000  C
  C32      1.0000 0.28120  0.35790  0.47296  Biso   1.000  C
  H17      1.0000 0.80140  0.24620  0.01070  Biso   1.000  H
  H18      1.0000 0.69860  0.74620  0.48930  Biso   1.000  H
  H19      1.0000 0.19860  0.75380  0.98930  Biso   1.000  H
  H20      1.0000 0.30140  0.25380  0.51070  Biso   1.000  H
  H21      1.0000 0.78190  0.01680  0.99950  Biso   1.000  H
  H22      1.0000 0.71810  0.51680  0.50050  Biso   1.000  H
  H23      1.0000 0.21810  0.98320  0.00050  Biso   1.000  H
  H24      1.0000 0.28190  0.48320  0.49950  Biso   1.000  H
  C33      1.0000 0.66530  0.18060  0.92434  Biso   1.000  C
  C34      1.0000 0.83470  0.68060  0.57566  Biso   1.000  C
  C35      1.0000 0.33470  0.81940  0.07566  Biso   1.000  C
  C36      1.0000 0.16530  0.31940  0.42434  Biso   1.000  C
  H25      1.0000 0.60820  0.16130  0.95470  Biso   1.000  H
  H26      1.0000 0.89180  0.66130  0.54530  Biso   1.000  H
  H27      1.0000 0.39180  0.83870  0.04530  Biso   1.000  H
  H28      1.0000 0.10820  0.33870  0.45470  Biso   1.000  H
  H29      1.0000 0.66070  0.31650  0.90650  Biso   1.000  H
  H30      1.0000 0.83930  0.81650  0.59350  Biso   1.000  H
  H31      1.0000 0.33930  0.68350  0.09350  Biso   1.000  H
  H32      1.0000 0.16070  0.18350  0.40650  Biso   1.000  H
  C37      1.0000 0.61630  0.84310  0.88077  Biso   1.000  C
  C38      1.0000 0.88370  0.34310  0.61923  Biso   1.000  C
  C39      1.0000 0.38370  0.15690  0.11923  Biso   1.000  C
  C40      1.0000 0.11630  0.65690  0.38077  Biso   1.000  C
  H33      1.0000 0.54960  0.84770  0.90200  Biso   1.000  H
  H34      1.0000 0.95040  0.34770  0.59800  Biso   1.000  H
  H35      1.0000 0.45040  0.15230  0.09800  Biso   1.000  H
  H36      1.0000 0.04960  0.65230  0.40200  Biso   1.000  H
  H37      1.0000 0.67840  0.79290  0.91840  Biso   1.000  H
  H38      1.0000 0.82160  0.29290  0.58160  Biso   1.000  H
  H39      1.0000 0.32160  0.20710  0.08160  Biso   1.000  H
  H40      1.0000 0.17840  0.70710  0.41840  Biso   1.000  H
  H41      1.0000 0.60330  0.75790  0.83680  Biso   1.000  H
  H42      1.0000 0.89670  0.25790  0.66320  Biso   1.000  H
  H43      1.0000 0.39670  0.24210  0.16320  Biso   1.000  H
  H44      1.0000 0.10330  0.74210  0.33680  Biso   1.000  H
  C41      1.0000 0.54610  0.11800  0.80069  Biso   1.000  C
  C42      1.0000 0.95390  0.61800  0.69931  Biso   1.000  C
  C43      1.0000 0.45390  0.88200  0.19931  Biso   1.000  C
  C44      1.0000 0.04610  0.38200  0.30069  Biso   1.000  C
  H45      1.0000 0.53000  0.02760  0.75840  Biso   1.000  H
  H46      1.0000 0.97000  0.52760  0.74160  Biso   1.000  H
  H47      1.0000 0.47000  0.97240  0.24160  Biso   1.000  H
  H48      1.0000 0.03000  0.47240  0.25840  Biso   1.000  H
  H49      1.0000 0.56390  0.24580  0.78280  Biso   1.000  H
  H50      1.0000 0.93610  0.74580  0.71720  Biso   1.000  H
  H51      1.0000 0.43610  0.75420  0.21720  Biso   1.000  H
  H52      1.0000 0.06390  0.25420  0.28280  Biso   1.000  H
  H53      1.0000 0.48120  0.12870  0.82370  Biso   1.000  H
  H54      1.0000 0.01880  0.62870  0.67630  Biso   1.000  H
  H55      1.0000 0.51880  0.87130  0.17630  Biso   1.000  H
  H56      1.0000 0.98120  0.37130  0.32370  Biso   1.000  H
