data_image0
_cell_length_a       15.6139
_cell_length_b       15.7965
_cell_length_c       29.712
_cell_angle_alpha    90
_cell_angle_beta     90
_cell_angle_gamma    90

_symmetry_space_group_name_H-M    "P 1"
_symmetry_int_tables_number       1

loop_
  _symmetry_equiv_pos_as_xyz
  'x, y, z'

loop_
  _atom_site_label
  _atom_site_occupancy
  _atom_site_fract_x
  _atom_site_fract_y
  _atom_site_fract_z
  _atom_site_thermal_displace_type
  _atom_site_B_iso_or_equiv
  _atom_site_type_symbol
  Cu1      1.0000 0.07756  0.19302  0.61629  Biso   1.000  Cu
  Cu2      1.0000 0.42244  0.80698  0.11629  Biso   1.000  Cu
  Cu3      1.0000 0.92244  0.69302  0.88371  Biso   1.000  Cu
  Cu4      1.0000 0.57756  0.30698  0.38371  Biso   1.000  Cu
  O1       1.0000 0.07140  0.19070  0.53694  Biso   1.000  O
  O2       1.0000 0.42860  0.80930  0.03694  Biso   1.000  O
  O3       1.0000 0.92860  0.69070  0.96306  Biso   1.000  O
  O4       1.0000 0.57140  0.30930  0.46306  Biso   1.000  O
  N1       1.0000 0.98270  0.27970  0.61700  Biso   1.000  N
  N2       1.0000 0.51730  0.72030  0.11700  Biso   1.000  N
  N3       1.0000 0.01730  0.77970  0.88300  Biso   1.000  N
  N4       1.0000 0.48270  0.22030  0.38300  Biso   1.000  N
  C1       1.0000 0.91480  0.27420  0.58990  Biso   1.000  C
  C2       1.0000 0.58520  0.72580  0.08990  Biso   1.000  C
  C3       1.0000 0.08520  0.77420  0.91010  Biso   1.000  C
  C4       1.0000 0.41480  0.22580  0.41010  Biso   1.000  C
  H1       1.0000 0.91150  0.22860  0.57020  Biso   1.000  H
  H2       1.0000 0.58850  0.77140  0.07020  Biso   1.000  H
  H3       1.0000 0.08850  0.72860  0.92980  Biso   1.000  H
  H4       1.0000 0.41150  0.27140  0.42980  Biso   1.000  H
  S1       1.0000 0.73070  0.72390  0.23716  Biso   1.000  S
  S2       1.0000 0.76930  0.27610  0.73716  Biso   1.000  S
  S3       1.0000 0.26930  0.22390  0.26284  Biso   1.000  S
  S4       1.0000 0.23070  0.77610  0.76284  Biso   1.000  S
  O5       1.0000 0.16340  0.20490  0.47220  Biso   1.000  O
  O6       1.0000 0.33660  0.79510  0.97220  Biso   1.000  O
  O7       1.0000 0.83660  0.70490  0.02780  Biso   1.000  O
  O8       1.0000 0.66340  0.29510  0.52780  Biso   1.000  O
  N5       1.0000 0.66540  0.59850  0.61580  Biso   1.000  N
  N6       1.0000 0.83460  0.40150  0.11580  Biso   1.000  N
  N7       1.0000 0.33460  0.09850  0.88420  Biso   1.000  N
  N8       1.0000 0.16540  0.90150  0.38420  Biso   1.000  N
  Cu5      1.0000 0.57810  0.69281  0.61593  Biso   1.000  Cu
  Cu6      1.0000 0.92190  0.30719  0.11593  Biso   1.000  Cu
  Cu7      1.0000 0.42190  0.19281  0.88407  Biso   1.000  Cu
  Cu8      1.0000 0.07810  0.80719  0.38407  Biso   1.000  Cu
  C5       1.0000 0.85010  0.33210  0.58970  Biso   1.000  C
  C6       1.0000 0.64990  0.66790  0.08970  Biso   1.000  C
  C7       1.0000 0.14990  0.83210  0.91030  Biso   1.000  C
  C8       1.0000 0.35010  0.16790  0.41030  Biso   1.000  C
  H5       1.0000 0.80340  0.32480  0.57060  Biso   1.000  H
  H6       1.0000 0.69660  0.67520  0.07060  Biso   1.000  H
  H7       1.0000 0.19660  0.82480  0.92940  Biso   1.000  H
  H8       1.0000 0.30340  0.17520  0.42940  Biso   1.000  H
  S5       1.0000 0.90257  0.28264  0.24549  Biso   1.000  S
  S6       1.0000 0.59743  0.71736  0.74549  Biso   1.000  S
  S7       1.0000 0.09743  0.78264  0.25451  Biso   1.000  S
  S8       1.0000 0.40257  0.21736  0.75451  Biso   1.000  S
  O9       1.0000 0.06680  0.31510  0.49224  Biso   1.000  O
  O10      1.0000 0.43320  0.68490  0.99224  Biso   1.000  O
  O11      1.0000 0.93320  0.81510  0.00776  Biso   1.000  O
  O12      1.0000 0.56680  0.18490  0.50776  Biso   1.000  O
  N9       1.0000 0.98870  0.09960  0.61780  Biso   1.000  N
  N10      1.0000 0.51130  0.90040  0.11780  Biso   1.000  N
  N11      1.0000 0.01130  0.59960  0.88220  Biso   1.000  N
  N12      1.0000 0.48870  0.40040  0.38220  Biso   1.000  N
  C9       1.0000 0.85400  0.40230  0.61810  Biso   1.000  C
  C10      1.0000 0.64600  0.59770  0.11810  Biso   1.000  C
  C11      1.0000 0.14600  0.90230  0.88190  Biso   1.000  C
  C12      1.0000 0.35400  0.09770  0.38190  Biso   1.000  C
  S9       1.0000 0.08250  0.22608  0.49190  Biso   1.000  S
  S10      1.0000 0.41750  0.77392  0.99190  Biso   1.000  S
  S11      1.0000 0.91750  0.72608  0.00810  Biso   1.000  S
  S12      1.0000 0.58250  0.27392  0.50810  Biso   1.000  S
  O13      1.0000 0.88510  0.19250  0.25177  Biso   1.000  O
  O14      1.0000 0.61490  0.80750  0.75177  Biso   1.000  O
  O15      1.0000 0.11490  0.69250  0.24823  Biso   1.000  O
  O16      1.0000 0.38510  0.30750  0.74823  Biso   1.000  O
  N13      1.0000 0.67280  0.78070  0.61730  Biso   1.000  N
  N14      1.0000 0.82720  0.21930  0.11730  Biso   1.000  N
  N15      1.0000 0.32720  0.28070  0.88270  Biso   1.000  N
  N16      1.0000 0.17280  0.71930  0.38270  Biso   1.000  N
  C13      1.0000 0.98530  0.34600  0.64410  Biso   1.000  C
  C14      1.0000 0.51470  0.65400  0.14410  Biso   1.000  C
  C15      1.0000 0.01470  0.84600  0.85590  Biso   1.000  C
  C16      1.0000 0.48530  0.15400  0.35590  Biso   1.000  C
  H9       1.0000 0.03160  0.35070  0.66370  Biso   1.000  H
  H10      1.0000 0.46840  0.64930  0.16370  Biso   1.000  H
  H11      1.0000 0.96840  0.85070  0.83630  Biso   1.000  H
  H12      1.0000 0.53160  0.14930  0.33630  Biso   1.000  H
  S13      1.0000 0.56975  0.72174  0.48970  Biso   1.000  S
  S14      1.0000 0.93025  0.27826  0.98970  Biso   1.000  S
  S15      1.0000 0.43025  0.22174  0.01030  Biso   1.000  S
  S16      1.0000 0.06975  0.77826  0.51030  Biso   1.000  S
  O17      1.0000 0.92190  0.30320  0.19946  Biso   1.000  O
  O18      1.0000 0.57810  0.69680  0.69946  Biso   1.000  O
  O19      1.0000 0.07810  0.80320  0.30054  Biso   1.000  O
  O20      1.0000 0.42190  0.19680  0.80054  Biso   1.000  O
  N17      1.0000 0.48510  0.60420  0.61720  Biso   1.000  N
  N18      1.0000 0.01490  0.39580  0.11720  Biso   1.000  N
  N19      1.0000 0.51490  0.10420  0.88280  Biso   1.000  N
  N20      1.0000 0.98510  0.89580  0.38280  Biso   1.000  N
  C17      1.0000 0.92270  0.40930  0.64520  Biso   1.000  C
  C18      1.0000 0.57730  0.59070  0.14520  Biso   1.000  C
  C19      1.0000 0.07730  0.90930  0.85480  Biso   1.000  C
  C20      1.0000 0.42270  0.09070  0.35480  Biso   1.000  C
  H13      1.0000 0.92850  0.45560  0.66430  Biso   1.000  H
  H14      1.0000 0.57150  0.54440  0.16430  Biso   1.000  H
  H15      1.0000 0.07150  0.95560  0.83570  Biso   1.000  H
  H16      1.0000 0.42850  0.04440  0.33570  Biso   1.000  H
  N21      1.0000 0.17090  0.10370  0.61570  Biso   1.000  N
  N22      1.0000 0.32910  0.89630  0.11570  Biso   1.000  N
  N23      1.0000 0.82910  0.60370  0.88430  Biso   1.000  N
  N24      1.0000 0.67090  0.39630  0.38430  Biso   1.000  N
  O21      1.0000 0.80320  0.76530  0.25650  Biso   1.000  O
  O22      1.0000 0.69680  0.23470  0.75650  Biso   1.000  O
  O23      1.0000 0.19680  0.26530  0.24350  Biso   1.000  O
  O24      1.0000 0.30320  0.73470  0.74350  Biso   1.000  O
  C21      1.0000 0.77600  0.52190  0.65300  Biso   1.000  C
  C22      1.0000 0.72400  0.47810  0.15300  Biso   1.000  C
  C23      1.0000 0.22400  0.02190  0.84700  Biso   1.000  C
  C24      1.0000 0.27600  0.97810  0.34700  Biso   1.000  C
  H17      1.0000 0.80770  0.51410  0.67920  Biso   1.000  H
  H18      1.0000 0.69230  0.48590  0.17920  Biso   1.000  H
  H19      1.0000 0.19230  0.01410  0.82080  Biso   1.000  H
  H20      1.0000 0.30770  0.98590  0.32080  Biso   1.000  H
  C25      1.0000 0.73180  0.47990  0.58120  Biso   1.000  C
  C26      1.0000 0.76820  0.52010  0.08120  Biso   1.000  C
  C27      1.0000 0.26820  0.97990  0.91880  Biso   1.000  C
  C28      1.0000 0.23180  0.02010  0.41880  Biso   1.000  C
  H21      1.0000 0.73370  0.44300  0.55680  Biso   1.000  H
  H22      1.0000 0.76630  0.55700  0.05680  Biso   1.000  H
  H23      1.0000 0.26630  0.94300  0.94320  Biso   1.000  H
  H24      1.0000 0.23370  0.05700  0.44320  Biso   1.000  H
  N25      1.0000 0.48860  0.78540  0.61620  Biso   1.000  N
  N26      1.0000 0.01140  0.21460  0.11620  Biso   1.000  N
  N27      1.0000 0.51140  0.28540  0.88380  Biso   1.000  N
  N28      1.0000 0.98860  0.71460  0.38380  Biso   1.000  N
  O25      1.0000 0.73350  0.63430  0.24670  Biso   1.000  O
  O26      1.0000 0.76650  0.36570  0.74670  Biso   1.000  O
  O27      1.0000 0.26650  0.13430  0.25330  Biso   1.000  O
  O28      1.0000 0.23350  0.86570  0.75330  Biso   1.000  O
  C29      1.0000 0.78830  0.46770  0.61750  Biso   1.000  C
  C30      1.0000 0.71170  0.53230  0.11750  Biso   1.000  C
  C31      1.0000 0.21170  0.96770  0.88250  Biso   1.000  C
  C32      1.0000 0.28830  0.03230  0.38250  Biso   1.000  C
  N29      1.0000 0.16810  0.28450  0.61693  Biso   1.000  N
  N30      1.0000 0.33190  0.71550  0.11693  Biso   1.000  N
  N31      1.0000 0.83190  0.78450  0.88307  Biso   1.000  N
  N32      1.0000 0.66810  0.21550  0.38307  Biso   1.000  N
  O29      1.0000 0.83610  0.33410  0.26450  Biso   1.000  O
  O30      1.0000 0.66390  0.66590  0.76450  Biso   1.000  O
  O31      1.0000 0.16390  0.83410  0.23550  Biso   1.000  O
  O32      1.0000 0.33610  0.16590  0.73550  Biso   1.000  O
  C33      1.0000 0.67440  0.54480  0.58090  Biso   1.000  C
  C34      1.0000 0.82560  0.45520  0.08090  Biso   1.000  C
  C35      1.0000 0.32560  0.04480  0.91910  Biso   1.000  C
  C36      1.0000 0.17440  0.95520  0.41910  Biso   1.000  C
  H25      1.0000 0.64000  0.55230  0.55570  Biso   1.000  H
  H26      1.0000 0.86000  0.44770  0.05570  Biso   1.000  H
  H27      1.0000 0.36000  0.05230  0.94430  Biso   1.000  H
  H28      1.0000 0.14000  0.94770  0.44430  Biso   1.000  H
  O33      1.0000 0.71510  0.74720  0.19090  Biso   1.000  O
  O34      1.0000 0.78490  0.25280  0.69090  Biso   1.000  O
  O35      1.0000 0.28490  0.24720  0.30910  Biso   1.000  O
  O36      1.0000 0.21510  0.75280  0.80910  Biso   1.000  O
  C37      1.0000 0.71820  0.58740  0.65100  Biso   1.000  C
  C38      1.0000 0.78180  0.41260  0.15100  Biso   1.000  C
  C39      1.0000 0.28180  0.08740  0.84900  Biso   1.000  C
  C40      1.0000 0.21820  0.91260  0.34900  Biso   1.000  C
  H29      1.0000 0.71550  0.62540  0.67490  Biso   1.000  H
  H30      1.0000 0.78450  0.37460  0.17490  Biso   1.000  H
  H31      1.0000 0.28450  0.12540  0.82510  Biso   1.000  H
  H32      1.0000 0.21550  0.87460  0.32510  Biso   1.000  H
  O37      1.0000 0.48660  0.69750  0.47360  Biso   1.000  O
  O38      1.0000 0.01340  0.30250  0.97360  Biso   1.000  O
  O39      1.0000 0.51340  0.19750  0.02640  Biso   1.000  O
  O40      1.0000 0.98660  0.80250  0.52640  Biso   1.000  O
  C41      1.0000 0.98350  0.04360  0.58440  Biso   1.000  C
  C42      1.0000 0.51650  0.95640  0.08440  Biso   1.000  C
  C43      1.0000 0.01650  0.54360  0.91560  Biso   1.000  C
  C44      1.0000 0.48350  0.45640  0.41560  Biso   1.000  C
  H33      1.0000 0.02280  0.04750  0.56100  Biso   1.000  H
  H34      1.0000 0.47720  0.95250  0.06100  Biso   1.000  H
  H35      1.0000 0.97720  0.54750  0.93900  Biso   1.000  H
  H36      1.0000 0.52280  0.45250  0.43900  Biso   1.000  H
  O41      1.0000 0.58320  0.81230  0.48550  Biso   1.000  O
  O42      1.0000 0.91680  0.18770  0.98550  Biso   1.000  O
  O43      1.0000 0.41680  0.31230  0.01450  Biso   1.000  O
  O44      1.0000 0.08320  0.68770  0.51450  Biso   1.000  O
  C45      1.0000 0.93400  0.09170  0.65090  Biso   1.000  C
  C46      1.0000 0.56600  0.90830  0.15090  Biso   1.000  C
  C47      1.0000 0.06600  0.59170  0.84910  Biso   1.000  C
  C48      1.0000 0.43400  0.40830  0.34910  Biso   1.000  C
  H37      1.0000 0.93730  0.12990  0.67470  Biso   1.000  H
  H38      1.0000 0.56270  0.87010  0.17470  Biso   1.000  H
  H39      1.0000 0.06270  0.62990  0.82530  Biso   1.000  H
  H40      1.0000 0.43730  0.37010  0.32530  Biso   1.000  H
  O45      1.0000 0.58620  0.69490  0.53538  Biso   1.000  O
  O46      1.0000 0.91380  0.30510  0.03538  Biso   1.000  O
  O47      1.0000 0.41380  0.19490  0.96462  Biso   1.000  O
  O48      1.0000 0.08620  0.80510  0.46462  Biso   1.000  O
  C49      1.0000 0.92370  0.98110  0.58290  Biso   1.000  C
  C50      1.0000 0.57630  0.01890  0.08290  Biso   1.000  C
  C51      1.0000 0.07630  0.48110  0.91710  Biso   1.000  C
  C52      1.0000 0.42370  0.51890  0.41710  Biso   1.000  C
  H41      1.0000 0.92190  0.94400  0.55860  Biso   1.000  H
  H42      1.0000 0.57810  0.05600  0.05860  Biso   1.000  H
  H43      1.0000 0.07810  0.44400  0.94140  Biso   1.000  H
  H44      1.0000 0.42190  0.55600  0.44140  Biso   1.000  H
  O49      1.0000 0.07560  0.19890  0.70234  Biso   1.000  O
  O50      1.0000 0.42440  0.80110  0.20234  Biso   1.000  O
  O51      1.0000 0.92440  0.69890  0.79766  Biso   1.000  O
  O52      1.0000 0.57560  0.30110  0.29766  Biso   1.000  O
  C53      1.0000 0.79780  0.90460  0.61760  Biso   1.000  C
  C54      1.0000 0.70220  0.09540  0.11760  Biso   1.000  C
  C55      1.0000 0.20220  0.40460  0.88240  Biso   1.000  C
  C56      1.0000 0.29780  0.59540  0.38240  Biso   1.000  C
  C57      1.0000 0.86490  0.97310  0.61820  Biso   1.000  C
  C58      1.0000 0.63510  0.02690  0.11820  Biso   1.000  C
  C59      1.0000 0.13510  0.47310  0.88180  Biso   1.000  C
  C60      1.0000 0.36490  0.52690  0.38180  Biso   1.000  C
  C61      1.0000 0.87030  0.02840  0.65260  Biso   1.000  C
  C62      1.0000 0.62970  0.97160  0.15260  Biso   1.000  C
  C63      1.0000 0.12970  0.52840  0.84740  Biso   1.000  C
  C64      1.0000 0.37030  0.47160  0.34740  Biso   1.000  C
  H45      1.0000 0.83300  0.02490  0.67690  Biso   1.000  H
  H46      1.0000 0.66700  0.97510  0.17690  Biso   1.000  H
  H47      1.0000 0.16700  0.52490  0.82310  Biso   1.000  H
  H48      1.0000 0.33300  0.47510  0.32310  Biso   1.000  H
  C65      1.0000 0.80390  0.83530  0.58880  Biso   1.000  C
  C66      1.0000 0.69610  0.16470  0.08880  Biso   1.000  C
  C67      1.0000 0.19610  0.33530  0.91120  Biso   1.000  C
  C68      1.0000 0.30390  0.66470  0.41120  Biso   1.000  C
  H49      1.0000 0.84980  0.83010  0.56910  Biso   1.000  H
  H50      1.0000 0.65020  0.16990  0.06910  Biso   1.000  H
  H51      1.0000 0.15020  0.33010  0.93090  Biso   1.000  H
  H52      1.0000 0.34980  0.66990  0.43090  Biso   1.000  H
  C69      1.0000 0.72850  0.91000  0.64550  Biso   1.000  C
  C70      1.0000 0.77150  0.09000  0.14550  Biso   1.000  C
  C71      1.0000 0.27150  0.41000  0.85450  Biso   1.000  C
  C72      1.0000 0.22850  0.59000  0.35450  Biso   1.000  C
  H53      1.0000 0.72210  0.95600  0.66460  Biso   1.000  H
  H54      1.0000 0.77790  0.04400  0.16460  Biso   1.000  H
  H55      1.0000 0.27790  0.45600  0.83540  Biso   1.000  H
  H56      1.0000 0.22210  0.54400  0.33540  Biso   1.000  H
  C73      1.0000 0.66760  0.84580  0.64480  Biso   1.000  C
  C74      1.0000 0.83240  0.15420  0.14480  Biso   1.000  C
  C75      1.0000 0.33240  0.34580  0.85520  Biso   1.000  C
  C76      1.0000 0.16760  0.65420  0.35520  Biso   1.000  C
  H57      1.0000 0.62140  0.84900  0.66460  Biso   1.000  H
  H58      1.0000 0.87860  0.15100  0.16460  Biso   1.000  H
  H59      1.0000 0.37860  0.34900  0.83540  Biso   1.000  H
  H60      1.0000 0.12140  0.65100  0.33540  Biso   1.000  H
  C77      1.0000 0.74060  0.77490  0.59010  Biso   1.000  C
  C78      1.0000 0.75940  0.22510  0.09010  Biso   1.000  C
  C79      1.0000 0.25940  0.27490  0.90990  Biso   1.000  C
  C80      1.0000 0.24060  0.72510  0.40990  Biso   1.000  C
  H61      1.0000 0.74510  0.72810  0.57130  Biso   1.000  H
  H62      1.0000 0.75490  0.27190  0.07130  Biso   1.000  H
  H63      1.0000 0.25490  0.22810  0.92870  Biso   1.000  H
  H64      1.0000 0.24510  0.77190  0.42870  Biso   1.000  H
  C81      1.0000 0.40980  0.49240  0.65460  Biso   1.000  C
  C82      1.0000 0.09020  0.50760  0.15460  Biso   1.000  C
  C83      1.0000 0.59020  0.99240  0.84540  Biso   1.000  C
  C84      1.0000 0.90980  0.00760  0.34540  Biso   1.000  C
  H65      1.0000 0.40230  0.46050  0.68060  Biso   1.000  H
  H66      1.0000 0.09770  0.53950  0.18060  Biso   1.000  H
  H67      1.0000 0.59770  0.96050  0.81940  Biso   1.000  H
  H68      1.0000 0.90230  0.03950  0.31940  Biso   1.000  H
  C85      1.0000 0.43280  0.59130  0.58150  Biso   1.000  C
  C86      1.0000 0.06720  0.40870  0.08150  Biso   1.000  C
  C87      1.0000 0.56720  0.09130  0.91850  Biso   1.000  C
  C88      1.0000 0.93280  0.90870  0.41850  Biso   1.000  C
  H69      1.0000 0.43880  0.62680  0.55670  Biso   1.000  H
  H70      1.0000 0.06120  0.37320  0.05670  Biso   1.000  H
  H71      1.0000 0.56120  0.12680  0.94330  Biso   1.000  H
  H72      1.0000 0.93880  0.87320  0.44330  Biso   1.000  H
  C89      1.0000 0.47230  0.55500  0.65330  Biso   1.000  C
  C90      1.0000 0.02770  0.44500  0.15330  Biso   1.000  C
  C91      1.0000 0.52770  0.05500  0.84670  Biso   1.000  C
  C92      1.0000 0.97230  0.94500  0.34670  Biso   1.000  C
  H73      1.0000 0.50660  0.56300  0.67850  Biso   1.000  H
  H74      1.0000 0.99340  0.43700  0.17850  Biso   1.000  H
  H75      1.0000 0.49340  0.06300  0.82150  Biso   1.000  H
  H76      1.0000 0.00660  0.93700  0.32150  Biso   1.000  H
  C93      1.0000 0.29310  0.41240  0.61670  Biso   1.000  C
  C94      1.0000 0.20690  0.58760  0.11670  Biso   1.000  C
  C95      1.0000 0.70690  0.91240  0.88330  Biso   1.000  C
  C96      1.0000 0.79310  0.08760  0.38330  Biso   1.000  C
  C97      1.0000 0.35820  0.47740  0.61710  Biso   1.000  C
  C98      1.0000 0.14180  0.52260  0.11710  Biso   1.000  C
  C99      1.0000 0.64180  0.97740  0.88290  Biso   1.000  C
  C100     1.0000 0.85820  0.02260  0.38290  Biso   1.000  C
  C101     1.0000 0.37230  0.52990  0.57970  Biso   1.000  C
  C102     1.0000 0.12770  0.47010  0.07970  Biso   1.000  C
  C103     1.0000 0.62770  0.02990  0.92030  Biso   1.000  C
  C104     1.0000 0.87230  0.97010  0.42030  Biso   1.000  C
  H77      1.0000 0.34000  0.52260  0.55360  Biso   1.000  H
  H78      1.0000 0.16000  0.47740  0.05360  Biso   1.000  H
  H79      1.0000 0.66000  0.02260  0.94640  Biso   1.000  H
  H80      1.0000 0.84000  0.97740  0.44640  Biso   1.000  H
  C105     1.0000 0.29580  0.34450  0.64660  Biso   1.000  C
  C106     1.0000 0.20420  0.65550  0.14660  Biso   1.000  C
  C107     1.0000 0.70420  0.84450  0.85340  Biso   1.000  C
  C108     1.0000 0.79580  0.15550  0.35340  Biso   1.000  C
  H81      1.0000 0.33970  0.34110  0.66770  Biso   1.000  H
  H82      1.0000 0.16030  0.65890  0.16770  Biso   1.000  H
  H83      1.0000 0.66030  0.84110  0.83230  Biso   1.000  H
  H84      1.0000 0.83970  0.15890  0.33230  Biso   1.000  H
  C109     1.0000 0.23360  0.28210  0.64530  Biso   1.000  C
  C110     1.0000 0.26640  0.71790  0.14530  Biso   1.000  C
  C111     1.0000 0.76640  0.78210  0.85470  Biso   1.000  C
  C112     1.0000 0.73360  0.21790  0.35470  Biso   1.000  C
  H85      1.0000 0.23800  0.23670  0.66500  Biso   1.000  H
  H86      1.0000 0.26200  0.76330  0.16500  Biso   1.000  H
  H87      1.0000 0.76200  0.73670  0.83500  Biso   1.000  H
  H88      1.0000 0.73800  0.26330  0.33500  Biso   1.000  H
  C113     1.0000 0.22420  0.41460  0.58750  Biso   1.000  C
  C114     1.0000 0.27580  0.58540  0.08750  Biso   1.000  C
  C115     1.0000 0.77580  0.91460  0.91250  Biso   1.000  C
  C116     1.0000 0.72420  0.08540  0.41250  Biso   1.000  C
  H89      1.0000 0.21800  0.45930  0.56740  Biso   1.000  H
  H90      1.0000 0.28200  0.54070  0.06740  Biso   1.000  H
  H91      1.0000 0.78200  0.95930  0.93260  Biso   1.000  H
  H92      1.0000 0.71800  0.04070  0.43260  Biso   1.000  H
  C117     1.0000 0.16400  0.34960  0.58830  Biso   1.000  C
  C118     1.0000 0.33600  0.65040  0.08830  Biso   1.000  C
  C119     1.0000 0.83600  0.84960  0.91170  Biso   1.000  C
  C120     1.0000 0.66400  0.15040  0.41170  Biso   1.000  C
  H93      1.0000 0.11890  0.35150  0.56800  Biso   1.000  H
  H94      1.0000 0.38110  0.64850  0.06800  Biso   1.000  H
  H95      1.0000 0.88110  0.85150  0.93200  Biso   1.000  H
  H96      1.0000 0.61890  0.14850  0.43200  Biso   1.000  H
  C121     1.0000 0.42470  0.78530  0.64650  Biso   1.000  C
  C122     1.0000 0.07530  0.21470  0.14650  Biso   1.000  C
  C123     1.0000 0.57530  0.28530  0.85350  Biso   1.000  C
  C124     1.0000 0.92470  0.71470  0.35350  Biso   1.000  C
  H97      1.0000 0.42160  0.74110  0.66710  Biso   1.000  H
  H98      1.0000 0.07840  0.25890  0.16710  Biso   1.000  H
  H99      1.0000 0.57840  0.24110  0.83290  Biso   1.000  H
  H100     1.0000 0.92160  0.75890  0.33290  Biso   1.000  H
  C125     1.0000 0.49100  0.84910  0.58610  Biso   1.000  C
  C126     1.0000 0.00900  0.15090  0.08610  Biso   1.000  C
  C127     1.0000 0.50900  0.34910  0.91390  Biso   1.000  C
  C128     1.0000 0.99100  0.65090  0.41390  Biso   1.000  C
  H101     1.0000 0.53370  0.84960  0.56430  Biso   1.000  H
  H102     1.0000 0.96630  0.15040  0.06430  Biso   1.000  H
  H103     1.0000 0.46630  0.34960  0.93570  Biso   1.000  H
  H104     1.0000 0.03370  0.65040  0.43570  Biso   1.000  H
  C129     1.0000 0.36370  0.84820  0.64820  Biso   1.000  C
  C130     1.0000 0.13630  0.15180  0.14820  Biso   1.000  C
  C131     1.0000 0.63630  0.34820  0.85180  Biso   1.000  C
  C132     1.0000 0.86370  0.65180  0.35180  Biso   1.000  C
  H105     1.0000 0.32120  0.84680  0.67010  Biso   1.000  H
  H106     1.0000 0.17880  0.15320  0.17010  Biso   1.000  H
  H107     1.0000 0.67880  0.34680  0.82990  Biso   1.000  H
  H108     1.0000 0.82120  0.65320  0.32990  Biso   1.000  H
  C133     1.0000 0.43190  0.91310  0.58700  Biso   1.000  C
  C134     1.0000 0.06810  0.08690  0.08700  Biso   1.000  C
  C135     1.0000 0.56810  0.41310  0.91300  Biso   1.000  C
  C136     1.0000 0.93190  0.58690  0.41300  Biso   1.000  C
  H109     1.0000 0.43700  0.95730  0.56650  Biso   1.000  H
  H110     1.0000 0.06300  0.04270  0.06650  Biso   1.000  H
  H111     1.0000 0.56300  0.45730  0.93350  Biso   1.000  H
  H112     1.0000 0.93700  0.54270  0.43350  Biso   1.000  H
  C137     1.0000 0.36580  0.91410  0.61690  Biso   1.000  C
  C138     1.0000 0.13420  0.08590  0.11690  Biso   1.000  C
  C139     1.0000 0.63420  0.41410  0.88310  Biso   1.000  C
  C140     1.0000 0.86580  0.58590  0.38310  Biso   1.000  C
  C141     1.0000 0.29930  0.98110  0.61650  Biso   1.000  C
  C142     1.0000 0.20070  0.01890  0.11650  Biso   1.000  C
  C143     1.0000 0.70070  0.48110  0.88350  Biso   1.000  C
  C144     1.0000 0.79930  0.51890  0.38350  Biso   1.000  C
  C145     1.0000 0.24410  0.99280  0.65220  Biso   1.000  C
  C146     1.0000 0.25590  0.00720  0.15220  Biso   1.000  C
  C147     1.0000 0.75590  0.49280  0.84780  Biso   1.000  C
  C148     1.0000 0.74410  0.50720  0.34780  Biso   1.000  C
  H113     1.0000 0.24980  0.95930  0.67770  Biso   1.000  H
  H114     1.0000 0.25020  0.04070  0.17770  Biso   1.000  H
  H115     1.0000 0.75020  0.45930  0.82230  Biso   1.000  H
  H116     1.0000 0.74980  0.54070  0.32230  Biso   1.000  H
  C149     1.0000 0.28570  0.03290  0.58060  Biso   1.000  C
  C150     1.0000 0.21430  0.96710  0.08060  Biso   1.000  C
  C151     1.0000 0.71430  0.53290  0.91940  Biso   1.000  C
  C152     1.0000 0.78570  0.46710  0.41940  Biso   1.000  C
  H117     1.0000 0.32000  0.02730  0.55520  Biso   1.000  H
  H118     1.0000 0.18000  0.97270  0.05520  Biso   1.000  H
  H119     1.0000 0.68000  0.52730  0.94480  Biso   1.000  H
  H120     1.0000 0.82000  0.47270  0.44480  Biso   1.000  H
  C153     1.0000 0.18180  0.05200  0.65060  Biso   1.000  C
  C154     1.0000 0.31820  0.94800  0.15060  Biso   1.000  C
  C155     1.0000 0.81820  0.55200  0.84940  Biso   1.000  C
  C156     1.0000 0.68180  0.44800  0.34940  Biso   1.000  C
  H121     1.0000 0.14480  0.05690  0.67500  Biso   1.000  H
  H122     1.0000 0.35520  0.94310  0.17500  Biso   1.000  H
  H123     1.0000 0.85520  0.55690  0.82500  Biso   1.000  H
  H124     1.0000 0.64480  0.44310  0.32500  Biso   1.000  H
  C157     1.0000 0.22230  0.09330  0.58100  Biso   1.000  C
  C158     1.0000 0.27770  0.90670  0.08100  Biso   1.000  C
  C159     1.0000 0.77770  0.59330  0.91900  Biso   1.000  C
  C160     1.0000 0.72230  0.40670  0.41900  Biso   1.000  C
  H125     1.0000 0.21550  0.12790  0.55600  Biso   1.000  H
  H126     1.0000 0.28450  0.87210  0.05600  Biso   1.000  H
  H127     1.0000 0.78450  0.62790  0.94400  Biso   1.000  H
  H128     1.0000 0.71550  0.37210  0.44400  Biso   1.000  H
  C161     1.0000 0.00180  0.17800  0.45890  Biso   1.000  C
  C162     1.0000 0.49820  0.82200  0.95890  Biso   1.000  C
  C163     1.0000 0.99820  0.67800  0.04110  Biso   1.000  C
  C164     1.0000 0.50180  0.32200  0.54110  Biso   1.000  C
  H129     1.0000 0.01180  0.11750  0.45770  Biso   1.000  H
  H130     1.0000 0.48820  0.88250  0.95770  Biso   1.000  H
  H131     1.0000 0.98820  0.61750  0.04230  Biso   1.000  H
  H132     1.0000 0.51180  0.38250  0.54230  Biso   1.000  H
  H133     1.0000 0.94660  0.18720  0.47300  Biso   1.000  H
  H134     1.0000 0.55340  0.81280  0.97300  Biso   1.000  H
  H135     1.0000 0.05340  0.68720  0.02700  Biso   1.000  H
  H136     1.0000 0.44660  0.31280  0.52700  Biso   1.000  H
  C165     1.0000 0.99950  0.21330  0.41080  Biso   1.000  C
  C166     1.0000 0.50050  0.78670  0.91080  Biso   1.000  C
  C167     1.0000 0.00050  0.71330  0.08920  Biso   1.000  C
  C168     1.0000 0.49950  0.28670  0.58920  Biso   1.000  C
  C169     1.0000 0.95870  0.28610  0.40040  Biso   1.000  C
  C170     1.0000 0.54130  0.71390  0.90040  Biso   1.000  C
  C171     1.0000 0.04130  0.78610  0.09960  Biso   1.000  C
  C172     1.0000 0.45870  0.21390  0.59960  Biso   1.000  C
  H137     1.0000 0.93070  0.31550  0.42320  Biso   1.000  H
  H138     1.0000 0.56930  0.68450  0.92320  Biso   1.000  H
  H139     1.0000 0.06930  0.81550  0.07680  Biso   1.000  H
  H140     1.0000 0.43070  0.18450  0.57680  Biso   1.000  H
  C173     1.0000 0.95680  0.31930  0.35660  Biso   1.000  C
  C174     1.0000 0.54320  0.68070  0.85660  Biso   1.000  C
  C175     1.0000 0.04320  0.81930  0.14340  Biso   1.000  C
  C176     1.0000 0.45680  0.18070  0.64340  Biso   1.000  C
  H141     1.0000 0.92780  0.36940  0.35060  Biso   1.000  H
  H142     1.0000 0.57220  0.63060  0.85060  Biso   1.000  H
  H143     1.0000 0.07220  0.86940  0.14940  Biso   1.000  H
  H144     1.0000 0.42780  0.13060  0.64940  Biso   1.000  H
  C177     1.0000 0.99830  0.27700  0.32250  Biso   1.000  C
  C178     1.0000 0.50170  0.72300  0.82250  Biso   1.000  C
  C179     1.0000 0.00170  0.77700  0.17750  Biso   1.000  C
  C180     1.0000 0.49830  0.22300  0.67750  Biso   1.000  C
  C181     1.0000 0.99750  0.30640  0.27570  Biso   1.000  C
  C182     1.0000 0.50250  0.69360  0.77570  Biso   1.000  C
  C183     1.0000 0.00250  0.80640  0.22430  Biso   1.000  C
  C184     1.0000 0.49750  0.19360  0.72430  Biso   1.000  C
  H145     1.0000 0.04570  0.28130  0.26010  Biso   1.000  H
  H146     1.0000 0.45430  0.71870  0.76010  Biso   1.000  H
  H147     1.0000 0.95430  0.78130  0.23990  Biso   1.000  H
  H148     1.0000 0.54570  0.21870  0.73990  Biso   1.000  H
  H149     1.0000 0.00570  0.36730  0.27560  Biso   1.000  H
  H150     1.0000 0.49430  0.63270  0.77560  Biso   1.000  H
  H151     1.0000 0.99430  0.86730  0.22440  Biso   1.000  H
  H152     1.0000 0.50570  0.13270  0.72440  Biso   1.000  H
  C185     1.0000 0.04150  0.20180  0.33340  Biso   1.000  C
  C186     1.0000 0.45850  0.79820  0.83340  Biso   1.000  C
  C187     1.0000 0.95850  0.70180  0.16660  Biso   1.000  C
  C188     1.0000 0.54150  0.29820  0.66660  Biso   1.000  C
  H153     1.0000 0.07010  0.17200  0.31100  Biso   1.000  H
  H154     1.0000 0.42990  0.82800  0.81100  Biso   1.000  H
  H155     1.0000 0.92990  0.67200  0.18900  Biso   1.000  H
  H156     1.0000 0.57010  0.32800  0.68900  Biso   1.000  H
  C189     1.0000 0.04200  0.17130  0.37720  Biso   1.000  C
  C190     1.0000 0.45800  0.82870  0.87720  Biso   1.000  C
  C191     1.0000 0.95800  0.67130  0.12280  Biso   1.000  C
  C192     1.0000 0.54200  0.32870  0.62280  Biso   1.000  C
  H157     1.0000 0.07160  0.12180  0.38380  Biso   1.000  H
  H158     1.0000 0.42840  0.87820  0.88380  Biso   1.000  H
  H159     1.0000 0.92840  0.62180  0.11620  Biso   1.000  H
  H160     1.0000 0.57160  0.37820  0.61620  Biso   1.000  H
  C193     1.0000 0.65530  0.68230  0.45610  Biso   1.000  C
  C194     1.0000 0.84470  0.31770  0.95610  Biso   1.000  C
  C195     1.0000 0.34470  0.18230  0.04390  Biso   1.000  C
  C196     1.0000 0.15530  0.81770  0.54390  Biso   1.000  C
  H161     1.0000 0.70910  0.70350  0.46800  Biso   1.000  H
  H162     1.0000 0.79090  0.29650  0.96800  Biso   1.000  H
  H163     1.0000 0.29090  0.20350  0.03200  Biso   1.000  H
  H164     1.0000 0.20910  0.79650  0.53200  Biso   1.000  H
  H165     1.0000 0.65640  0.62110  0.45820  Biso   1.000  H
  H166     1.0000 0.84360  0.37890  0.95820  Biso   1.000  H
  H167     1.0000 0.34360  0.12110  0.04180  Biso   1.000  H
  H168     1.0000 0.15640  0.87890  0.54180  Biso   1.000  H
  C197     1.0000 0.64800  0.70720  0.40820  Biso   1.000  C
  C198     1.0000 0.85200  0.29280  0.90820  Biso   1.000  C
  C199     1.0000 0.35200  0.20720  0.09180  Biso   1.000  C
  C200     1.0000 0.14800  0.79280  0.59180  Biso   1.000  C
  C201     1.0000 0.59540  0.66350  0.37900  Biso   1.000  C
  C202     1.0000 0.90460  0.33650  0.87900  Biso   1.000  C
  C203     1.0000 0.40460  0.16350  0.12100  Biso   1.000  C
  C204     1.0000 0.09540  0.83650  0.62100  Biso   1.000  C
  H169     1.0000 0.55860  0.62270  0.39070  Biso   1.000  H
  H170     1.0000 0.94140  0.37730  0.89070  Biso   1.000  H
  H171     1.0000 0.44140  0.12270  0.10930  Biso   1.000  H
  H172     1.0000 0.05860  0.87730  0.60930  Biso   1.000  H
  C205     1.0000 0.59480  0.67800  0.33170  Biso   1.000  C
  C206     1.0000 0.90520  0.32200  0.83170  Biso   1.000  C
  C207     1.0000 0.40520  0.17800  0.16830  Biso   1.000  C
  C208     1.0000 0.09480  0.82200  0.66830  Biso   1.000  C
  H173     1.0000 0.56500  0.64210  0.31240  Biso   1.000  H
  H174     1.0000 0.93500  0.35790  0.81240  Biso   1.000  H
  H175     1.0000 0.43500  0.14210  0.18760  Biso   1.000  H
  H176     1.0000 0.06500  0.85790  0.68760  Biso   1.000  H
  C209     1.0000 0.63990  0.74720  0.31510  Biso   1.000  C
  C210     1.0000 0.86010  0.25280  0.81510  Biso   1.000  C
  C211     1.0000 0.36010  0.24720  0.18490  Biso   1.000  C
  C212     1.0000 0.13990  0.75280  0.68490  Biso   1.000  C
  C213     1.0000 0.64030  0.76650  0.26570  Biso   1.000  C
  C214     1.0000 0.85970  0.23350  0.76570  Biso   1.000  C
  C215     1.0000 0.35970  0.26650  0.23430  Biso   1.000  C
  C216     1.0000 0.14030  0.73350  0.73430  Biso   1.000  C
  H177     1.0000 0.63950  0.82740  0.26160  Biso   1.000  H
  H178     1.0000 0.86050  0.17260  0.76160  Biso   1.000  H
  H179     1.0000 0.36050  0.32740  0.23840  Biso   1.000  H
  H180     1.0000 0.13950  0.67260  0.73840  Biso   1.000  H
  H181     1.0000 0.58850  0.74380  0.25230  Biso   1.000  H
  H182     1.0000 0.91150  0.25620  0.75230  Biso   1.000  H
  H183     1.0000 0.41150  0.24380  0.24770  Biso   1.000  H
  H184     1.0000 0.08850  0.75620  0.74770  Biso   1.000  H
  C217     1.0000 0.68940  0.79580  0.34450  Biso   1.000  C
  C218     1.0000 0.81060  0.20420  0.84450  Biso   1.000  C
  C219     1.0000 0.31060  0.29580  0.15550  Biso   1.000  C
  C220     1.0000 0.18940  0.70420  0.65550  Biso   1.000  C
  H185     1.0000 0.71880  0.84220  0.33300  Biso   1.000  H
  H186     1.0000 0.78120  0.15780  0.83300  Biso   1.000  H
  H187     1.0000 0.28120  0.34220  0.16700  Biso   1.000  H
  H188     1.0000 0.21880  0.65780  0.66700  Biso   1.000  H
  C221     1.0000 0.69750  0.77660  0.39350  Biso   1.000  C
  C222     1.0000 0.80250  0.22340  0.89350  Biso   1.000  C
  C223     1.0000 0.30250  0.27660  0.10650  Biso   1.000  C
  C224     1.0000 0.19750  0.72340  0.60650  Biso   1.000  C
  H189     1.0000 0.73220  0.80790  0.41280  Biso   1.000  H
  H190     1.0000 0.76780  0.19210  0.91280  Biso   1.000  H
  H191     1.0000 0.26780  0.30790  0.08720  Biso   1.000  H
  H192     1.0000 0.23220  0.69210  0.58720  Biso   1.000  H
