data_image0
_cell_length_a       11.02
_cell_length_b       13.816
_cell_length_c       9.819
_cell_angle_alpha    90
_cell_angle_beta     116.17
_cell_angle_gamma    90

_symmetry_space_group_name_H-M    "P 1"
_symmetry_int_tables_number       1

loop_
  _symmetry_equiv_pos_as_xyz
  'x, y, z'

loop_
  _atom_site_label
  _atom_site_occupancy
  _atom_site_fract_x
  _atom_site_fract_y
  _atom_site_fract_z
  _atom_site_thermal_displace_type
  _atom_site_B_iso_or_equiv
  _atom_site_type_symbol
  Cu1      1.0000 0.38953  0.17138  0.68411  Biso   1.000  Cu
  Cu2      1.0000 0.61047  0.67138  0.81589  Biso   1.000  Cu
  Cu3      1.0000 0.61047  0.82862  0.31589  Biso   1.000  Cu
  Cu4      1.0000 0.38953  0.32862  0.18411  Biso   1.000  Cu
  O1       1.0000 0.44420  0.23100  0.54120  Biso   1.000  O
  O2       1.0000 0.55580  0.73100  0.95880  Biso   1.000  O
  O3       1.0000 0.55580  0.76900  0.45880  Biso   1.000  O
  O4       1.0000 0.44420  0.26900  0.04120  Biso   1.000  O
  O5       1.0000 0.52450  0.23710  0.37220  Biso   1.000  O
  O6       1.0000 0.47550  0.73710  0.12780  Biso   1.000  O
  O7       1.0000 0.47550  0.76290  0.62780  Biso   1.000  O
  O8       1.0000 0.52450  0.26290  0.87220  Biso   1.000  O
  N1       1.0000 0.31510  0.08230  0.78930  Biso   1.000  N
  N2       1.0000 0.68490  0.58230  0.71070  Biso   1.000  N
  N3       1.0000 0.68490  0.91770  0.21070  Biso   1.000  N
  N4       1.0000 0.31510  0.41770  0.28930  Biso   1.000  N
  N5       1.0000 0.22120  0.24830  0.60060  Biso   1.000  N
  N6       1.0000 0.77880  0.74830  0.89940  Biso   1.000  N
  N7       1.0000 0.77880  0.75170  0.39940  Biso   1.000  N
  N8       1.0000 0.22120  0.25170  0.10060  Biso   1.000  N
  S1       1.0000 0.95110  0.26840  0.40200  Biso   1.000  S
  S2       1.0000 0.04890  0.76840  0.09800  Biso   1.000  S
  S3       1.0000 0.04890  0.73160  0.59800  Biso   1.000  S
  S4       1.0000 0.95110  0.23160  0.90200  Biso   1.000  S
  C1       1.0000 0.10920  0.25550  0.51720  Biso   1.000  C
  C2       1.0000 0.89080  0.75550  0.98280  Biso   1.000  C
  C3       1.0000 0.89080  0.74450  0.48280  Biso   1.000  C
  C4       1.0000 0.10920  0.24450  0.01720  Biso   1.000  C
  C5       1.0000 0.21770  0.09800  0.82930  Biso   1.000  C
  C6       1.0000 0.78230  0.59800  0.67070  Biso   1.000  C
  C7       1.0000 0.78230  0.90200  0.17070  Biso   1.000  C
  C8       1.0000 0.21770  0.40200  0.32930  Biso   1.000  C
  H1       1.0000 0.18210  0.16010  0.81880  Biso   1.000  H
  H2       1.0000 0.81790  0.66010  0.68120  Biso   1.000  H
  H3       1.0000 0.81790  0.83990  0.18120  Biso   1.000  H
  H4       1.0000 0.18210  0.33990  0.31880  Biso   1.000  H
  C9       1.0000 0.16570  0.02620  0.88640  Biso   1.000  C
  C10      1.0000 0.83430  0.52620  0.61360  Biso   1.000  C
  C11      1.0000 0.83430  0.97380  0.11360  Biso   1.000  C
  C12      1.0000 0.16570  0.47380  0.38640  Biso   1.000  C
  H5       1.0000 0.09430  0.03920  0.90990  Biso   1.000  H
  H6       1.0000 0.90570  0.53920  0.59010  Biso   1.000  H
  H7       1.0000 0.90570  0.96080  0.09010  Biso   1.000  H
  H8       1.0000 0.09430  0.46080  0.40990  Biso   1.000  H
  C13      1.0000 0.22190  0.93440  0.90790  Biso   1.000  C
  C14      1.0000 0.77810  0.43440  0.59210  Biso   1.000  C
  C15      1.0000 0.77810  0.06560  0.09210  Biso   1.000  C
  C16      1.0000 0.22190  0.56560  0.40790  Biso   1.000  C
  H9       1.0000 0.19110  0.88500  0.94900  Biso   1.000  H
  H10      1.0000 0.80890  0.38500  0.55100  Biso   1.000  H
  H11      1.0000 0.80890  0.11500  0.05100  Biso   1.000  H
  H12      1.0000 0.19110  0.61500  0.44900  Biso   1.000  H
  C17      1.0000 0.32350  0.91860  0.86720  Biso   1.000  C
  C18      1.0000 0.67650  0.41860  0.63280  Biso   1.000  C
  C19      1.0000 0.67650  0.08140  0.13280  Biso   1.000  C
  C20      1.0000 0.32350  0.58140  0.36720  Biso   1.000  C
  H13      1.0000 0.36080  0.85710  0.87750  Biso   1.000  H
  H14      1.0000 0.63920  0.35710  0.62250  Biso   1.000  H
  H15      1.0000 0.63920  0.14290  0.12250  Biso   1.000  H
  H16      1.0000 0.36080  0.64290  0.37750  Biso   1.000  H
  C21      1.0000 0.37140  0.99240  0.81120  Biso   1.000  C
  C22      1.0000 0.62860  0.49240  0.68880  Biso   1.000  C
  C23      1.0000 0.62860  0.00760  0.18880  Biso   1.000  C
  C24      1.0000 0.37140  0.50760  0.31120  Biso   1.000  C
  C25      1.0000 0.47940  0.98370  0.76570  Biso   1.000  C
  C26      1.0000 0.52060  0.48370  0.73430  Biso   1.000  C
  C27      1.0000 0.52060  0.01630  0.23430  Biso   1.000  C
  C28      1.0000 0.47940  0.51630  0.26570  Biso   1.000  C
  H17      1.0000 0.52590  0.92550  0.77920  Biso   1.000  H
  H18      1.0000 0.47410  0.42550  0.72080  Biso   1.000  H
  H19      1.0000 0.47410  0.07450  0.22080  Biso   1.000  H
  H20      1.0000 0.52590  0.57450  0.27920  Biso   1.000  H
  N9       1.0000 0.51040  0.05640  0.70680  Biso   1.000  N
  N10      1.0000 0.48960  0.55640  0.79320  Biso   1.000  N
  N11      1.0000 0.48960  0.94360  0.29320  Biso   1.000  N
  N12      1.0000 0.51040  0.44360  0.20680  Biso   1.000  N
  C29      1.0000 0.61750  0.05290  0.66340  Biso   1.000  C
  C30      1.0000 0.38250  0.55290  0.83660  Biso   1.000  C
  C31      1.0000 0.38250  0.94710  0.33660  Biso   1.000  C
  C32      1.0000 0.61750  0.44710  0.16340  Biso   1.000  C
  C33      1.0000 0.71190  0.97590  0.71190  Biso   1.000  C
  C34      1.0000 0.28810  0.47590  0.78810  Biso   1.000  C
  C35      1.0000 0.28810  0.02410  0.28810  Biso   1.000  C
  C36      1.0000 0.71190  0.52410  0.21190  Biso   1.000  C
  H21      1.0000 0.70230  0.92730  0.77190  Biso   1.000  H
  H22      1.0000 0.29770  0.42730  0.72810  Biso   1.000  H
  H23      1.0000 0.29770  0.07270  0.22810  Biso   1.000  H
  H24      1.0000 0.70230  0.57270  0.27190  Biso   1.000  H
  C37      1.0000 0.81590  0.97080  0.67380  Biso   1.000  C
  C38      1.0000 0.18410  0.47080  0.82620  Biso   1.000  C
  C39      1.0000 0.18410  0.02920  0.32620  Biso   1.000  C
  C40      1.0000 0.81590  0.52920  0.17380  Biso   1.000  C
  H25      1.0000 0.87800  0.92030  0.70880  Biso   1.000  H
  H26      1.0000 0.12200  0.42030  0.79120  Biso   1.000  H
  H27      1.0000 0.12200  0.07970  0.29120  Biso   1.000  H
  H28      1.0000 0.87800  0.57970  0.20880  Biso   1.000  H
  C41      1.0000 0.82790  0.04290  0.58070  Biso   1.000  C
  C42      1.0000 0.17210  0.54290  0.91930  Biso   1.000  C
  C43      1.0000 0.17210  0.95710  0.41930  Biso   1.000  C
  C44      1.0000 0.82790  0.45710  0.08070  Biso   1.000  C
  H29      1.0000 0.89800  0.04130  0.55230  Biso   1.000  H
  H30      1.0000 0.10200  0.54130  0.94770  Biso   1.000  H
  H31      1.0000 0.10200  0.95870  0.44770  Biso   1.000  H
  H32      1.0000 0.89800  0.45870  0.05230  Biso   1.000  H
  C45      1.0000 0.73480  0.11590  0.53210  Biso   1.000  C
  C46      1.0000 0.26520  0.61590  0.96790  Biso   1.000  C
  C47      1.0000 0.26520  0.88410  0.46790  Biso   1.000  C
  C48      1.0000 0.73480  0.38410  0.03210  Biso   1.000  C
  H33      1.0000 0.74530  0.16420  0.47230  Biso   1.000  H
  H34      1.0000 0.25470  0.66420  0.02770  Biso   1.000  H
  H35      1.0000 0.25470  0.83580  0.52770  Biso   1.000  H
  H36      1.0000 0.74530  0.33580  0.97230  Biso   1.000  H
  C49      1.0000 0.62650  0.12270  0.56570  Biso   1.000  C
  C50      1.0000 0.37350  0.62270  0.93430  Biso   1.000  C
  C51      1.0000 0.37350  0.87730  0.43430  Biso   1.000  C
  C52      1.0000 0.62650  0.37730  0.06570  Biso   1.000  C
  C53      1.0000 0.52440  0.20170  0.48810  Biso   1.000  C
  C54      1.0000 0.47560  0.70170  0.01190  Biso   1.000  C
  C55      1.0000 0.47560  0.79830  0.51190  Biso   1.000  C
  C56      1.0000 0.52440  0.29830  0.98810  Biso   1.000  C
