data_image0
_cell_length_a       18.608
_cell_length_b       16.946
_cell_length_c       6.942
_cell_angle_alpha    90
_cell_angle_beta     99.1
_cell_angle_gamma    90

_symmetry_space_group_name_H-M    "P 1"
_symmetry_int_tables_number       1

loop_
  _symmetry_equiv_pos_as_xyz
  'x, y, z'

loop_
  _atom_site_label
  _atom_site_occupancy
  _atom_site_fract_x
  _atom_site_fract_y
  _atom_site_fract_z
  _atom_site_thermal_displace_type
  _atom_site_B_iso_or_equiv
  _atom_site_type_symbol
  Cu1      1.0000 0.62776  0.68559  0.06699  Biso   1.000  Cu
  Cu2      1.0000 0.37224  0.68559  0.43301  Biso   1.000  Cu
  Cu3      1.0000 0.12776  0.18559  0.06699  Biso   1.000  Cu
  Cu4      1.0000 0.87224  0.18559  0.43301  Biso   1.000  Cu
  Cu5      1.0000 0.37224  0.31441  0.93301  Biso   1.000  Cu
  Cu6      1.0000 0.62776  0.31441  0.56699  Biso   1.000  Cu
  Cu7      1.0000 0.87224  0.81441  0.93301  Biso   1.000  Cu
  Cu8      1.0000 0.12776  0.81441  0.56699  Biso   1.000  Cu
  N1       1.0000 0.90876  0.52550  0.57740  Biso   1.000  N
  N2       1.0000 0.09124  0.52550  0.92260  Biso   1.000  N
  N3       1.0000 0.40876  0.02550  0.57740  Biso   1.000  N
  N4       1.0000 0.59124  0.02550  0.92260  Biso   1.000  N
  N5       1.0000 0.09124  0.47450  0.42260  Biso   1.000  N
  N6       1.0000 0.90876  0.47450  0.07740  Biso   1.000  N
  N7       1.0000 0.59124  0.97450  0.42260  Biso   1.000  N
  N8       1.0000 0.40876  0.97450  0.07740  Biso   1.000  N
  N9       1.0000 0.79860  0.57300  0.65600  Biso   1.000  N
  N10      1.0000 0.20140  0.57300  0.84400  Biso   1.000  N
  N11      1.0000 0.29860  0.07300  0.65600  Biso   1.000  N
  N12      1.0000 0.70140  0.07300  0.84400  Biso   1.000  N
  N13      1.0000 0.20140  0.42700  0.34400  Biso   1.000  N
  N14      1.0000 0.79860  0.42700  0.15600  Biso   1.000  N
  N15      1.0000 0.70140  0.92700  0.34400  Biso   1.000  N
  N16      1.0000 0.29860  0.92700  0.15600  Biso   1.000  N
  N17      1.0000 0.89320  0.66180  0.59040  Biso   1.000  N
  N18      1.0000 0.10680  0.66180  0.90960  Biso   1.000  N
  N19      1.0000 0.39320  0.16180  0.59040  Biso   1.000  N
  N20      1.0000 0.60680  0.16180  0.90960  Biso   1.000  N
  N21      1.0000 0.10680  0.33820  0.40960  Biso   1.000  N
  N22      1.0000 0.89320  0.33820  0.09040  Biso   1.000  N
  N23      1.0000 0.60680  0.83820  0.40960  Biso   1.000  N
  N24      1.0000 0.39320  0.83820  0.09040  Biso   1.000  N
  N25      1.0000 0.99710  0.60500  0.49220  Biso   1.000  N
  N26      1.0000 0.00290  0.60500  0.00780  Biso   1.000  N
  N27      1.0000 0.49710  0.10500  0.49220  Biso   1.000  N
  N28      1.0000 0.50290  0.10500  0.00780  Biso   1.000  N
  N29      1.0000 0.00290  0.39500  0.50780  Biso   1.000  N
  N30      1.0000 0.99710  0.39500  0.99220  Biso   1.000  N
  N31      1.0000 0.50290  0.89500  0.50780  Biso   1.000  N
  N32      1.0000 0.49710  0.89500  0.99220  Biso   1.000  N
  N33      1.0000 0.05600  0.73390  0.47070  Biso   1.000  N
  N34      1.0000 0.94400  0.73390  0.02930  Biso   1.000  N
  N35      1.0000 0.55600  0.23390  0.47070  Biso   1.000  N
  N36      1.0000 0.44400  0.23390  0.02930  Biso   1.000  N
  N37      1.0000 0.94400  0.26610  0.52930  Biso   1.000  N
  N38      1.0000 0.05600  0.26610  0.97070  Biso   1.000  N
  N39      1.0000 0.44400  0.76610  0.52930  Biso   1.000  N
  N40      1.0000 0.55600  0.76610  0.97070  Biso   1.000  N
  N41      1.0000 0.82450  0.43660  0.63770  Biso   1.000  N
  N42      1.0000 0.17550  0.43660  0.86230  Biso   1.000  N
  N43      1.0000 0.32450  0.93660  0.63770  Biso   1.000  N
  N44      1.0000 0.67550  0.93660  0.86230  Biso   1.000  N
  N45      1.0000 0.17550  0.56340  0.36230  Biso   1.000  N
  N46      1.0000 0.82450  0.56340  0.13770  Biso   1.000  N
  N47      1.0000 0.67550  0.06340  0.36230  Biso   1.000  N
  N48      1.0000 0.32450  0.06340  0.13770  Biso   1.000  N
  N49      1.0000 0.70400  0.38890  0.68300  Biso   1.000  N
  N50      1.0000 0.29600  0.38890  0.81700  Biso   1.000  N
  N51      1.0000 0.20400  0.88890  0.68300  Biso   1.000  N
  N52      1.0000 0.79600  0.88890  0.81700  Biso   1.000  N
  N53      1.0000 0.29600  0.61110  0.31700  Biso   1.000  N
  N54      1.0000 0.70400  0.61110  0.18300  Biso   1.000  N
  N55      1.0000 0.79600  0.11110  0.31700  Biso   1.000  N
  N56      1.0000 0.20400  0.11110  0.18300  Biso   1.000  N
  N57      1.0000 0.79530  0.70990  0.70880  Biso   1.000  N
  N58      1.0000 0.20470  0.70990  0.79120  Biso   1.000  N
  N59      1.0000 0.29530  0.20990  0.70880  Biso   1.000  N
  N60      1.0000 0.70470  0.20990  0.79120  Biso   1.000  N
  N61      1.0000 0.20470  0.29010  0.29120  Biso   1.000  N
  N62      1.0000 0.79530  0.29010  0.20880  Biso   1.000  N
  N63      1.0000 0.70470  0.79010  0.29120  Biso   1.000  N
  N64      1.0000 0.29530  0.79010  0.20880  Biso   1.000  N
  N65      1.0000 0.68200  0.70330  0.84720  Biso   1.000  N
  N66      1.0000 0.31800  0.70330  0.65280  Biso   1.000  N
  N67      1.0000 0.18200  0.20330  0.84720  Biso   1.000  N
  N68      1.0000 0.81800  0.20330  0.65280  Biso   1.000  N
  N69      1.0000 0.31800  0.29670  0.15280  Biso   1.000  N
  N70      1.0000 0.68200  0.29670  0.34720  Biso   1.000  N
  N71      1.0000 0.81800  0.79670  0.15280  Biso   1.000  N
  N72      1.0000 0.18200  0.79670  0.34720  Biso   1.000  N
  C1       1.0000 0.93230  0.60020  0.55230  Biso   1.000  C
  C2       1.0000 0.06770  0.60020  0.94770  Biso   1.000  C
  C3       1.0000 0.43230  0.10020  0.55230  Biso   1.000  C
  C4       1.0000 0.56770  0.10020  0.94770  Biso   1.000  C
  C5       1.0000 0.06770  0.39980  0.44770  Biso   1.000  C
  C6       1.0000 0.93230  0.39980  0.05230  Biso   1.000  C
  C7       1.0000 0.56770  0.89980  0.44770  Biso   1.000  C
  C8       1.0000 0.43230  0.89980  0.05230  Biso   1.000  C
  C9       1.0000 0.84090  0.51290  0.62340  Biso   1.000  C
  C10      1.0000 0.15910  0.51290  0.87660  Biso   1.000  C
  C11      1.0000 0.34090  0.01290  0.62340  Biso   1.000  C
  C12      1.0000 0.65910  0.01290  0.87660  Biso   1.000  C
  C13      1.0000 0.15910  0.48710  0.37660  Biso   1.000  C
  C14      1.0000 0.84090  0.48710  0.12340  Biso   1.000  C
  C15      1.0000 0.65910  0.98710  0.37660  Biso   1.000  C
  C16      1.0000 0.34090  0.98710  0.12340  Biso   1.000  C
  C17      1.0000 0.82840  0.64560  0.64990  Biso   1.000  C
  C18      1.0000 0.17160  0.64560  0.85010  Biso   1.000  C
  C19      1.0000 0.32840  0.14560  0.64990  Biso   1.000  C
  C20      1.0000 0.67160  0.14560  0.85010  Biso   1.000  C
  C21      1.0000 0.17160  0.35440  0.35010  Biso   1.000  C
  C22      1.0000 0.82840  0.35440  0.14990  Biso   1.000  C
  C23      1.0000 0.67160  0.85440  0.35010  Biso   1.000  C
  C24      1.0000 0.32840  0.85440  0.14990  Biso   1.000  C
  C25      1.0000 0.02540  0.67520  0.48300  Biso   1.000  C
  C26      1.0000 0.97460  0.67520  0.01700  Biso   1.000  C
  C27      1.0000 0.52540  0.17520  0.48300  Biso   1.000  C
  C28      1.0000 0.47460  0.17520  0.01700  Biso   1.000  C
  C29      1.0000 0.97460  0.32480  0.51700  Biso   1.000  C
  C30      1.0000 0.02540  0.32480  0.98300  Biso   1.000  C
  C31      1.0000 0.47460  0.82480  0.51700  Biso   1.000  C
  C32      1.0000 0.52540  0.82480  0.98300  Biso   1.000  C
  C33      1.0000 0.75960  0.41550  0.66200  Biso   1.000  C
  C34      1.0000 0.24040  0.41550  0.83800  Biso   1.000  C
  C35      1.0000 0.25960  0.91550  0.66200  Biso   1.000  C
  C36      1.0000 0.74040  0.91550  0.83800  Biso   1.000  C
  C37      1.0000 0.24040  0.58450  0.33800  Biso   1.000  C
  C38      1.0000 0.75960  0.58450  0.16200  Biso   1.000  C
  C39      1.0000 0.74040  0.08450  0.33800  Biso   1.000  C
  C40      1.0000 0.25960  0.08450  0.16200  Biso   1.000  C
  C41      1.0000 0.73460  0.70150  0.77900  Biso   1.000  C
  C42      1.0000 0.26540  0.70150  0.72100  Biso   1.000  C
  C43      1.0000 0.23460  0.20150  0.77900  Biso   1.000  C
  C44      1.0000 0.76540  0.20150  0.72100  Biso   1.000  C
  C45      1.0000 0.26540  0.29850  0.22100  Biso   1.000  C
  C46      1.0000 0.73460  0.29850  0.27900  Biso   1.000  C
  C47      1.0000 0.76540  0.79850  0.22100  Biso   1.000  C
  C48      1.0000 0.23460  0.79850  0.27900  Biso   1.000  C
  O1       1.0000 0.57642  0.32160  0.80560  Biso   1.000  O
  O2       1.0000 0.42358  0.32160  0.69440  Biso   1.000  O
  O3       1.0000 0.07642  0.82160  0.80560  Biso   1.000  O
  O4       1.0000 0.92358  0.82160  0.69440  Biso   1.000  O
  O5       1.0000 0.42358  0.67840  0.19440  Biso   1.000  O
  O6       1.0000 0.57642  0.67840  0.30560  Biso   1.000  O
  O7       1.0000 0.92358  0.17840  0.19440  Biso   1.000  O
  O8       1.0000 0.07642  0.17840  0.30560  Biso   1.000  O
  O9       1.0000 0.56610  0.42110  0.39540  Biso   1.000  O
  O10      1.0000 0.43390  0.42110  0.10460  Biso   1.000  O
  O11      1.0000 0.06610  0.92110  0.39540  Biso   1.000  O
  O12      1.0000 0.93390  0.92110  0.10460  Biso   1.000  O
  O13      1.0000 0.43390  0.57890  0.60460  Biso   1.000  O
  O14      1.0000 0.56610  0.57890  0.89540  Biso   1.000  O
  O15      1.0000 0.93390  0.07890  0.60460  Biso   1.000  O
  O16      1.0000 0.06610  0.07890  0.89540  Biso   1.000  O
  O17      1.0000 0.63070  0.56060  0.55900  Biso   1.000  O
  O18      1.0000 0.36930  0.56060  0.94100  Biso   1.000  O
  O19      1.0000 0.13070  0.06060  0.55900  Biso   1.000  O
  O20      1.0000 0.86930  0.06060  0.94100  Biso   1.000  O
  O21      1.0000 0.36930  0.43940  0.44100  Biso   1.000  O
  O22      1.0000 0.63070  0.43940  0.05900  Biso   1.000  O
  O23      1.0000 0.86930  0.93940  0.44100  Biso   1.000  O
  O24      1.0000 0.13070  0.93940  0.05900  Biso   1.000  O
  H1       1.0000 0.93664  0.48600  0.56430  Biso   1.000  H
  H2       1.0000 0.06336  0.48600  0.93570  Biso   1.000  H
  H3       1.0000 0.43664  0.98600  0.56430  Biso   1.000  H
  H4       1.0000 0.56336  0.98600  0.93570  Biso   1.000  H
  H5       1.0000 0.06336  0.51400  0.43570  Biso   1.000  H
  H6       1.0000 0.93664  0.51400  0.06430  Biso   1.000  H
  H7       1.0000 0.56336  0.01400  0.43570  Biso   1.000  H
  H8       1.0000 0.43664  0.01400  0.06430  Biso   1.000  H
