data_image0
_cell_length_a       7.495
_cell_length_b       10.2861
_cell_length_c       10.5709
_cell_angle_alpha    87.975
_cell_angle_beta     70.254
_cell_angle_gamma    71.506

_symmetry_space_group_name_H-M    "P 1"
_symmetry_int_tables_number       1

loop_
  _symmetry_equiv_pos_as_xyz
  'x, y, z'

loop_
  _atom_site_label
  _atom_site_occupancy
  _atom_site_fract_x
  _atom_site_fract_y
  _atom_site_fract_z
  _atom_site_thermal_displace_type
  _atom_site_B_iso_or_equiv
  _atom_site_type_symbol
  Cu1      1.0000 0.67834  0.55916  0.41659  Biso   1.000  Cu
  Cu2      1.0000 0.32166  0.44084  0.58341  Biso   1.000  Cu
  N1       1.0000 0.45370  0.77990  0.63620  Biso   1.000  N
  N2       1.0000 0.54630  0.22010  0.36380  Biso   1.000  N
  N3       1.0000 0.59730  0.65740  0.59630  Biso   1.000  N
  N4       1.0000 0.40270  0.34260  0.40370  Biso   1.000  N
  N5       1.0000 0.68770  0.62170  0.68600  Biso   1.000  N
  N6       1.0000 0.31230  0.37830  0.31400  Biso   1.000  N
  N7       1.0000 0.60460  0.71970  0.78690  Biso   1.000  N
  N8       1.0000 0.39540  0.28030  0.21310  Biso   1.000  N
  N9       1.0000 0.93640  0.31790  0.05860  Biso   1.000  N
  N10      1.0000 0.06360  0.68210  0.94140  Biso   1.000  N
  N11      1.0000 0.76720  0.47160  0.23270  Biso   1.000  N
  N12      1.0000 0.23280  0.52840  0.76730  Biso   1.000  N
  O1       1.0000 0.45070  0.69721  0.38423  Biso   1.000  O
  O2       1.0000 0.54930  0.30279  0.61577  Biso   1.000  O
  O3       1.0000 0.20010  0.63101  0.52304  Biso   1.000  O
  O4       1.0000 0.79990  0.36899  0.47696  Biso   1.000  O
  O5       1.0000 0.96440  0.59830  0.36520  Biso   1.000  O
  O6       1.0000 0.03560  0.40170  0.63480  Biso   1.000  O
  H1       1.0000 0.05480  0.52190  0.33140  Biso   1.000  H
  H2       1.0000 0.94520  0.47810  0.66860  Biso   1.000  H
  H3       1.0000 0.99970  0.63320  0.42070  Biso   1.000  H
  H4       1.0000 0.00030  0.36680  0.57930  Biso   1.000  H
  C1       1.0000 0.27230  0.71910  0.45970  Biso   1.000  C
  C2       1.0000 0.72770  0.28090  0.54030  Biso   1.000  C
  C3       1.0000 0.12970  0.86430  0.47650  Biso   1.000  C
  C4       1.0000 0.87030  0.13570  0.52350  Biso   1.000  C
  C5       1.0000 0.19980  0.97010  0.42000  Biso   1.000  C
  C6       1.0000 0.80020  0.02990  0.58000  Biso   1.000  C
  H5       1.0000 0.33360  0.95080  0.36630  Biso   1.000  H
  H6       1.0000 0.66640  0.04920  0.63370  Biso   1.000  H
  C7       1.0000 0.92850  0.89600  0.55680  Biso   1.000  C
  C8       1.0000 0.07150  0.10400  0.44320  Biso   1.000  C
  H7       1.0000 0.87990  0.82580  0.59530  Biso   1.000  H
  H8       1.0000 0.12010  0.17420  0.40470  Biso   1.000  H
  C9       1.0000 0.46110  0.81440  0.75410  Biso   1.000  C
  C10      1.0000 0.53890  0.18560  0.24590  Biso   1.000  C
  C11      1.0000 0.32880  0.94570  0.83330  Biso   1.000  C
  C12      1.0000 0.67120  0.05430  0.16670  Biso   1.000  C
  C13      1.0000 0.28930  0.95880  0.97280  Biso   1.000  C
  C14      1.0000 0.71070  0.04120  0.02720  Biso   1.000  C
  H9       1.0000 0.34930  0.88540  0.01470  Biso   1.000  H
  H10      1.0000 0.65070  0.11460  0.98530  Biso   1.000  H
  C15      1.0000 0.16170  0.08020  0.04760  Biso   1.000  C
  C16      1.0000 0.83830  0.91980  0.95240  Biso   1.000  C
  H11      1.0000 0.13350  0.08910  0.14020  Biso   1.000  H
  H12      1.0000 0.86650  0.91090  0.85980  Biso   1.000  H
  C17      1.0000 0.07390  0.19160  0.98100  Biso   1.000  C
  C18      1.0000 0.92610  0.80840  0.01900  Biso   1.000  C
  C19      1.0000 0.12050  0.17690  0.84670  Biso   1.000  C
  C20      1.0000 0.87950  0.82310  0.15330  Biso   1.000  C
  H13      1.0000 0.06640  0.25040  0.80230  Biso   1.000  H
  H14      1.0000 0.93360  0.74960  0.19770  Biso   1.000  H
  C21      1.0000 0.24850  0.05300  0.77340  Biso   1.000  C
  C22      1.0000 0.75150  0.94700  0.22660  Biso   1.000  C
  H15      1.0000 0.27860  0.04510  0.68050  Biso   1.000  H
  H16      1.0000 0.72140  0.95490  0.31950  Biso   1.000  H
  C23      1.0000 0.90860  0.35230  0.18670  Biso   1.000  C
  C24      1.0000 0.09140  0.64770  0.81330  Biso   1.000  C
  H17      1.0000 0.98050  0.29840  0.23710  Biso   1.000  H
  H18      1.0000 0.01950  0.70160  0.76290  Biso   1.000  H
  C25      1.0000 0.70340  0.51730  0.12700  Biso   1.000  C
  C26      1.0000 0.29660  0.48270  0.87300  Biso   1.000  C
  H19      1.0000 0.60440  0.60010  0.12910  Biso   1.000  H
  H20      1.0000 0.39560  0.39990  0.87090  Biso   1.000  H
  C27      1.0000 0.80510  0.42480  0.02030  Biso   1.000  C
  C28      1.0000 0.19490  0.57520  0.97970  Biso   1.000  C
  H21      1.0000 0.78990  0.43150  0.93630  Biso   1.000  H
  H22      1.0000 0.21010  0.56850  0.06370  Biso   1.000  H
  C29      1.0000 0.35000  0.99000  0.94200  Biso   1.000  C
  C30      1.0000 0.65000  0.01000  0.05800  Biso   1.000  C
  H23      1.0000 0.45010  0.93580  0.97300  Biso   1.000  H
  H24      1.0000 0.54990  0.06420  0.02700  Biso   1.000  H
  C31      1.0000 0.22300  0.11900  0.01200  Biso   1.000  C
  C32      1.0000 0.77700  0.88100  0.98800  Biso   1.000  C
  H25      1.0000 0.24960  0.15100  0.08280  Biso   1.000  H
  H26      1.0000 0.75040  0.84900  0.91720  Biso   1.000  H
  C33      1.0000 0.03500  0.15800  0.86500  Biso   1.000  C
  C34      1.0000 0.96500  0.84200  0.13500  Biso   1.000  C
  H27      1.0000 0.92770  0.21430  0.84230  Biso   1.000  H
  H28      1.0000 0.07230  0.78570  0.15770  Biso   1.000  H
  C35      1.0000 0.16500  0.03600  0.78800  Biso   1.000  C
  C36      1.0000 0.83500  0.96400  0.21200  Biso   1.000  C
  H29      1.0000 0.15080  0.01070  0.70970  Biso   1.000  H
  H30      1.0000 0.84920  0.98930  0.29030  Biso   1.000  H
