data_image0
_cell_length_a       16.1933
_cell_length_b       6.8486
_cell_length_c       24.108
_cell_angle_alpha    90
_cell_angle_beta     96.467
_cell_angle_gamma    90

_symmetry_space_group_name_H-M    "P 1"
_symmetry_int_tables_number       1

loop_
  _symmetry_equiv_pos_as_xyz
  'x, y, z'

loop_
  _atom_site_label
  _atom_site_occupancy
  _atom_site_fract_x
  _atom_site_fract_y
  _atom_site_fract_z
  _atom_site_thermal_displace_type
  _atom_site_B_iso_or_equiv
  _atom_site_type_symbol
  Cu1      1.0000 0.49691  0.36872  0.24116  Biso   1.000  Cu
  Cu2      1.0000 0.50309  0.86872  0.25884  Biso   1.000  Cu
  Cu3      1.0000 0.50309  0.63128  0.75884  Biso   1.000  Cu
  Cu4      1.0000 0.49691  0.13128  0.74116  Biso   1.000  Cu
  Cu5      1.0000 0.31833  0.61208  0.24487  Biso   1.000  Cu
  Cu6      1.0000 0.68167  0.11208  0.25513  Biso   1.000  Cu
  Cu7      1.0000 0.68167  0.38792  0.75513  Biso   1.000  Cu
  Cu8      1.0000 0.31833  0.88792  0.74487  Biso   1.000  Cu
  N1       1.0000 0.59900  0.51920  0.24790  Biso   1.000  N
  N2       1.0000 0.40100  0.01920  0.25210  Biso   1.000  N
  N3       1.0000 0.40100  0.48080  0.75210  Biso   1.000  N
  N4       1.0000 0.59900  0.98080  0.74790  Biso   1.000  N
  N5       1.0000 0.60070  0.70720  0.25350  Biso   1.000  N
  N6       1.0000 0.39930  0.20720  0.24650  Biso   1.000  N
  N7       1.0000 0.39930  0.29280  0.74650  Biso   1.000  N
  N8       1.0000 0.60070  0.79280  0.75350  Biso   1.000  N
  N9       1.0000 0.67850  0.76890  0.25360  Biso   1.000  N
  N10      1.0000 0.32150  0.26890  0.24640  Biso   1.000  N
  N11      1.0000 0.32150  0.23110  0.74640  Biso   1.000  N
  N12      1.0000 0.67850  0.73110  0.75360  Biso   1.000  N
  C1       1.0000 0.72300  0.61040  0.24890  Biso   1.000  C
  C2       1.0000 0.27700  0.11040  0.25110  Biso   1.000  C
  C3       1.0000 0.27700  0.38960  0.75110  Biso   1.000  C
  C4       1.0000 0.72300  0.88960  0.74890  Biso   1.000  C
  N13      1.0000 0.06120  0.65690  0.21130  Biso   1.000  N
  N14      1.0000 0.93880  0.15690  0.28870  Biso   1.000  N
  N15      1.0000 0.93880  0.34310  0.78870  Biso   1.000  N
  N16      1.0000 0.06120  0.84310  0.71130  Biso   1.000  N
  N17      1.0000 0.19650  0.64330  0.21820  Biso   1.000  N
  N18      1.0000 0.80350  0.14330  0.28180  Biso   1.000  N
  N19      1.0000 0.80350  0.35670  0.78180  Biso   1.000  N
  N20      1.0000 0.19650  0.85670  0.71820  Biso   1.000  N
  O1       1.0000 0.45590  0.45450  0.14780  Biso   1.000  O
  O2       1.0000 0.54410  0.95450  0.35220  Biso   1.000  O
  O3       1.0000 0.54410  0.54550  0.85220  Biso   1.000  O
  O4       1.0000 0.45590  0.04550  0.64780  Biso   1.000  O
  O5       1.0000 0.33610  0.58600  0.16630  Biso   1.000  O
  O6       1.0000 0.66390  0.08600  0.33370  Biso   1.000  O
  O7       1.0000 0.66390  0.41400  0.83370  Biso   1.000  O
  O8       1.0000 0.33610  0.91400  0.66630  Biso   1.000  O
  O9       1.0000 0.09420  0.28850  0.06820  Biso   1.000  O
  O10      1.0000 0.90580  0.78850  0.43180  Biso   1.000  O
  O11      1.0000 0.90580  0.71150  0.93180  Biso   1.000  O
  O12      1.0000 0.09420  0.21150  0.56820  Biso   1.000  O
  O13      1.0000 0.07780  0.31150  0.97620  Biso   1.000  O
  O14      1.0000 0.92220  0.81150  0.52380  Biso   1.000  O
  O15      1.0000 0.92220  0.68850  0.02380  Biso   1.000  O
  O16      1.0000 0.07780  0.18850  0.47620  Biso   1.000  O
  O17      1.0000 0.33630  0.40550  0.88050  Biso   1.000  O
  O18      1.0000 0.66370  0.90550  0.61950  Biso   1.000  O
  O19      1.0000 0.66370  0.59450  0.11950  Biso   1.000  O
  O20      1.0000 0.33630  0.09450  0.38050  Biso   1.000  O
  O21      1.0000 0.44140  0.54600  0.93110  Biso   1.000  O
  O22      1.0000 0.55860  0.04600  0.56890  Biso   1.000  O
  O23      1.0000 0.55860  0.45400  0.06890  Biso   1.000  O
  O24      1.0000 0.44140  0.95400  0.43110  Biso   1.000  O
  H1       1.0000 0.46040  0.54800  0.90100  Biso   1.000  H
  H2       1.0000 0.53960  0.04800  0.59900  Biso   1.000  H
  H3       1.0000 0.53960  0.45200  0.09900  Biso   1.000  H
  H4       1.0000 0.46040  0.95200  0.40100  Biso   1.000  H
  O25      1.0000 0.28970  0.59760  0.32200  Biso   1.000  O
  O26      1.0000 0.71030  0.09760  0.17800  Biso   1.000  O
  O27      1.0000 0.71030  0.40240  0.67800  Biso   1.000  O
  O28      1.0000 0.28970  0.90240  0.82200  Biso   1.000  O
  O29      1.0000 0.41550  0.54550  0.36510  Biso   1.000  O
  O30      1.0000 0.58450  0.04550  0.13490  Biso   1.000  O
  O31      1.0000 0.58450  0.45450  0.63490  Biso   1.000  O
  O32      1.0000 0.41550  0.95450  0.86510  Biso   1.000  O
  O33      1.0000 0.45560  0.52040  0.56400  Biso   1.000  O
  O34      1.0000 0.54440  0.02040  0.93600  Biso   1.000  O
  O35      1.0000 0.54440  0.47960  0.43600  Biso   1.000  O
  O36      1.0000 0.45560  0.97960  0.06400  Biso   1.000  O
  H5       1.0000 0.48470  0.50510  0.59380  Biso   1.000  H
  H6       1.0000 0.51530  0.00510  0.90620  Biso   1.000  H
  H7       1.0000 0.51530  0.49490  0.40620  Biso   1.000  H
  H8       1.0000 0.48470  0.99490  0.09380  Biso   1.000  H
  O37      1.0000 0.35370  0.49720  0.61770  Biso   1.000  O
  O38      1.0000 0.64630  0.99720  0.88230  Biso   1.000  O
  O39      1.0000 0.64630  0.50280  0.38230  Biso   1.000  O
  O40      1.0000 0.35370  0.00280  0.11770  Biso   1.000  O
  O41      1.0000 0.07340  0.69040  0.52020  Biso   1.000  O
  O42      1.0000 0.92660  0.19040  0.97980  Biso   1.000  O
  O43      1.0000 0.92660  0.30960  0.47980  Biso   1.000  O
  O44      1.0000 0.07340  0.80960  0.02020  Biso   1.000  O
  O45      1.0000 0.05620  0.68460  0.42760  Biso   1.000  O
  O46      1.0000 0.94380  0.18460  0.07240  Biso   1.000  O
  O47      1.0000 0.94380  0.31540  0.57240  Biso   1.000  O
  O48      1.0000 0.05620  0.81540  0.92760  Biso   1.000  O
  H9       1.0000 0.00810  0.71140  0.43220  Biso   1.000  H
  H10      1.0000 0.99190  0.21140  0.06780  Biso   1.000  H
  H11      1.0000 0.99190  0.28860  0.56780  Biso   1.000  H
  H12      1.0000 0.00810  0.78860  0.93220  Biso   1.000  H
  O49      1.0000 0.44140  0.61560  0.26540  Biso   1.000  O
  O50      1.0000 0.55860  0.11560  0.23460  Biso   1.000  O
  O51      1.0000 0.55860  0.38440  0.73460  Biso   1.000  O
  O52      1.0000 0.44140  0.88440  0.76540  Biso   1.000  O
  H13      1.0000 0.44510  0.60040  0.30060  Biso   1.000  H
  H14      1.0000 0.55490  0.10040  0.19940  Biso   1.000  H
  H15      1.0000 0.55490  0.39960  0.69940  Biso   1.000  H
  H16      1.0000 0.44510  0.89960  0.80060  Biso   1.000  H
  N21      1.0000 0.67620  0.45100  0.24590  Biso   1.000  N
  N22      1.0000 0.32380  0.95100  0.25410  Biso   1.000  N
  N23      1.0000 0.32380  0.54900  0.75410  Biso   1.000  N
  N24      1.0000 0.67620  0.04900  0.74590  Biso   1.000  N
  H17      1.0000 0.69170  0.33160  0.24330  Biso   1.000  H
  H18      1.0000 0.30830  0.83160  0.25670  Biso   1.000  H
  H19      1.0000 0.30830  0.66840  0.75670  Biso   1.000  H
  H20      1.0000 0.69170  0.16840  0.74330  Biso   1.000  H
  C5       1.0000 0.13150  0.61550  0.24510  Biso   1.000  C
  C6       1.0000 0.86850  0.11550  0.25490  Biso   1.000  C
  C7       1.0000 0.86850  0.38450  0.75490  Biso   1.000  C
  C8       1.0000 0.13150  0.88450  0.74510  Biso   1.000  C
  H21      1.0000 0.13340  0.57350  0.28190  Biso   1.000  H
  H22      1.0000 0.86660  0.07350  0.21810  Biso   1.000  H
  H23      1.0000 0.86660  0.42650  0.71810  Biso   1.000  H
  H24      1.0000 0.13340  0.92650  0.78190  Biso   1.000  H
  C9       1.0000 0.16680  0.70990  0.16590  Biso   1.000  C
  C10      1.0000 0.83320  0.20990  0.33410  Biso   1.000  C
  C11      1.0000 0.83320  0.29010  0.83410  Biso   1.000  C
  C12      1.0000 0.16680  0.79010  0.66590  Biso   1.000  C
  H25      1.0000 0.19980  0.74550  0.13840  Biso   1.000  H
  H26      1.0000 0.80020  0.24550  0.36160  Biso   1.000  H
  H27      1.0000 0.80020  0.25450  0.86160  Biso   1.000  H
  H28      1.0000 0.19980  0.75450  0.63840  Biso   1.000  H
  C13      1.0000 0.08550  0.71590  0.16050  Biso   1.000  C
  C14      1.0000 0.91450  0.21590  0.33950  Biso   1.000  C
  C15      1.0000 0.91450  0.28410  0.83950  Biso   1.000  C
  C16      1.0000 0.08550  0.78410  0.66050  Biso   1.000  C
  H29      1.0000 0.05080  0.75250  0.12890  Biso   1.000  H
  H30      1.0000 0.94920  0.25250  0.37110  Biso   1.000  H
  H31      1.0000 0.94920  0.24750  0.87110  Biso   1.000  H
  H32      1.0000 0.05080  0.74750  0.62890  Biso   1.000  H
  C17      1.0000 0.81450  0.61090  0.24260  Biso   1.000  C
  C18      1.0000 0.18550  0.11090  0.25740  Biso   1.000  C
  C19      1.0000 0.18550  0.38910  0.75740  Biso   1.000  C
  C20      1.0000 0.81450  0.88910  0.74260  Biso   1.000  C
  C21      1.0000 0.87420  0.65870  0.28460  Biso   1.000  C
  C22      1.0000 0.12580  0.15870  0.21540  Biso   1.000  C
  C23      1.0000 0.12580  0.34130  0.71540  Biso   1.000  C
  C24      1.0000 0.87420  0.84130  0.78460  Biso   1.000  C
  H33      1.0000 0.85910  0.68490  0.31990  Biso   1.000  H
  H34      1.0000 0.14090  0.18490  0.18010  Biso   1.000  H
  H35      1.0000 0.14090  0.31510  0.68010  Biso   1.000  H
  H36      1.0000 0.85910  0.81510  0.81990  Biso   1.000  H
  C25      1.0000 0.95580  0.66900  0.27580  Biso   1.000  C
  C26      1.0000 0.04420  0.16900  0.22420  Biso   1.000  C
  C27      1.0000 0.04420  0.33100  0.72420  Biso   1.000  C
  C28      1.0000 0.95580  0.83100  0.77580  Biso   1.000  C
  H37      1.0000 0.99640  0.69580  0.30530  Biso   1.000  H
  H38      1.0000 0.00360  0.19580  0.19470  Biso   1.000  H
  H39      1.0000 0.00360  0.30420  0.69470  Biso   1.000  H
  H40      1.0000 0.99640  0.80420  0.80530  Biso   1.000  H
  C29      1.0000 0.97760  0.63890  0.22250  Biso   1.000  C
  C30      1.0000 0.02240  0.13890  0.27750  Biso   1.000  C
  C31      1.0000 0.02240  0.36110  0.77750  Biso   1.000  C
  C32      1.0000 0.97760  0.86110  0.72250  Biso   1.000  C
  C33      1.0000 0.91750  0.58720  0.18010  Biso   1.000  C
  C34      1.0000 0.08250  0.08720  0.31990  Biso   1.000  C
  C35      1.0000 0.08250  0.41280  0.81990  Biso   1.000  C
  C36      1.0000 0.91750  0.91280  0.68010  Biso   1.000  C
  H41      1.0000 0.93170  0.56190  0.14440  Biso   1.000  H
  H42      1.0000 0.06830  0.06190  0.35560  Biso   1.000  H
  H43      1.0000 0.06830  0.43810  0.85560  Biso   1.000  H
  H44      1.0000 0.93170  0.93810  0.64440  Biso   1.000  H
  C37      1.0000 0.83640  0.57360  0.19110  Biso   1.000  C
  C38      1.0000 0.16360  0.07360  0.30890  Biso   1.000  C
  C39      1.0000 0.16360  0.42640  0.80890  Biso   1.000  C
  C40      1.0000 0.83640  0.92640  0.69110  Biso   1.000  C
  H45      1.0000 0.79560  0.53800  0.16260  Biso   1.000  H
  H46      1.0000 0.20440  0.03800  0.33740  Biso   1.000  H
  H47      1.0000 0.20440  0.46200  0.83740  Biso   1.000  H
  H48      1.0000 0.79560  0.96200  0.66260  Biso   1.000  H
  C41      1.0000 0.38200  0.50200  0.13570  Biso   1.000  C
  C42      1.0000 0.61800  0.00200  0.36430  Biso   1.000  C
  C43      1.0000 0.61800  0.49800  0.86430  Biso   1.000  C
  C44      1.0000 0.38200  0.99800  0.63570  Biso   1.000  C
  C45      1.0000 0.12150  0.32110  0.02240  Biso   1.000  C
  C46      1.0000 0.87850  0.82110  0.47760  Biso   1.000  C
  C47      1.0000 0.87850  0.67890  0.97760  Biso   1.000  C
  C48      1.0000 0.12150  0.17890  0.52240  Biso   1.000  C
  C49      1.0000 0.36760  0.46060  0.92510  Biso   1.000  C
  C50      1.0000 0.63240  0.96060  0.57490  Biso   1.000  C
  C51      1.0000 0.63240  0.53940  0.07490  Biso   1.000  C
  C52      1.0000 0.36760  0.03940  0.42510  Biso   1.000  C
  C53      1.0000 0.33950  0.46750  0.07780  Biso   1.000  C
  C54      1.0000 0.66050  0.96750  0.42220  Biso   1.000  C
  C55      1.0000 0.66050  0.53250  0.92220  Biso   1.000  C
  C56      1.0000 0.33950  0.03250  0.57780  Biso   1.000  C
  C57      1.0000 0.25490  0.41430  0.07430  Biso   1.000  C
  C58      1.0000 0.74510  0.91430  0.42570  Biso   1.000  C
  C59      1.0000 0.74510  0.58570  0.92570  Biso   1.000  C
  C60      1.0000 0.25490  0.08570  0.57430  Biso   1.000  C
  H49      1.0000 0.22940  0.40230  0.10680  Biso   1.000  H
  H50      1.0000 0.77060  0.90230  0.39320  Biso   1.000  H
  H51      1.0000 0.77060  0.59770  0.89320  Biso   1.000  H
  H52      1.0000 0.22940  0.09770  0.60680  Biso   1.000  H
  C61      1.0000 0.21040  0.38030  0.02420  Biso   1.000  C
  C62      1.0000 0.78960  0.88030  0.47580  Biso   1.000  C
  C63      1.0000 0.78960  0.61970  0.97580  Biso   1.000  C
  C64      1.0000 0.21040  0.11970  0.52420  Biso   1.000  C
  C65      1.0000 0.24640  0.39820  0.97510  Biso   1.000  C
  C66      1.0000 0.75360  0.89820  0.52490  Biso   1.000  C
  C67      1.0000 0.75360  0.60180  0.02490  Biso   1.000  C
  C68      1.0000 0.24640  0.10180  0.47510  Biso   1.000  C
  H53      1.0000 0.21560  0.37420  0.94090  Biso   1.000  H
  H54      1.0000 0.78440  0.87420  0.55910  Biso   1.000  H
  H55      1.0000 0.78440  0.62580  0.05910  Biso   1.000  H
  H56      1.0000 0.21560  0.12580  0.44090  Biso   1.000  H
  C69      1.0000 0.32950  0.45270  0.97760  Biso   1.000  C
  C70      1.0000 0.67050  0.95270  0.52240  Biso   1.000  C
  C71      1.0000 0.67050  0.54730  0.02240  Biso   1.000  C
  C72      1.0000 0.32950  0.04730  0.47760  Biso   1.000  C
  C73      1.0000 0.37540  0.48370  0.02890  Biso   1.000  C
  C74      1.0000 0.62460  0.98370  0.47110  Biso   1.000  C
  C75      1.0000 0.62460  0.51630  0.97110  Biso   1.000  C
  C76      1.0000 0.37540  0.01630  0.52890  Biso   1.000  C
  H57      1.0000 0.43140  0.51590  0.03030  Biso   1.000  H
  H58      1.0000 0.56860  0.01590  0.46970  Biso   1.000  H
  H59      1.0000 0.56860  0.48410  0.96970  Biso   1.000  H
  H60      1.0000 0.43140  0.98410  0.53030  Biso   1.000  H
  C77      1.0000 0.33910  0.56740  0.36490  Biso   1.000  C
  C78      1.0000 0.66090  0.06740  0.13510  Biso   1.000  C
  C79      1.0000 0.66090  0.43260  0.63510  Biso   1.000  C
  C80      1.0000 0.33910  0.93260  0.86490  Biso   1.000  C
  C81      1.0000 0.37620  0.52120  0.57270  Biso   1.000  C
  C82      1.0000 0.62380  0.02120  0.92730  Biso   1.000  C
  C83      1.0000 0.62380  0.47880  0.42730  Biso   1.000  C
  C84      1.0000 0.37620  0.97880  0.07270  Biso   1.000  C
  C85      1.0000 0.09890  0.66680  0.47470  Biso   1.000  C
  C86      1.0000 0.90110  0.16680  0.02530  Biso   1.000  C
  C87      1.0000 0.90110  0.33320  0.52530  Biso   1.000  C
  C88      1.0000 0.09890  0.83320  0.97470  Biso   1.000  C
  C89      1.0000 0.30270  0.56980  0.41970  Biso   1.000  C
  C90      1.0000 0.69730  0.06980  0.08030  Biso   1.000  C
  C91      1.0000 0.69730  0.43020  0.58030  Biso   1.000  C
  C92      1.0000 0.30270  0.93020  0.91970  Biso   1.000  C
  C93      1.0000 0.35360  0.54190  0.46900  Biso   1.000  C
  C94      1.0000 0.64640  0.04190  0.03100  Biso   1.000  C
  C95      1.0000 0.64640  0.45810  0.53100  Biso   1.000  C
  C96      1.0000 0.35360  0.95810  0.96900  Biso   1.000  C
  H61      1.0000 0.40990  0.51710  0.46780  Biso   1.000  H
  H62      1.0000 0.59010  0.01710  0.03220  Biso   1.000  H
  H63      1.0000 0.59010  0.48290  0.53220  Biso   1.000  H
  H64      1.0000 0.40990  0.98290  0.96780  Biso   1.000  H
  C97      1.0000 0.32250  0.55000  0.52030  Biso   1.000  C
  C98      1.0000 0.67750  0.05000  0.97970  Biso   1.000  C
  C99      1.0000 0.67750  0.45000  0.47970  Biso   1.000  C
  C100     1.0000 0.32250  0.95000  0.02030  Biso   1.000  C
  C101     1.0000 0.23940  0.58610  0.52190  Biso   1.000  C
  C102     1.0000 0.76060  0.08610  0.97810  Biso   1.000  C
  C103     1.0000 0.76060  0.41390  0.47810  Biso   1.000  C
  C104     1.0000 0.23940  0.91390  0.02190  Biso   1.000  C
  H65      1.0000 0.21730  0.58960  0.55590  Biso   1.000  H
  H66      1.0000 0.78270  0.08960  0.94410  Biso   1.000  H
  H67      1.0000 0.78270  0.41040  0.44410  Biso   1.000  H
  H68      1.0000 0.21730  0.91040  0.05590  Biso   1.000  H
  C105     1.0000 0.18870  0.61740  0.47230  Biso   1.000  C
  C106     1.0000 0.81130  0.11740  0.02770  Biso   1.000  C
  C107     1.0000 0.81130  0.38260  0.52770  Biso   1.000  C
  C108     1.0000 0.18870  0.88260  0.97230  Biso   1.000  C
  C109     1.0000 0.22110  0.60730  0.42220  Biso   1.000  C
  C110     1.0000 0.77890  0.10730  0.07780  Biso   1.000  C
  C111     1.0000 0.77890  0.39270  0.57780  Biso   1.000  C
  C112     1.0000 0.22110  0.89270  0.92220  Biso   1.000  C
  H69      1.0000 0.18620  0.62660  0.38930  Biso   1.000  H
  H70      1.0000 0.81380  0.12660  0.11070  Biso   1.000  H
  H71      1.0000 0.81380  0.37340  0.61070  Biso   1.000  H
  H72      1.0000 0.18620  0.87340  0.88930  Biso   1.000  H
