data_image0
_cell_length_a       10.484
_cell_length_b       11.164
_cell_length_c       13.669
_cell_angle_alpha    71.141
_cell_angle_beta     81.129
_cell_angle_gamma    80.433

_symmetry_space_group_name_H-M    "P 1"
_symmetry_int_tables_number       1

loop_
  _symmetry_equiv_pos_as_xyz
  'x, y, z'

loop_
  _atom_site_label
  _atom_site_occupancy
  _atom_site_fract_x
  _atom_site_fract_y
  _atom_site_fract_z
  _atom_site_thermal_displace_type
  _atom_site_B_iso_or_equiv
  _atom_site_type_symbol
  Cu1      1.0000 0.00000  0.50000  0.00000  Biso   1.000  Cu
  Cu2      1.0000 0.94021  0.37767  0.25562  Biso   1.000  Cu
  Cu3      1.0000 0.05979  0.62233  0.74438  Biso   1.000  Cu
  Cu4      1.0000 0.22313  0.30752  0.16327  Biso   1.000  Cu
  Cu5      1.0000 0.77687  0.69248  0.83673  Biso   1.000  Cu
  N1       1.0000 0.79070  0.55450  0.15392  Biso   1.000  N
  N2       1.0000 0.20930  0.44550  0.84608  Biso   1.000  N
  N3       1.0000 0.83210  0.57290  0.05407  Biso   1.000  N
  N4       1.0000 0.16790  0.42710  0.94593  Biso   1.000  N
  N5       1.0000 0.74270  0.64710  0.99649  Biso   1.000  N
  N6       1.0000 0.25730  0.35290  0.00351  Biso   1.000  N
  N7       1.0000 0.64150  0.67900  0.05740  Biso   1.000  N
  N8       1.0000 0.35850  0.32100  0.94260  Biso   1.000  N
  N9       1.0000 0.45020  0.95300  0.83390  Biso   1.000  N
  N10      1.0000 0.54980  0.04700  0.16610  Biso   1.000  N
  N11      1.0000 0.63130  0.83410  0.80550  Biso   1.000  N
  N12      1.0000 0.36870  0.16590  0.19450  Biso   1.000  N
  N13      1.0000 0.05380  0.18500  0.15410  Biso   1.000  N
  N14      1.0000 0.94620  0.81500  0.84590  Biso   1.000  N
  N15      1.0000 0.93950  0.24850  0.18010  Biso   1.000  N
  N16      1.0000 0.06050  0.75150  0.81990  Biso   1.000  N
  N17      1.0000 0.85550  0.25450  0.11760  Biso   1.000  N
  N18      1.0000 0.14450  0.74550  0.88240  Biso   1.000  N
  N19      1.0000 0.91080  0.19600  0.04830  Biso   1.000  N
  N20      1.0000 0.08920  0.80400  0.95170  Biso   1.000  N
  N21      1.0000 0.36230  0.69380  0.51290  Biso   1.000  N
  N22      1.0000 0.63770  0.30620  0.48710  Biso   1.000  N
  N23      1.0000 0.20360  0.68810  0.63900  Biso   1.000  N
  N24      1.0000 0.79640  0.31190  0.36100  Biso   1.000  N
  O1       1.0000 0.95977  0.49690  0.33090  Biso   1.000  O
  O2       1.0000 0.04023  0.50310  0.66910  Biso   1.000  O
  O3       1.0000 0.09090  0.62570  0.21389  Biso   1.000  O
  O4       1.0000 0.90910  0.37430  0.78611  Biso   1.000  O
  O5       1.0000 0.84660  0.73610  0.68858  Biso   1.000  O
  O6       1.0000 0.15340  0.26390  0.31142  Biso   1.000  O
  O7       1.0000 0.72200  0.63300  0.63284  Biso   1.000  O
  O8       1.0000 0.27800  0.36700  0.36716  Biso   1.000  O
  O9       1.0000 0.07087  0.44752  0.13515  Biso   1.000  O
  O10      1.0000 0.92913  0.55248  0.86485  Biso   1.000  O
  H1       1.0000 0.09330  0.51330  0.14290  Biso   1.000  H
  H2       1.0000 0.90670  0.48670  0.85710  Biso   1.000  H
  O11      1.0000 0.36880  0.45060  0.15730  Biso   1.000  O
  O12      1.0000 0.63120  0.54940  0.84270  Biso   1.000  O
  H3       1.0000 0.44020  0.43290  0.12300  Biso   1.000  H
  H4       1.0000 0.55980  0.56710  0.87700  Biso   1.000  H
  H5       1.0000 0.38410  0.44150  0.21870  Biso   1.000  H
  H6       1.0000 0.61590  0.55850  0.78130  Biso   1.000  H
  C1       1.0000 0.01600  0.59670  0.29570  Biso   1.000  C
  C2       1.0000 0.98400  0.40330  0.70430  Biso   1.000  C
  C3       1.0000 0.81030  0.69880  0.61930  Biso   1.000  C
  C4       1.0000 0.18970  0.30120  0.38070  Biso   1.000  C
  C5       1.0000 0.98630  0.68870  0.35880  Biso   1.000  C
  C6       1.0000 0.01370  0.31130  0.64120  Biso   1.000  C
  C7       1.0000 0.91200  0.65730  0.45450  Biso   1.000  C
  C8       1.0000 0.08800  0.34270  0.54550  Biso   1.000  C
  H7       1.0000 0.87880  0.57940  0.47940  Biso   1.000  H
  H8       1.0000 0.12120  0.42060  0.52060  Biso   1.000  H
  C9       1.0000 0.88640  0.74020  0.51360  Biso   1.000  C
  C10      1.0000 0.11360  0.25980  0.48640  Biso   1.000  C
  C11      1.0000 0.93300  0.85700  0.47510  Biso   1.000  C
  C12      1.0000 0.06700  0.14300  0.52490  Biso   1.000  C
  H9       1.0000 0.91760  0.91250  0.51500  Biso   1.000  H
  H10      1.0000 0.08240  0.08750  0.48500  Biso   1.000  H
  C13      1.0000 0.00250  0.89220  0.37780  Biso   1.000  C
  C14      1.0000 0.99750  0.10780  0.62220  Biso   1.000  C
  H11      1.0000 0.03040  0.97250  0.35110  Biso   1.000  H
  H12      1.0000 0.96960  0.02750  0.64890  Biso   1.000  H
  C15      1.0000 0.03010  0.80770  0.32040  Biso   1.000  C
  C16      1.0000 0.96990  0.19230  0.67960  Biso   1.000  C
  H13      1.0000 0.07850  0.83060  0.25560  Biso   1.000  H
  H14      1.0000 0.92150  0.16940  0.74440  Biso   1.000  H
  C17      1.0000 0.58990  0.63560  0.24700  Biso   1.000  C
  C18      1.0000 0.41010  0.36440  0.75300  Biso   1.000  C
  C19      1.0000 0.45590  0.66260  0.24820  Biso   1.000  C
  C20      1.0000 0.54410  0.33740  0.75180  Biso   1.000  C
  H15      1.0000 0.41670  0.66840  0.18990  Biso   1.000  H
  H16      1.0000 0.58330  0.33160  0.81010  Biso   1.000  H
  C21      1.0000 0.38040  0.68090  0.33540  Biso   1.000  C
  C22      1.0000 0.61960  0.31910  0.66460  Biso   1.000  C
  H17      1.0000 0.29050  0.69920  0.33600  Biso   1.000  H
  H18      1.0000 0.70950  0.30080  0.66400  Biso   1.000  H
  C23      1.0000 0.43880  0.67190  0.42190  Biso   1.000  C
  C24      1.0000 0.56120  0.32810  0.57810  Biso   1.000  C
  C25      1.0000 0.57190  0.64380  0.42250  Biso   1.000  C
  C26      1.0000 0.42810  0.35620  0.57750  Biso   1.000  C
  H19      1.0000 0.61070  0.63730  0.48110  Biso   1.000  H
  H20      1.0000 0.38930  0.36270  0.51890  Biso   1.000  H
  C27      1.0000 0.64650  0.62560  0.33490  Biso   1.000  C
  C28      1.0000 0.35350  0.37440  0.66510  Biso   1.000  C
  H21      1.0000 0.73630  0.60630  0.33480  Biso   1.000  H
  H22      1.0000 0.26370  0.39370  0.66520  Biso   1.000  H
  C29      1.0000 0.67260  0.62070  0.15370  Biso   1.000  C
  C30      1.0000 0.32740  0.37930  0.84630  Biso   1.000  C
  C31      1.0000 0.52800  0.84540  0.87110  Biso   1.000  C
  C32      1.0000 0.47200  0.15460  0.12890  Biso   1.000  C
  H23      1.0000 0.51120  0.78560  0.93560  Biso   1.000  H
  H24      1.0000 0.48880  0.21440  0.06440  Biso   1.000  H
  C33      1.0000 0.61810  0.94010  0.72160  Biso   1.000  C
  C34      1.0000 0.38190  0.05990  0.27840  Biso   1.000  C
  H25      1.0000 0.67680  0.95830  0.66200  Biso   1.000  H
  H26      1.0000 0.32320  0.04170  0.33800  Biso   1.000  H
  C35      1.0000 0.50720  0.01440  0.73820  Biso   1.000  C
  C36      1.0000 0.49280  0.98560  0.26180  Biso   1.000  C
  H27      1.0000 0.47580  0.09230  0.69310  Biso   1.000  H
  H28      1.0000 0.52420  0.90770  0.30690  Biso   1.000  H
  C37      1.0000 0.13450  0.09250  0.01210  Biso   1.000  C
  C38      1.0000 0.86550  0.90750  0.98790  Biso   1.000  C
  C39      1.0000 0.13320  0.12280  0.90580  Biso   1.000  C
  C40      1.0000 0.86680  0.87720  0.09420  Biso   1.000  C
  H29      1.0000 0.06300  0.17550  0.87410  Biso   1.000  H
  H30      1.0000 0.93700  0.82450  0.12590  Biso   1.000  H
  C41      1.0000 0.23580  0.07520  0.84610  Biso   1.000  C
  C42      1.0000 0.76420  0.92480  0.15390  Biso   1.000  C
  H31      1.0000 0.23460  0.09520  0.77470  Biso   1.000  H
  H32      1.0000 0.76540  0.90480  0.22530  Biso   1.000  H
  C43      1.0000 0.33910  0.99840  0.89370  Biso   1.000  C
  C44      1.0000 0.66090  0.00160  0.10630  Biso   1.000  C
  C45      1.0000 0.34090  0.96510  0.99990  Biso   1.000  C
  C46      1.0000 0.65910  0.03490  0.00010  Biso   1.000  C
  H33      1.0000 0.41090  0.91170  0.03150  Biso   1.000  H
  H34      1.0000 0.58910  0.08830  0.96850  Biso   1.000  H
  C47      1.0000 0.23710  0.01210  0.05940  Biso   1.000  C
  C48      1.0000 0.76290  0.98790  0.94060  Biso   1.000  C
  H35      1.0000 0.23700  0.98920  0.13110  Biso   1.000  H
  H36      1.0000 0.76300  0.01080  0.86890  Biso   1.000  H
  C49      1.0000 0.03160  0.15460  0.07270  Biso   1.000  C
  C50      1.0000 0.96840  0.84540  0.92730  Biso   1.000  C
  C51      1.0000 0.24130  0.66370  0.55000  Biso   1.000  C
  C52      1.0000 0.75870  0.33630  0.45000  Biso   1.000  C
  H37      1.0000 0.19090  0.63020  0.51720  Biso   1.000  H
  H38      1.0000 0.80910  0.36980  0.48280  Biso   1.000  H
  C53      1.0000 0.30660  0.73550  0.65890  Biso   1.000  C
  C54      1.0000 0.69340  0.26450  0.34110  Biso   1.000  C
  H39      1.0000 0.30790  0.76190  0.71660  Biso   1.000  H
  H40      1.0000 0.69210  0.23810  0.28340  Biso   1.000  H
  C55      1.0000 0.40430  0.73810  0.58330  Biso   1.000  C
  C56      1.0000 0.59570  0.26190  0.41670  Biso   1.000  C
  H41      1.0000 0.48500  0.76470  0.57920  Biso   1.000  H
  H42      1.0000 0.51500  0.23530  0.42080  Biso   1.000  H
  O13      1.0000 0.61110  0.38890  0.05670  Biso   1.000  O
  O14      1.0000 0.38890  0.61110  0.94330  Biso   1.000  O
  H43      1.0000 0.68540  0.35000  0.07290  Biso   1.000  H
  H44      1.0000 0.31460  0.65000  0.92710  Biso   1.000  H
  H45      1.0000 0.61950  0.43540  0.99360  Biso   1.000  H
  H46      1.0000 0.38050  0.56460  0.00640  Biso   1.000  H
