data_image0
_cell_length_a       17.724
_cell_length_b       7.3594
_cell_length_c       18.14
_cell_angle_alpha    90
_cell_angle_beta     90
_cell_angle_gamma    90

_symmetry_space_group_name_H-M    "P 1"
_symmetry_int_tables_number       1

loop_
  _symmetry_equiv_pos_as_xyz
  'x, y, z'

loop_
  _atom_site_label
  _atom_site_occupancy
  _atom_site_fract_x
  _atom_site_fract_y
  _atom_site_fract_z
  _atom_site_thermal_displace_type
  _atom_site_B_iso_or_equiv
  _atom_site_type_symbol
  Cu1      1.0000 0.64650  0.54045  0.15433  Biso   1.000  Cu
  Cu2      1.0000 0.85350  0.95955  0.65433  Biso   1.000  Cu
  Cu3      1.0000 0.35350  0.54045  0.34567  Biso   1.000  Cu
  Cu4      1.0000 0.14650  0.95955  0.84567  Biso   1.000  Cu
  Cu5      1.0000 0.35350  0.45955  0.84567  Biso   1.000  Cu
  Cu6      1.0000 0.14650  0.04045  0.34567  Biso   1.000  Cu
  Cu7      1.0000 0.64650  0.45955  0.65433  Biso   1.000  Cu
  Cu8      1.0000 0.85350  0.04045  0.15433  Biso   1.000  Cu
  O1       1.0000 0.62643  0.27190  0.15225  Biso   1.000  O
  O2       1.0000 0.87357  0.22810  0.65225  Biso   1.000  O
  O3       1.0000 0.37357  0.27190  0.34775  Biso   1.000  O
  O4       1.0000 0.12643  0.22810  0.84775  Biso   1.000  O
  O5       1.0000 0.37357  0.72810  0.84775  Biso   1.000  O
  O6       1.0000 0.12643  0.77190  0.34775  Biso   1.000  O
  O7       1.0000 0.62643  0.72810  0.65225  Biso   1.000  O
  O8       1.0000 0.87357  0.77190  0.15225  Biso   1.000  O
  O9       1.0000 0.68025  0.79900  0.16166  Biso   1.000  O
  O10      1.0000 0.81975  0.70100  0.66166  Biso   1.000  O
  O11      1.0000 0.31975  0.79900  0.33834  Biso   1.000  O
  O12      1.0000 0.18025  0.70100  0.83834  Biso   1.000  O
  O13      1.0000 0.31975  0.20100  0.83834  Biso   1.000  O
  O14      1.0000 0.18025  0.29900  0.33834  Biso   1.000  O
  O15      1.0000 0.68025  0.20100  0.66166  Biso   1.000  O
  O16      1.0000 0.81975  0.29900  0.16166  Biso   1.000  O
  O17      1.0000 0.52574  0.62160  0.13089  Biso   1.000  O
  O18      1.0000 0.97426  0.87840  0.63089  Biso   1.000  O
  O19      1.0000 0.47426  0.62160  0.36911  Biso   1.000  O
  O20      1.0000 0.02574  0.87840  0.86911  Biso   1.000  O
  O21      1.0000 0.47426  0.37840  0.86911  Biso   1.000  O
  O22      1.0000 0.02574  0.12160  0.36911  Biso   1.000  O
  O23      1.0000 0.52574  0.37840  0.63089  Biso   1.000  O
  O24      1.0000 0.97426  0.12160  0.13089  Biso   1.000  O
  O25      1.0000 0.53013  0.64570  0.88907  Biso   1.000  O
  O26      1.0000 0.96987  0.85430  0.38907  Biso   1.000  O
  O27      1.0000 0.46987  0.64570  0.61093  Biso   1.000  O
  O28      1.0000 0.03013  0.85430  0.11093  Biso   1.000  O
  O29      1.0000 0.46987  0.35430  0.11093  Biso   1.000  O
  O30      1.0000 0.03013  0.14570  0.61093  Biso   1.000  O
  O31      1.0000 0.53013  0.35430  0.38907  Biso   1.000  O
  O32      1.0000 0.96987  0.14570  0.88907  Biso   1.000  O
  O33      1.0000 0.66144  0.54860  0.04676  Biso   1.000  O
  O34      1.0000 0.83856  0.95140  0.54676  Biso   1.000  O
  O35      1.0000 0.33856  0.54860  0.45324  Biso   1.000  O
  O36      1.0000 0.16144  0.95140  0.95324  Biso   1.000  O
  O37      1.0000 0.33856  0.45140  0.95324  Biso   1.000  O
  O38      1.0000 0.16144  0.04860  0.45324  Biso   1.000  O
  O39      1.0000 0.66144  0.45140  0.54676  Biso   1.000  O
  O40      1.0000 0.83856  0.04860  0.04676  Biso   1.000  O
  O41      1.0000 0.78667  0.50940  0.04571  Biso   1.000  O
  O42      1.0000 0.71333  0.99060  0.54571  Biso   1.000  O
  O43      1.0000 0.21333  0.50940  0.45429  Biso   1.000  O
  O44      1.0000 0.28667  0.99060  0.95429  Biso   1.000  O
  O45      1.0000 0.21333  0.49060  0.95429  Biso   1.000  O
  O46      1.0000 0.28667  0.00940  0.45429  Biso   1.000  O
  O47      1.0000 0.78667  0.49060  0.54571  Biso   1.000  O
  O48      1.0000 0.71333  0.00940  0.04571  Biso   1.000  O
  O49      1.0000 0.24911  0.44510  0.21912  Biso   1.000  O
  O50      1.0000 0.25089  0.05490  0.71912  Biso   1.000  O
  O51      1.0000 0.75089  0.44510  0.28088  Biso   1.000  O
  O52      1.0000 0.74911  0.05490  0.78088  Biso   1.000  O
  O53      1.0000 0.75089  0.55490  0.78088  Biso   1.000  O
  O54      1.0000 0.74911  0.94510  0.28088  Biso   1.000  O
  O55      1.0000 0.24911  0.55490  0.71912  Biso   1.000  O
  O56      1.0000 0.25089  0.94510  0.21912  Biso   1.000  O
  O57      1.0000 0.36588  0.55320  0.23808  Biso   1.000  O
  O58      1.0000 0.13412  0.94680  0.73808  Biso   1.000  O
  O59      1.0000 0.63412  0.55320  0.26192  Biso   1.000  O
  O60      1.0000 0.86588  0.94680  0.76192  Biso   1.000  O
  O61      1.0000 0.63412  0.44680  0.76192  Biso   1.000  O
  O62      1.0000 0.86588  0.05320  0.26192  Biso   1.000  O
  O63      1.0000 0.36588  0.44680  0.73808  Biso   1.000  O
  O64      1.0000 0.13412  0.05320  0.23808  Biso   1.000  O
  C1       1.0000 0.39643  0.62480  0.09355  Biso   1.000  C
  C2       1.0000 0.10357  0.87520  0.59355  Biso   1.000  C
  C3       1.0000 0.60357  0.62480  0.40645  Biso   1.000  C
  C4       1.0000 0.89643  0.87520  0.90645  Biso   1.000  C
  C5       1.0000 0.60357  0.37520  0.90645  Biso   1.000  C
  C6       1.0000 0.89643  0.12480  0.40645  Biso   1.000  C
  C7       1.0000 0.39643  0.37520  0.59355  Biso   1.000  C
  C8       1.0000 0.10357  0.12480  0.09355  Biso   1.000  C
  H1       1.0000 0.39640  0.74220  0.11780  Biso   1.000  H
  H2       1.0000 0.10360  0.75780  0.61780  Biso   1.000  H
  H3       1.0000 0.60360  0.74220  0.38220  Biso   1.000  H
  H4       1.0000 0.89640  0.75780  0.88220  Biso   1.000  H
  H5       1.0000 0.60360  0.25780  0.88220  Biso   1.000  H
  H6       1.0000 0.89640  0.24220  0.38220  Biso   1.000  H
  H7       1.0000 0.39640  0.25780  0.61780  Biso   1.000  H
  H8       1.0000 0.10360  0.24220  0.11780  Biso   1.000  H
  H9       1.0000 0.39640  0.64590  0.04080  Biso   1.000  H
  H10      1.0000 0.10360  0.85410  0.54080  Biso   1.000  H
  H11      1.0000 0.60360  0.64590  0.45920  Biso   1.000  H
  H12      1.0000 0.89640  0.85410  0.95920  Biso   1.000  H
  H13      1.0000 0.60360  0.35410  0.95920  Biso   1.000  H
  H14      1.0000 0.89640  0.14590  0.45920  Biso   1.000  H
  H15      1.0000 0.39640  0.35410  0.54080  Biso   1.000  H
  H16      1.0000 0.10360  0.14590  0.04080  Biso   1.000  H
  C9       1.0000 0.32504  0.52320  0.11442  Biso   1.000  C
  C10      1.0000 0.17496  0.97680  0.61442  Biso   1.000  C
  C11      1.0000 0.67496  0.52320  0.38558  Biso   1.000  C
  C12      1.0000 0.82504  0.97680  0.88558  Biso   1.000  C
  C13      1.0000 0.67496  0.47680  0.88558  Biso   1.000  C
  C14      1.0000 0.82504  0.02320  0.38558  Biso   1.000  C
  C15      1.0000 0.32504  0.47680  0.61442  Biso   1.000  C
  C16      1.0000 0.17496  0.02320  0.11442  Biso   1.000  C
  C17      1.0000 0.72501  0.54130  0.93139  Biso   1.000  C
  C18      1.0000 0.77499  0.95870  0.43139  Biso   1.000  C
  C19      1.0000 0.27499  0.54130  0.56861  Biso   1.000  C
  C20      1.0000 0.22501  0.95870  0.06861  Biso   1.000  C
  C21      1.0000 0.27499  0.45870  0.06861  Biso   1.000  C
  C22      1.0000 0.22501  0.04130  0.56861  Biso   1.000  C
  C23      1.0000 0.72501  0.45870  0.43139  Biso   1.000  C
  C24      1.0000 0.77499  0.04130  0.93139  Biso   1.000  C
  H17      1.0000 0.23430  0.39800  0.08970  Biso   1.000  H
  H18      1.0000 0.26570  0.10200  0.58970  Biso   1.000  H
  H19      1.0000 0.76570  0.39800  0.41030  Biso   1.000  H
  H20      1.0000 0.73430  0.10200  0.91030  Biso   1.000  H
  H21      1.0000 0.76570  0.60200  0.91030  Biso   1.000  H
  H22      1.0000 0.73430  0.89800  0.41030  Biso   1.000  H
  H23      1.0000 0.23430  0.60200  0.58970  Biso   1.000  H
  H24      1.0000 0.26570  0.89800  0.08970  Biso   1.000  H
  C25      1.0000 0.72475  0.52920  0.01497  Biso   1.000  C
  C26      1.0000 0.77525  0.97080  0.51497  Biso   1.000  C
  C27      1.0000 0.27525  0.52920  0.48503  Biso   1.000  C
  C28      1.0000 0.22475  0.97080  0.98503  Biso   1.000  C
  C29      1.0000 0.27525  0.47080  0.98503  Biso   1.000  C
  C30      1.0000 0.22475  0.02920  0.48503  Biso   1.000  C
  C31      1.0000 0.72475  0.47080  0.51497  Biso   1.000  C
  C32      1.0000 0.77525  0.02920  0.01497  Biso   1.000  C
  C33      1.0000 0.46876  0.52240  0.11462  Biso   1.000  C
  C34      1.0000 0.03124  0.97760  0.61462  Biso   1.000  C
  C35      1.0000 0.53124  0.52240  0.38538  Biso   1.000  C
  C36      1.0000 0.96876  0.97760  0.88538  Biso   1.000  C
  C37      1.0000 0.53124  0.47760  0.88538  Biso   1.000  C
  C38      1.0000 0.96876  0.02240  0.38538  Biso   1.000  C
  C39      1.0000 0.46876  0.47760  0.61462  Biso   1.000  C
  C40      1.0000 0.03124  0.02240  0.11462  Biso   1.000  C
  C41      1.0000 0.31076  0.50150  0.19822  Biso   1.000  C
  C42      1.0000 0.18924  0.99850  0.69822  Biso   1.000  C
  C43      1.0000 0.68924  0.50150  0.30178  Biso   1.000  C
  C44      1.0000 0.81076  0.99850  0.80178  Biso   1.000  C
  C45      1.0000 0.68924  0.49850  0.80178  Biso   1.000  C
  C46      1.0000 0.81076  0.00150  0.30178  Biso   1.000  C
  C47      1.0000 0.31076  0.49850  0.69822  Biso   1.000  C
  C48      1.0000 0.18924  0.00150  0.19822  Biso   1.000  C
  O65      1.0000 0.56261  0.11300  0.50613  Biso   1.000  O
  O66      1.0000 0.93739  0.38700  0.00613  Biso   1.000  O
  O67      1.0000 0.43739  0.11300  0.99387  Biso   1.000  O
  O68      1.0000 0.06261  0.38700  0.49387  Biso   1.000  O
  O69      1.0000 0.43739  0.88700  0.49387  Biso   1.000  O
  O70      1.0000 0.06261  0.61300  0.99387  Biso   1.000  O
  O71      1.0000 0.56261  0.88700  0.00613  Biso   1.000  O
  O72      1.0000 0.93739  0.61300  0.50613  Biso   1.000  O
  O73      1.0000 0.50000  0.85860  0.25000  Biso   1.000  O
  O74      1.0000 0.00000  0.64140  0.75000  Biso   1.000  O
  O75      1.0000 0.50000  0.14140  0.75000  Biso   1.000  O
  O76      1.0000 0.00000  0.35860  0.25000  Biso   1.000  O
  O77      1.0000 0.89069  0.59620  0.30758  Biso   1.000  O
  O78      1.0000 0.60931  0.90380  0.80758  Biso   1.000  O
  O79      1.0000 0.10931  0.59620  0.19242  Biso   1.000  O
  O80      1.0000 0.39069  0.90380  0.69242  Biso   1.000  O
  O81      1.0000 0.10931  0.40380  0.69242  Biso   1.000  O
  O82      1.0000 0.39069  0.09620  0.19242  Biso   1.000  O
  O83      1.0000 0.89069  0.40380  0.80758  Biso   1.000  O
  O84      1.0000 0.60931  0.09620  0.30758  Biso   1.000  O
