data_image0
_cell_length_a       8.868
_cell_length_b       9.344
_cell_length_c       10.907
_cell_angle_alpha    80.08
_cell_angle_beta     67.62
_cell_angle_gamma    74.18

_symmetry_space_group_name_H-M    "P 1"
_symmetry_int_tables_number       1

loop_
  _symmetry_equiv_pos_as_xyz
  'x, y, z'

loop_
  _atom_site_label
  _atom_site_occupancy
  _atom_site_fract_x
  _atom_site_fract_y
  _atom_site_fract_z
  _atom_site_thermal_displace_type
  _atom_site_B_iso_or_equiv
  _atom_site_type_symbol
  Cu1      1.0000 0.89678  0.22787  0.47834  Biso   1.000  Cu
  Cu2      1.0000 0.10322  0.77213  0.52166  Biso   1.000  Cu
  O1       1.0000 0.03880  0.08550  0.33990  Biso   1.000  O
  O2       1.0000 0.96120  0.91450  0.66010  Biso   1.000  O
  O3       1.0000 0.70100  0.17650  0.47853  Biso   1.000  O
  O4       1.0000 0.29900  0.82350  0.52147  Biso   1.000  O
  O5       1.0000 0.65210  0.04850  0.67840  Biso   1.000  O
  O6       1.0000 0.34790  0.95150  0.32160  Biso   1.000  O
  O7       1.0000 0.10230  0.26570  0.47664  Biso   1.000  O
  O8       1.0000 0.89770  0.73430  0.52336  Biso   1.000  O
  O9       1.0000 0.08390  0.14010  0.67240  Biso   1.000  O
  O10      1.0000 0.91610  0.85990  0.32760  Biso   1.000  O
  O11      1.0000 0.19540  0.52280  0.61200  Biso   1.000  O
  O12      1.0000 0.80460  0.47720  0.38800  Biso   1.000  O
  O13      1.0000 0.24920  0.61190  0.40172  Biso   1.000  O
  O14      1.0000 0.75080  0.38810  0.59828  Biso   1.000  O
  C1       1.0000 0.60200  0.11930  0.58580  Biso   1.000  C
  C2       1.0000 0.39800  0.88070  0.41420  Biso   1.000  C
  C3       1.0000 0.42760  0.12620  0.60040  Biso   1.000  C
  C4       1.0000 0.57240  0.87380  0.39960  Biso   1.000  C
  H1       1.0000 0.37730  0.05240  0.65680  Biso   1.000  H
  H2       1.0000 0.62270  0.94760  0.34320  Biso   1.000  H
  C5       1.0000 0.33700  0.22680  0.54110  Biso   1.000  C
  C6       1.0000 0.66300  0.77320  0.45890  Biso   1.000  C
  C7       1.0000 0.15760  0.21180  0.56800  Biso   1.000  C
  C8       1.0000 0.84240  0.78820  0.43200  Biso   1.000  C
  C9       1.0000 0.38840  0.35620  0.44260  Biso   1.000  C
  C10      1.0000 0.61160  0.64380  0.55740  Biso   1.000  C
  H3       1.0000 0.50130  0.35920  0.43160  Biso   1.000  H
  H4       1.0000 0.49870  0.64080  0.56840  Biso   1.000  H
  H5       1.0000 0.38770  0.34180  0.35680  Biso   1.000  H
  H6       1.0000 0.61230  0.65820  0.64320  Biso   1.000  H
  C11      1.0000 0.27060  0.50110  0.49040  Biso   1.000  C
  C12      1.0000 0.72940  0.49890  0.50960  Biso   1.000  C
  C13      1.0000 0.82780  0.63460  0.89820  Biso   1.000  C
  C14      1.0000 0.17220  0.36540  0.10180  Biso   1.000  C
  H7       1.0000 0.86640  0.71540  0.84450  Biso   1.000  H
  H8       1.0000 0.13360  0.28460  0.15550  Biso   1.000  H
  C15      1.0000 0.79840  0.52610  0.84300  Biso   1.000  C
  C16      1.0000 0.20160  0.47390  0.15700  Biso   1.000  C
  H9       1.0000 0.81730  0.53420  0.75240  Biso   1.000  H
  H10      1.0000 0.18270  0.46580  0.24760  Biso   1.000  H
  C17      1.0000 0.74080  0.40540  0.92320  Biso   1.000  C
  C18      1.0000 0.25920  0.59460  0.07680  Biso   1.000  C
  C19      1.0000 0.71250  0.39330  0.05860  Biso   1.000  C
  C20      1.0000 0.28750  0.60670  0.94140  Biso   1.000  C
  H11      1.0000 0.67390  0.31250  0.11230  Biso   1.000  H
  H12      1.0000 0.32610  0.68750  0.88770  Biso   1.000  H
  C21      1.0000 0.74190  0.50180  0.11380  Biso   1.000  C
  C22      1.0000 0.25810  0.49820  0.88620  Biso   1.000  C
  H13      1.0000 0.72300  0.49360  0.20440  Biso   1.000  H
  H14      1.0000 0.27700  0.50640  0.79560  Biso   1.000  H
  N1       1.0000 0.79950  0.62250  0.03360  Biso   1.000  N
  N2       1.0000 0.20050  0.37750  0.96640  Biso   1.000  N
  H15      1.0000 0.81770  0.68960  0.06770  Biso   1.000  H
  H16      1.0000 0.18230  0.31040  0.93230  Biso   1.000  H
  N3       1.0000 0.69480  0.31690  0.88230  Biso   1.000  N
  N4       1.0000 0.30520  0.68310  0.11770  Biso   1.000  N
  H17      1.0000 0.69750  0.32840  0.80160  Biso   1.000  H
  H18      1.0000 0.30250  0.67160  0.19840  Biso   1.000  H
  H19      1.0000 0.65970  0.24330  0.93420  Biso   1.000  H
  H20      1.0000 0.34030  0.75670  0.06580  Biso   1.000  H
  O15      1.0000 0.43620  0.94910  0.92080  Biso   1.000  O
  O16      1.0000 0.56380  0.05090  0.07920  Biso   1.000  O
  O17      1.0000 0.11400  0.09200  0.91900  Biso   1.000  O
  O18      1.0000 0.88600  0.90800  0.08100  Biso   1.000  O
