data_image0
_cell_length_a       9.574
_cell_length_b       12.659
_cell_length_c       14.663
_cell_angle_alpha    100.376
_cell_angle_beta     106.424
_cell_angle_gamma    93.575

_symmetry_space_group_name_H-M    "P 1"
_symmetry_int_tables_number       1

loop_
  _symmetry_equiv_pos_as_xyz
  'x, y, z'

loop_
  _atom_site_label
  _atom_site_occupancy
  _atom_site_fract_x
  _atom_site_fract_y
  _atom_site_fract_z
  _atom_site_thermal_displace_type
  _atom_site_B_iso_or_equiv
  _atom_site_type_symbol
  Cu1      1.0000 0.70632  0.25092  0.62277  Biso   1.000  Cu
  Cu2      1.0000 0.29368  0.74908  0.37723  Biso   1.000  Cu
  Cu3      1.0000 0.76643  0.27066  0.86927  Biso   1.000  Cu
  Cu4      1.0000 0.23357  0.72934  0.13073  Biso   1.000  Cu
  O1       1.0000 0.92110  0.43680  0.65640  Biso   1.000  O
  O2       1.0000 0.07890  0.56320  0.34360  Biso   1.000  O
  O3       1.0000 0.82611  0.34629  0.74493  Biso   1.000  O
  O4       1.0000 0.17389  0.65371  0.25507  Biso   1.000  O
  O5       1.0000 0.10074  0.64138  0.00955  Biso   1.000  O
  O6       1.0000 0.89926  0.35862  0.99045  Biso   1.000  O
  O7       1.0000 0.16357  0.76745  0.93586  Biso   1.000  O
  O8       1.0000 0.83643  0.23255  0.06414  Biso   1.000  O
  O9       1.0000 0.21929  0.64806  0.73624  Biso   1.000  O
  O10      1.0000 0.78071  0.35194  0.26376  Biso   1.000  O
  O11      1.0000 0.06951  0.72984  0.63458  Biso   1.000  O
  O12      1.0000 0.93049  0.27016  0.36542  Biso   1.000  O
  H1       1.0000 0.14070  0.73570  0.61440  Biso   1.000  H
  H2       1.0000 0.85930  0.26430  0.38560  Biso   1.000  H
  C1       1.0000 0.90750  0.42677  0.73448  Biso   1.000  C
  C2       1.0000 0.09250  0.57323  0.26552  Biso   1.000  C
  C3       1.0000 0.98440  0.50582  0.82910  Biso   1.000  C
  C4       1.0000 0.01560  0.49418  0.17090  Biso   1.000  C
  H3       1.0000 0.01110  0.47920  0.88590  Biso   1.000  H
  H4       1.0000 0.98890  0.52080  0.11410  Biso   1.000  H
  C5       1.0000 0.01530  0.60959  0.83507  Biso   1.000  C
  C6       1.0000 0.98470  0.39041  0.16493  Biso   1.000  C
  C7       1.0000 0.10050  0.67994  0.93308  Biso   1.000  C
  C8       1.0000 0.89950  0.32006  0.06692  Biso   1.000  C
  C9       1.0000 0.97800  0.66589  0.74964  Biso   1.000  C
  C10      1.0000 0.02200  0.33411  0.25036  Biso   1.000  C
  H5       1.0000 0.95100  0.73680  0.77060  Biso   1.000  H
  H6       1.0000 0.04900  0.26320  0.22940  Biso   1.000  H
  H7       1.0000 0.89380  0.62450  0.69920  Biso   1.000  H
  H8       1.0000 0.10620  0.37550  0.30080  Biso   1.000  H
  C11      1.0000 0.10160  0.67849  0.70843  Biso   1.000  C
  C12      1.0000 0.89840  0.32151  0.29157  Biso   1.000  C
  O13      1.0000 0.52160  0.09561  0.83277  Biso   1.000  O
  O14      1.0000 0.47840  0.90439  0.16723  Biso   1.000  O
  O15      1.0000 0.63510  0.17698  0.74711  Biso   1.000  O
  O16      1.0000 0.36490  0.82302  0.25289  Biso   1.000  O
  O17      1.0000 0.28701  0.75737  0.55868  Biso   1.000  O
  O18      1.0000 0.71299  0.24263  0.44132  Biso   1.000  O
  O19      1.0000 0.41169  0.85781  0.49257  Biso   1.000  O
  O20      1.0000 0.58831  0.14219  0.50743  Biso   1.000  O
  O21      1.0000 0.68830  0.81671  0.73678  Biso   1.000  O
  O22      1.0000 0.31170  0.18329  0.26322  Biso   1.000  O
  O23      1.0000 0.64680  0.81477  0.87623  Biso   1.000  O
  O24      1.0000 0.35320  0.18523  0.12377  Biso   1.000  O
  H9       1.0000 0.57960  0.82680  0.89950  Biso   1.000  H
  H10      1.0000 0.42040  0.17320  0.10050  Biso   1.000  H
  C13      1.0000 0.54790  0.10076  0.75561  Biso   1.000  C
  C14      1.0000 0.45210  0.89924  0.24439  Biso   1.000  C
  C15      1.0000 0.47960  0.01597  0.66479  Biso   1.000  C
  C16      1.0000 0.52040  0.98403  0.33521  Biso   1.000  C
  H11      1.0000 0.46290  0.03730  0.60560  Biso   1.000  H
  H12      1.0000 0.53710  0.96270  0.39440  Biso   1.000  H
  C17      1.0000 0.44170  0.91359  0.66292  Biso   1.000  C
  C18      1.0000 0.55830  0.08641  0.33708  Biso   1.000  C
  C19      1.0000 0.37550  0.83686  0.56487  Biso   1.000  C
  C20      1.0000 0.62450  0.16314  0.43513  Biso   1.000  C
  C21      1.0000 0.45890  0.86414  0.75111  Biso   1.000  C
  C22      1.0000 0.54110  0.13586  0.24889  Biso   1.000  C
  H13      1.0000 0.44240  0.91640  0.80300  Biso   1.000  H
  H14      1.0000 0.55760  0.08360  0.19700  Biso   1.000  H
  H15      1.0000 0.38560  0.80180  0.73530  Biso   1.000  H
  H16      1.0000 0.61440  0.19820  0.26470  Biso   1.000  H
  C23      1.0000 0.60880  0.82980  0.78537  Biso   1.000  C
  C24      1.0000 0.39120  0.17020  0.21463  Biso   1.000  C
  N1       1.0000 0.53952  0.34730  0.60211  Biso   1.000  N
  N2       1.0000 0.46048  0.65270  0.39789  Biso   1.000  N
  C25      1.0000 0.40410  0.30500  0.55167  Biso   1.000  C
  C26      1.0000 0.59590  0.69500  0.44833  Biso   1.000  C
  H17      1.0000 0.38600  0.23040  0.52940  Biso   1.000  H
  H18      1.0000 0.61400  0.76960  0.47060  Biso   1.000  H
  C27      1.0000 0.28720  0.36480  0.52980  Biso   1.000  C
  C28      1.0000 0.71280  0.63520  0.47020  Biso   1.000  C
  H19      1.0000 0.19390  0.33130  0.49330  Biso   1.000  H
  H20      1.0000 0.80610  0.66870  0.50670  Biso   1.000  H
  C29      1.0000 0.31260  0.47420  0.56320  Biso   1.000  C
  C30      1.0000 0.68740  0.52580  0.43680  Biso   1.000  C
  H21      1.0000 0.23650  0.51670  0.54970  Biso   1.000  H
  H22      1.0000 0.76350  0.48330  0.45030  Biso   1.000  H
  C31      1.0000 0.45040  0.52040  0.61660  Biso   1.000  C
  C32      1.0000 0.54960  0.47960  0.38340  Biso   1.000  C
  H23      1.0000 0.47060  0.59470  0.64030  Biso   1.000  H
  H24      1.0000 0.52940  0.40530  0.35970  Biso   1.000  H
  C33      1.0000 0.55960  0.45360  0.63438  Biso   1.000  C
  C34      1.0000 0.44040  0.54640  0.36562  Biso   1.000  C
  H25      1.0000 0.65350  0.48540  0.67150  Biso   1.000  H
  H26      1.0000 0.34650  0.51460  0.32850  Biso   1.000  H
  N3       1.0000 0.86716  0.15330  0.62663  Biso   1.000  N
  N4       1.0000 0.13284  0.84670  0.37337  Biso   1.000  N
  C35      1.0000 0.84310  0.04902  0.63139  Biso   1.000  C
  C36      1.0000 0.15690  0.95098  0.36861  Biso   1.000  C
  H27      1.0000 0.75120  0.02340  0.63370  Biso   1.000  H
  H28      1.0000 0.24880  0.97660  0.36630  Biso   1.000  H
  C37      1.0000 0.94630  0.97780  0.63307  Biso   1.000  C
  C38      1.0000 0.05370  0.02220  0.36693  Biso   1.000  C
  H29      1.0000 0.92540  0.90660  0.63760  Biso   1.000  H
  H30      1.0000 0.07460  0.09340  0.36240  Biso   1.000  H
  C39      1.0000 0.08000  0.01490  0.62795  Biso   1.000  C
  C40      1.0000 0.92000  0.98510  0.37205  Biso   1.000  C
  H31      1.0000 0.15180  0.96870  0.62820  Biso   1.000  H
  H32      1.0000 0.84820  0.03130  0.37180  Biso   1.000  H
  C41      1.0000 0.10810  0.12060  0.62249  Biso   1.000  C
  C42      1.0000 0.89190  0.87940  0.37751  Biso   1.000  C
  H33      1.0000 0.19940  0.14690  0.61980  Biso   1.000  H
  H34      1.0000 0.80060  0.85310  0.38020  Biso   1.000  H
  C43      1.0000 0.99840  0.18880  0.62095  Biso   1.000  C
  C44      1.0000 0.00160  0.81120  0.37905  Biso   1.000  C
  H35      1.0000 0.01700  0.26020  0.61590  Biso   1.000  H
  H36      1.0000 0.98300  0.73980  0.38410  Biso   1.000  H
  N5       1.0000 0.91726  0.16608  0.87305  Biso   1.000  N
  N6       1.0000 0.08274  0.83392  0.12695  Biso   1.000  N
  C45      1.0000 0.05240  0.20030  0.87561  Biso   1.000  C
  C46      1.0000 0.94760  0.79970  0.12439  Biso   1.000  C
  H37      1.0000 0.07350  0.27180  0.87160  Biso   1.000  H
  H38      1.0000 0.92650  0.72820  0.12840  Biso   1.000  H
  C47      1.0000 0.16380  0.13400  0.88405  Biso   1.000  C
  C48      1.0000 0.83620  0.86600  0.11595  Biso   1.000  C
  H39      1.0000 0.25770  0.16100  0.88640  Biso   1.000  H
  H40      1.0000 0.74230  0.83900  0.11360  Biso   1.000  H
  C49      1.0000 0.13350  0.02810  0.88881  Biso   1.000  C
  C50      1.0000 0.86650  0.97190  0.11119  Biso   1.000  C
  H41      1.0000 0.20510  0.98130  0.89260  Biso   1.000  H
  H42      1.0000 0.79490  0.01870  0.10740  Biso   1.000  H
  C51      1.0000 0.99610  0.99360  0.88783  Biso   1.000  C
  C52      1.0000 0.00390  0.00640  0.11217  Biso   1.000  C
  H43      1.0000 0.97270  0.92280  0.89250  Biso   1.000  H
  H44      1.0000 0.02730  0.07720  0.10750  Biso   1.000  H
  C53      1.0000 0.89200  0.06347  0.87990  Biso   1.000  C
  C54      1.0000 0.10800  0.93653  0.12010  Biso   1.000  C
  H45      1.0000 0.79850  0.03800  0.87920  Biso   1.000  H
  H46      1.0000 0.20150  0.96200  0.12080  Biso   1.000  H
  N7       1.0000 0.61942  0.37925  0.87339  Biso   1.000  N
  N8       1.0000 0.38058  0.62075  0.12661  Biso   1.000  N
  C55      1.0000 0.66740  0.48289  0.91041  Biso   1.000  C
  C56      1.0000 0.33260  0.51711  0.08959  Biso   1.000  C
  H47      1.0000 0.76800  0.50240  0.93760  Biso   1.000  H
  H48      1.0000 0.23200  0.49760  0.06240  Biso   1.000  H
  C57      1.0000 0.57840  0.56270  0.91110  Biso   1.000  C
  C58      1.0000 0.42160  0.43730  0.08890  Biso   1.000  C
  H49      1.0000 0.61810  0.63430  0.93830  Biso   1.000  H
  H50      1.0000 0.38190  0.36570  0.06170  Biso   1.000  H
  C59      1.0000 0.43130  0.53690  0.87170  Biso   1.000  C
  C60      1.0000 0.56870  0.46310  0.12830  Biso   1.000  C
  H51      1.0000 0.36860  0.59010  0.87160  Biso   1.000  H
  H52      1.0000 0.63140  0.40990  0.12840  Biso   1.000  H
  C61      1.0000 0.37820  0.43290  0.83290  Biso   1.000  C
  C62      1.0000 0.62180  0.56710  0.16710  Biso   1.000  C
  H53      1.0000 0.27790  0.41360  0.80400  Biso   1.000  H
  H54      1.0000 0.72210  0.58640  0.19600  Biso   1.000  H
  C63      1.0000 0.47380  0.35350  0.83607  Biso   1.000  C
  C64      1.0000 0.52620  0.64650  0.16393  Biso   1.000  C
  H55      1.0000 0.43550  0.28120  0.81170  Biso   1.000  H
  H56      1.0000 0.56450  0.71880  0.18830  Biso   1.000  H
  O25      1.0000 0.55088  0.15113  0.03178  Biso   1.000  O
  O26      1.0000 0.44912  0.84887  0.96822  Biso   1.000  O
  H57      1.0000 0.54160  0.12650  0.96430  Biso   1.000  H
  H58      1.0000 0.45840  0.87350  0.03570  Biso   1.000  H
  H59      1.0000 0.64820  0.18850  0.05120  Biso   1.000  H
  H60      1.0000 0.35180  0.81150  0.94880  Biso   1.000  H
