data_image0
_cell_length_a       8.751
_cell_length_b       12.731
_cell_length_c       13.573
_cell_angle_alpha    116.388
_cell_angle_beta     92.26
_cell_angle_gamma    102.76

_symmetry_space_group_name_H-M    "P 1"
_symmetry_int_tables_number       1

loop_
  _symmetry_equiv_pos_as_xyz
  'x, y, z'

loop_
  _atom_site_label
  _atom_site_occupancy
  _atom_site_fract_x
  _atom_site_fract_y
  _atom_site_fract_z
  _atom_site_thermal_displace_type
  _atom_site_B_iso_or_equiv
  _atom_site_type_symbol
  Cu1      1.0000 0.90477  0.32248  0.32486  Biso   1.000  Cu
  Cu2      1.0000 0.09523  0.67752  0.67514  Biso   1.000  Cu
  Cu3      1.0000 0.11448  0.22620  0.11090  Biso   1.000  Cu
  Cu4      1.0000 0.88552  0.77380  0.88910  Biso   1.000  Cu
  Cu5      1.0000 0.50000  0.00000  0.50000  Biso   1.000  Cu
  O1       1.0000 0.96000  0.49682  0.36657  Biso   1.000  O
  O2       1.0000 0.04000  0.50318  0.63343  Biso   1.000  O
  O3       1.0000 0.86364  0.15744  0.31342  Biso   1.000  O
  O4       1.0000 0.13636  0.84256  0.68658  Biso   1.000  O
  O5       1.0000 0.05531  0.07655  0.12948  Biso   1.000  O
  O6       1.0000 0.94469  0.92345  0.87052  Biso   1.000  O
  O7       1.0000 0.85073  0.12839  0.95321  Biso   1.000  O
  O8       1.0000 0.14927  0.87161  0.04679  Biso   1.000  O
  O9       1.0000 0.89590  0.24277  0.13275  Biso   1.000  O
  O10      1.0000 0.10410  0.75723  0.86725  Biso   1.000  O
  O11      1.0000 0.23510  0.06110  0.91876  Biso   1.000  O
  O12      1.0000 0.76490  0.93890  0.08124  Biso   1.000  O
  O13      1.0000 0.32815  0.20487  0.09374  Biso   1.000  O
  O14      1.0000 0.67185  0.79513  0.90626  Biso   1.000  O
  O15      1.0000 0.39691  0.99839  0.67896  Biso   1.000  O
  O16      1.0000 0.60309  0.00161  0.32104  Biso   1.000  O
  O17      1.0000 0.51807  0.18402  0.80728  Biso   1.000  O
  O18      1.0000 0.48193  0.81598  0.19272  Biso   1.000  O
  H1       1.0000 0.48370  0.20080  0.76060  Biso   1.000  H
  H2       1.0000 0.51630  0.79920  0.23940  Biso   1.000  H
  C1       1.0000 0.80316  0.18252  0.04022  Biso   1.000  C
  C2       1.0000 0.19684  0.81748  0.95978  Biso   1.000  C
  C3       1.0000 0.62810  0.18408  0.05149  Biso   1.000  C
  C4       1.0000 0.37190  0.81592  0.94851  Biso   1.000  C
  H3       1.0000 0.60690  0.23600  0.12040  Biso   1.000  H
  H4       1.0000 0.39310  0.76400  0.87960  Biso   1.000  H
  C5       1.0000 0.51033  0.11873  0.97242  Biso   1.000  C
  C6       1.0000 0.48967  0.88127  0.02758  Biso   1.000  C
  C7       1.0000 0.34304  0.12748  0.99481  Biso   1.000  C
  C8       1.0000 0.65696  0.87252  0.00519  Biso   1.000  C
  C9       1.0000 0.51880  0.03072  0.85213  Biso   1.000  C
  C10      1.0000 0.48120  0.96928  0.14787  Biso   1.000  C
  H5       1.0000 0.62680  0.02420  0.84640  Biso   1.000  H
  H6       1.0000 0.37320  0.97580  0.15360  Biso   1.000  H
  H7       1.0000 0.45130  0.95070  0.83290  Biso   1.000  H
  H8       1.0000 0.54870  0.04930  0.16710  Biso   1.000  H
  C11      1.0000 0.46937  0.07004  0.77333  Biso   1.000  C
  C12      1.0000 0.53063  0.92996  0.22667  Biso   1.000  C
  O19      1.0000 0.15326  0.33531  0.47254  Biso   1.000  O
  O20      1.0000 0.84674  0.66469  0.52746  Biso   1.000  O
  O21      1.0000 0.12931  0.32679  0.30810  Biso   1.000  O
  O22      1.0000 0.87069  0.67321  0.69190  Biso   1.000  O
  O23      1.0000 0.76101  0.37231  0.51153  Biso   1.000  O
  O24      1.0000 0.23899  0.62769  0.48847  Biso   1.000  O
  O25      1.0000 0.68482  0.31965  0.33618  Biso   1.000  O
  O26      1.0000 0.31518  0.68035  0.66382  Biso   1.000  O
  O27      1.0000 0.50010  0.16381  0.52335  Biso   1.000  O
  O28      1.0000 0.49990  0.83619  0.47665  Biso   1.000  O
  O29      1.0000 0.44140  0.27407  0.69086  Biso   1.000  O
  O30      1.0000 0.55860  0.72593  0.30914  Biso   1.000  O
  C13      1.0000 0.21153  0.33000  0.38794  Biso   1.000  C
  C14      1.0000 0.78847  0.67000  0.61206  Biso   1.000  C
  C15      1.0000 0.37974  0.32741  0.37866  Biso   1.000  C
  C16      1.0000 0.62026  0.67259  0.62134  Biso   1.000  C
  H9       1.0000 0.41130  0.31450  0.31050  Biso   1.000  H
  H10      1.0000 0.58870  0.68550  0.68950  Biso   1.000  H
  C17      1.0000 0.48947  0.34153  0.45692  Biso   1.000  C
  C18      1.0000 0.51053  0.65847  0.54308  Biso   1.000  C
  C19      1.0000 0.65590  0.34264  0.43278  Biso   1.000  C
  C20      1.0000 0.34410  0.65736  0.56722  Biso   1.000  C
  C21      1.0000 0.46480  0.36216  0.57394  Biso   1.000  C
  C22      1.0000 0.53520  0.63784  0.42606  Biso   1.000  C
  H11      1.0000 0.54540  0.43380  0.62710  Biso   1.000  H
  H12      1.0000 0.45460  0.56620  0.37290  Biso   1.000  H
  H13      1.0000 0.36250  0.37880  0.58660  Biso   1.000  H
  H14      1.0000 0.63750  0.62120  0.41340  Biso   1.000  H
  C23      1.0000 0.47140  0.25741  0.59633  Biso   1.000  C
  C24      1.0000 0.52860  0.74259  0.40367  Biso   1.000  C
  N1       1.0000 0.16465  0.36446  0.07319  Biso   1.000  N
  N2       1.0000 0.83535  0.63554  0.92681  Biso   1.000  N
  C25      1.0000 0.15330  0.47379  0.14148  Biso   1.000  C
  C26      1.0000 0.84670  0.52621  0.85852  Biso   1.000  C
  H15      1.0000 0.11700  0.48630  0.20830  Biso   1.000  H
  H16      1.0000 0.88300  0.51370  0.79170  Biso   1.000  H
  C27      1.0000 0.19250  0.57062  0.11870  Biso   1.000  C
  C28      1.0000 0.80750  0.42938  0.88130  Biso   1.000  C
  H17      1.0000 0.18170  0.64650  0.16860  Biso   1.000  H
  H18      1.0000 0.81830  0.35350  0.83140  Biso   1.000  H
  C29      1.0000 0.24720  0.55319  0.02210  Biso   1.000  C
  C30      1.0000 0.75280  0.44681  0.97790  Biso   1.000  C
  H19      1.0000 0.27830  0.61740  0.00540  Biso   1.000  H
  H20      1.0000 0.72170  0.38260  0.99460  Biso   1.000  H
  C31      1.0000 0.25570  0.44070  0.95080  Biso   1.000  C
  C32      1.0000 0.74430  0.55930  0.04920  Biso   1.000  C
  H21      1.0000 0.28720  0.42500  0.88200  Biso   1.000  H
  H22      1.0000 0.71280  0.57500  0.11800  Biso   1.000  H
  C33      1.0000 0.21710  0.34918  0.98081  Biso   1.000  C
  C34      1.0000 0.78290  0.65082  0.01919  Biso   1.000  C
  H23      1.0000 0.22910  0.27300  0.93280  Biso   1.000  H
  H24      1.0000 0.77090  0.72700  0.06720  Biso   1.000  H
  N3       1.0000 0.72520  0.06133  0.57604  Biso   1.000  N
  N4       1.0000 0.27480  0.93867  0.42396  Biso   1.000  N
  C35      1.0000 0.78080  0.00894  0.62997  Biso   1.000  C
  C36      1.0000 0.21920  0.99106  0.37003  Biso   1.000  C
  H25      1.0000 0.71120  0.94530  0.63490  Biso   1.000  H
  H26      1.0000 0.28880  0.05470  0.36510  Biso   1.000  H
  C37      1.0000 0.93840  0.04492  0.67936  Biso   1.000  C
  C38      1.0000 0.06160  0.95508  0.32064  Biso   1.000  C
  H27      1.0000 0.97100  0.01010  0.72100  Biso   1.000  H
  H28      1.0000 0.02900  0.98990  0.27900  Biso   1.000  H
  C39      1.0000 0.04580  0.13287  0.66579  Biso   1.000  C
  C40      1.0000 0.95420  0.86713  0.33421  Biso   1.000  C
  H29      1.0000 0.15340  0.15380  0.69240  Biso   1.000  H
  H30      1.0000 0.84660  0.84620  0.30760  Biso   1.000  H
  C41      1.0000 0.98920  0.18757  0.61240  Biso   1.000  C
  C42      1.0000 0.01080  0.81243  0.38760  Biso   1.000  C
  H31      1.0000 0.05690  0.25070  0.60560  Biso   1.000  H
  H32      1.0000 0.94310  0.74930  0.39440  Biso   1.000  H
  C43      1.0000 0.82720  0.14854  0.56705  Biso   1.000  C
  C44      1.0000 0.17280  0.85146  0.43295  Biso   1.000  C
  H33      1.0000 0.79060  0.18590  0.52920  Biso   1.000  H
  H34      1.0000 0.20940  0.81410  0.47080  Biso   1.000  H
