data_image0
_cell_length_a       8.6999
_cell_length_b       9.753
_cell_length_c       15.808
_cell_angle_alpha    85.03
_cell_angle_beta     74.09
_cell_angle_gamma    74.39

_symmetry_space_group_name_H-M    "P 1"
_symmetry_int_tables_number       1

loop_
  _symmetry_equiv_pos_as_xyz
  'x, y, z'

loop_
  _atom_site_label
  _atom_site_occupancy
  _atom_site_fract_x
  _atom_site_fract_y
  _atom_site_fract_z
  _atom_site_thermal_displace_type
  _atom_site_B_iso_or_equiv
  _atom_site_type_symbol
  Cu1      1.0000 0.50000  0.50000  0.00000  Biso   1.000  Cu
  Cu2      1.0000 0.12540  0.43174  0.57207  Biso   1.000  Cu
  Cu3      1.0000 0.87460  0.56826  0.42793  Biso   1.000  Cu
  O1       1.0000 0.89130  0.27070  0.67022  Biso   1.000  O
  O2       1.0000 0.10870  0.72930  0.32978  Biso   1.000  O
  O3       1.0000 0.91211  0.41781  0.55776  Biso   1.000  O
  O4       1.0000 0.08789  0.58219  0.44224  Biso   1.000  O
  O5       1.0000 0.27711  0.29706  0.69641  Biso   1.000  O
  O6       1.0000 0.72289  0.70294  0.30359  Biso   1.000  O
  O7       1.0000 0.33954  0.44255  0.58513  Biso   1.000  O
  O8       1.0000 0.66046  0.55745  0.41487  Biso   1.000  O
  O9       1.0000 0.47920  0.53914  0.79947  Biso   1.000  O
  O10      1.0000 0.52080  0.46086  0.20053  Biso   1.000  O
  O11      1.0000 0.53996  0.37819  0.90055  Biso   1.000  O
  O12      1.0000 0.46004  0.62181  0.09945  Biso   1.000  O
  C1       1.0000 0.83530  0.34380  0.61460  Biso   1.000  C
  C2       1.0000 0.16470  0.65620  0.38540  Biso   1.000  C
  C3       1.0000 0.65850  0.35700  0.60644  Biso   1.000  C
  C4       1.0000 0.34150  0.64300  0.39356  Biso   1.000  C
  H1       1.0000 0.63900  0.37880  0.55120  Biso   1.000  H
  H2       1.0000 0.36100  0.62120  0.44880  Biso   1.000  H
  C5       1.0000 0.53700  0.34000  0.67040  Biso   1.000  C
  C6       1.0000 0.46300  0.66000  0.32960  Biso   1.000  C
  C7       1.0000 0.37230  0.36280  0.64822  Biso   1.000  C
  C8       1.0000 0.62770  0.63720  0.35178  Biso   1.000  C
  C9       1.0000 0.54910  0.29520  0.76434  Biso   1.000  C
  C10      1.0000 0.45090  0.70480  0.23566  Biso   1.000  C
  H3       1.0000 0.46920  0.24030  0.79000  Biso   1.000  H
  H4       1.0000 0.53080  0.75970  0.21000  Biso   1.000  H
  H5       1.0000 0.65820  0.23310  0.76130  Biso   1.000  H
  H6       1.0000 0.34180  0.76690  0.23870  Biso   1.000  H
  C11      1.0000 0.51950  0.41650  0.82455  Biso   1.000  C
  C12      1.0000 0.48050  0.58350  0.17545  Biso   1.000  C
  N1       1.0000 0.72460  0.53630  0.95350  Biso   1.000  N
  N2       1.0000 0.27540  0.46370  0.04650  Biso   1.000  N
  C13      1.0000 0.75490  0.65660  0.96715  Biso   1.000  C
  C14      1.0000 0.24510  0.34340  0.03285  Biso   1.000  C
  H7       1.0000 0.66740  0.72490  0.00010  Biso   1.000  H
  H8       1.0000 0.33260  0.27510  0.99990  Biso   1.000  H
  C15      1.0000 0.90350  0.69000  0.93730  Biso   1.000  C
  C16      1.0000 0.09650  0.31000  0.06270  Biso   1.000  C
  H9       1.0000 0.91820  0.77690  0.94870  Biso   1.000  H
  H10      1.0000 0.08180  0.22310  0.05130  Biso   1.000  H
  C17      1.0000 0.02960  0.58610  0.88919  Biso   1.000  C
  C18      1.0000 0.97040  0.41390  0.11081  Biso   1.000  C
  H11      1.0000 0.13410  0.60250  0.86800  Biso   1.000  H
  H12      1.0000 0.86590  0.39750  0.13200  Biso   1.000  H
  C19      1.0000 0.00660  0.45940  0.87152  Biso   1.000  C
  C20      1.0000 0.99340  0.54060  0.12848  Biso   1.000  C
  H13      1.0000 0.09140  0.38960  0.83810  Biso   1.000  H
  H14      1.0000 0.90860  0.61040  0.16190  Biso   1.000  H
  C21      1.0000 0.85410  0.44230  0.90540  Biso   1.000  C
  C22      1.0000 0.14590  0.55770  0.09460  Biso   1.000  C
  H15      1.0000 0.83660  0.35640  0.89440  Biso   1.000  H
  H16      1.0000 0.16340  0.64360  0.10560  Biso   1.000  H
  N3       1.0000 0.25308  0.25970  0.49516  Biso   1.000  N
  N4       1.0000 0.74692  0.74030  0.50484  Biso   1.000  N
  C23      1.0000 0.39450  0.26440  0.43518  Biso   1.000  C
  C24      1.0000 0.60550  0.73560  0.56482  Biso   1.000  C
  H17      1.0000 0.43030  0.34720  0.42920  Biso   1.000  H
  H18      1.0000 0.56970  0.65280  0.57080  Biso   1.000  H
  C25      1.0000 0.48760  0.15180  0.38268  Biso   1.000  C
  C26      1.0000 0.51240  0.84820  0.61732  Biso   1.000  C
  H19      1.0000 0.58390  0.15790  0.34050  Biso   1.000  H
  H20      1.0000 0.41610  0.84210  0.65950  Biso   1.000  H
  C27      1.0000 0.43420  0.02750  0.39406  Biso   1.000  C
  C28      1.0000 0.56580  0.97250  0.60594  Biso   1.000  C
  H21      1.0000 0.49570  0.94910  0.35930  Biso   1.000  H
  H22      1.0000 0.50430  0.05090  0.64070  Biso   1.000  H
  C29      1.0000 0.29600  0.02040  0.45429  Biso   1.000  C
  C30      1.0000 0.70400  0.97960  0.54571  Biso   1.000  C
  H23      1.0000 0.26060  0.93720  0.46230  Biso   1.000  H
  H24      1.0000 0.73940  0.06280  0.53770  Biso   1.000  H
  C31      1.0000 0.20670  0.13670  0.50422  Biso   1.000  C
  C32      1.0000 0.79330  0.86330  0.49578  Biso   1.000  C
  H25      1.0000 0.11000  0.13100  0.54620  Biso   1.000  H
  H26      1.0000 0.89000  0.86900  0.45380  Biso   1.000  H
  N5       1.0000 0.01480  0.60863  0.64594  Biso   1.000  N
  N6       1.0000 0.98520  0.39137  0.35406  Biso   1.000  N
  C33      1.0000 0.09470  0.70820  0.63970  Biso   1.000  C
  C34      1.0000 0.90530  0.29180  0.36030  Biso   1.000  C
  H27      1.0000 0.20270  0.69210  0.60460  Biso   1.000  H
  H28      1.0000 0.79730  0.30790  0.39540  Biso   1.000  H
  C35      1.0000 0.02390  0.83400  0.68311  Biso   1.000  C
  C36      1.0000 0.97610  0.16600  0.31689  Biso   1.000  C
  H29      1.0000 0.08200  0.90360  0.67490  Biso   1.000  H
  H30      1.0000 0.91800  0.09640  0.32510  Biso   1.000  H
  C37      1.0000 0.86690  0.85900  0.73909  Biso   1.000  C
  C38      1.0000 0.13310  0.14100  0.26091  Biso   1.000  C
  H31      1.0000 0.81860  0.94260  0.77090  Biso   1.000  H
  H32      1.0000 0.18140  0.05740  0.22910  Biso   1.000  H
  C39      1.0000 0.78890  0.75820  0.74528  Biso   1.000  C
  C40      1.0000 0.21110  0.24180  0.25472  Biso   1.000  C
  H33      1.0000 0.68170  0.77210  0.78120  Biso   1.000  H
  H34      1.0000 0.31830  0.22790  0.21880  Biso   1.000  H
  C41      1.0000 0.86220  0.63330  0.69984  Biso   1.000  C
  C42      1.0000 0.13780  0.36670  0.30016  Biso   1.000  C
  H35      1.0000 0.80420  0.56400  0.70680  Biso   1.000  H
  H36      1.0000 0.19580  0.43600  0.29320  Biso   1.000  H
  O13      1.0000 0.62720  0.26400  0.08069  Biso   1.000  O
  O14      1.0000 0.37280  0.73600  0.91931  Biso   1.000  O
  O15      1.0000 0.11770  0.10100  0.77415  Biso   1.000  O
  O16      1.0000 0.88230  0.89900  0.22585  Biso   1.000  O
  O17      1.0000 0.65690  0.08380  0.93100  Biso   1.000  O
  O18      1.0000 0.34310  0.91620  0.06900  Biso   1.000  O
