data_image0
_cell_length_a       8.8205
_cell_length_b       9.765
_cell_length_c       13.004
_cell_angle_alpha    65.15
_cell_angle_beta     71.5
_cell_angle_gamma    72.52

_symmetry_space_group_name_H-M    "P 1"
_symmetry_int_tables_number       1

loop_
  _symmetry_equiv_pos_as_xyz
  'x, y, z'

loop_
  _atom_site_label
  _atom_site_occupancy
  _atom_site_fract_x
  _atom_site_fract_y
  _atom_site_fract_z
  _atom_site_thermal_displace_type
  _atom_site_B_iso_or_equiv
  _atom_site_type_symbol
  Cu1      1.0000 0.00000  0.50000  0.00000  Biso   1.000  Cu
  Cu2      1.0000 0.64095  0.88423  0.34049  Biso   1.000  Cu
  Cu3      1.0000 0.35905  0.11577  0.65951  Biso   1.000  Cu
  O1       1.0000 0.76491  0.53319  0.02962  Biso   1.000  O
  O2       1.0000 0.23509  0.46681  0.97038  Biso   1.000  O
  O3       1.0000 0.72068  0.63138  0.36501  Biso   1.000  O
  O4       1.0000 0.27932  0.36862  0.63499  Biso   1.000  O
  O5       1.0000 0.57448  0.82065  0.51199  Biso   1.000  O
  O6       1.0000 0.42552  0.17935  0.48801  Biso   1.000  O
  O7       1.0000 0.72538  0.13930  0.36257  Biso   1.000  O
  O8       1.0000 0.27462  0.86070  0.63743  Biso   1.000  O
  O9       1.0000 0.85283  0.91100  0.34635  Biso   1.000  O
  O10      1.0000 0.14717  0.08900  0.65365  Biso   1.000  O
  O11      1.0000 0.96345  0.50017  0.21622  Biso   1.000  O
  O12      1.0000 0.03655  0.49983  0.78378  Biso   1.000  O
  O13      1.0000 0.00278  0.32233  0.14360  Biso   1.000  O
  O14      1.0000 0.99722  0.67767  0.85640  Biso   1.000  O
  O15      1.0000 0.34216  0.11061  0.33400  Biso   1.000  O
  O16      1.0000 0.65784  0.88939  0.66600  Biso   1.000  O
  O17      1.0000 0.41676  0.86904  0.34472  Biso   1.000  O
  O18      1.0000 0.58324  0.13096  0.65528  Biso   1.000  O
  C1       1.0000 0.85081  0.03803  0.35494  Biso   1.000  C
  C2       1.0000 0.14919  0.96197  0.64506  Biso   1.000  C
  C3       1.0000 0.01080  0.07815  0.34862  Biso   1.000  C
  C4       1.0000 0.98920  0.92185  0.65138  Biso   1.000  C
  C5       1.0000 0.98740  0.36249  0.22732  Biso   1.000  C
  C6       1.0000 0.01260  0.63751  0.77268  Biso   1.000  C
  C7       1.0000 0.99520  0.24146  0.34545  Biso   1.000  C
  C8       1.0000 0.00480  0.75854  0.65455  Biso   1.000  C
  H1       1.0000 0.89750  0.26470  0.40100  Biso   1.000  H
  H2       1.0000 0.10250  0.73530  0.59900  Biso   1.000  H
  H3       1.0000 0.08790  0.24420  0.36900  Biso   1.000  H
  H4       1.0000 0.91210  0.75580  0.63100  Biso   1.000  H
  C9       1.0000 0.13890  0.97180  0.35035  Biso   1.000  C
  C10      1.0000 0.86110  0.02820  0.64965  Biso   1.000  C
  H5       1.0000 0.12640  0.87690  0.35730  Biso   1.000  H
  H6       1.0000 0.87360  0.12310  0.64270  Biso   1.000  H
  C11      1.0000 0.31440  0.98750  0.34184  Biso   1.000  C
  C12      1.0000 0.68560  0.01250  0.65816  Biso   1.000  C
  N1       1.0000 0.69878  0.96634  0.16777  Biso   1.000  N
  N2       1.0000 0.30122  0.03366  0.83223  Biso   1.000  N
  C13      1.0000 0.69310  0.88510  0.10855  Biso   1.000  C
  C14      1.0000 0.30690  0.11490  0.89145  Biso   1.000  C
  H7       1.0000 0.65820  0.79180  0.14960  Biso   1.000  H
  H8       1.0000 0.34180  0.20820  0.85040  Biso   1.000  H
  C15      1.0000 0.73760  0.93490  0.98744  Biso   1.000  C
  C16      1.0000 0.26240  0.06510  0.01256  Biso   1.000  C
  H9       1.0000 0.73460  0.87530  0.94830  Biso   1.000  H
  H10      1.0000 0.26540  0.12470  0.05170  Biso   1.000  H
  C17      1.0000 0.78430  0.06990  0.92946  Biso   1.000  C
  C18      1.0000 0.21570  0.93010  0.07054  Biso   1.000  C
  H11      1.0000 0.81660  0.10480  0.84880  Biso   1.000  H
  H12      1.0000 0.18340  0.89520  0.15120  Biso   1.000  H
  C19      1.0000 0.78510  0.15850  0.98891  Biso   1.000  C
  C20      1.0000 0.21490  0.84150  0.01109  Biso   1.000  C
  H13      1.0000 0.81180  0.25550  0.94880  Biso   1.000  H
  H14      1.0000 0.18820  0.74450  0.05120  Biso   1.000  H
  C21      1.0000 0.74620  0.10120  0.10736  Biso   1.000  C
  C22      1.0000 0.25380  0.89880  0.89264  Biso   1.000  C
  H15      1.0000 0.75300  0.15800  0.14740  Biso   1.000  H
  H16      1.0000 0.24700  0.84200  0.85260  Biso   1.000  H
  O19      1.0000 0.63649  0.43002  0.60052  Biso   1.000  O
  O20      1.0000 0.36351  0.56998  0.39948  Biso   1.000  O
  O21      1.0000 0.58099  0.44012  0.24347  Biso   1.000  O
  O22      1.0000 0.41901  0.55988  0.75653  Biso   1.000  O
  O23      1.0000 0.90720  0.37700  0.67364  Biso   1.000  O
  O24      1.0000 0.09280  0.62300  0.32636  Biso   1.000  O
  O25      1.0000 0.61817  0.62612  0.85881  Biso   1.000  O
  O26      1.0000 0.38183  0.37388  0.14119  Biso   1.000  O
