data_image0
_cell_length_a       7.9341
_cell_length_b       15.2231
_cell_length_c       9.9871
_cell_angle_alpha    90
_cell_angle_beta     96.821
_cell_angle_gamma    90

_symmetry_space_group_name_H-M    "P 1"
_symmetry_int_tables_number       1

loop_
  _symmetry_equiv_pos_as_xyz
  'x, y, z'

loop_
  _atom_site_label
  _atom_site_occupancy
  _atom_site_fract_x
  _atom_site_fract_y
  _atom_site_fract_z
  _atom_site_thermal_displace_type
  _atom_site_B_iso_or_equiv
  _atom_site_type_symbol
  Cu1      1.0000 0.50000  0.00000  0.50000  Biso   1.000  Cu
  Cu2      1.0000 0.50000  0.50000  0.00000  Biso   1.000  Cu
  N1       1.0000 0.63210  0.10720  0.45059  Biso   1.000  N
  N2       1.0000 0.36790  0.60720  0.04941  Biso   1.000  N
  N3       1.0000 0.36790  0.89280  0.54941  Biso   1.000  N
  N4       1.0000 0.63210  0.39280  0.95059  Biso   1.000  N
  N5       1.0000 0.62800  0.50063  0.18743  Biso   1.000  N
  N6       1.0000 0.37200  0.00063  0.31257  Biso   1.000  N
  N7       1.0000 0.37200  0.49937  0.81257  Biso   1.000  N
  N8       1.0000 0.62800  0.99937  0.68743  Biso   1.000  N
  C1       1.0000 0.59260  0.19037  0.47800  Biso   1.000  C
  C2       1.0000 0.40740  0.69037  0.02200  Biso   1.000  C
  C3       1.0000 0.40740  0.80963  0.52200  Biso   1.000  C
  C4       1.0000 0.59260  0.30963  0.97800  Biso   1.000  C
  H1       1.0000 0.50060  0.20070  0.52540  Biso   1.000  H
  H2       1.0000 0.49940  0.70070  0.97460  Biso   1.000  H
  H3       1.0000 0.49940  0.79930  0.47460  Biso   1.000  H
  H4       1.0000 0.50060  0.29930  0.02540  Biso   1.000  H
  C5       1.0000 0.68380  0.26155  0.43835  Biso   1.000  C
  C6       1.0000 0.31620  0.76155  0.06165  Biso   1.000  C
  C7       1.0000 0.31620  0.73845  0.56165  Biso   1.000  C
  C8       1.0000 0.68380  0.23845  0.93835  Biso   1.000  C
  C9       1.0000 0.81780  0.24698  0.36480  Biso   1.000  C
  C10      1.0000 0.18220  0.74698  0.13520  Biso   1.000  C
  C11      1.0000 0.18220  0.75302  0.63520  Biso   1.000  C
  C12      1.0000 0.81780  0.25302  0.86480  Biso   1.000  C
  H5       1.0000 0.87800  0.29380  0.33400  Biso   1.000  H
  H6       1.0000 0.12200  0.79380  0.16600  Biso   1.000  H
  H7       1.0000 0.12200  0.70620  0.66600  Biso   1.000  H
  H8       1.0000 0.87800  0.20620  0.83400  Biso   1.000  H
  C13      1.0000 0.86070  0.16128  0.33810  Biso   1.000  C
  C14      1.0000 0.13930  0.66128  0.16190  Biso   1.000  C
  C15      1.0000 0.13930  0.83872  0.66190  Biso   1.000  C
  C16      1.0000 0.86070  0.33872  0.83810  Biso   1.000  C
  H9       1.0000 0.95170  0.14940  0.29020  Biso   1.000  H
  H10      1.0000 0.04830  0.64940  0.20980  Biso   1.000  H
  H11      1.0000 0.04830  0.85060  0.70980  Biso   1.000  H
  H12      1.0000 0.95170  0.35060  0.79020  Biso   1.000  H
  C17      1.0000 0.76710  0.09382  0.38330  Biso   1.000  C
  C18      1.0000 0.23290  0.59382  0.11670  Biso   1.000  C
  C19      1.0000 0.23290  0.90618  0.61670  Biso   1.000  C
  C20      1.0000 0.76710  0.40618  0.88330  Biso   1.000  C
  H13      1.0000 0.79850  0.03630  0.36660  Biso   1.000  H
  H14      1.0000 0.20150  0.53630  0.13340  Biso   1.000  H
  H15      1.0000 0.20150  0.96370  0.63340  Biso   1.000  H
  H16      1.0000 0.79850  0.46370  0.86660  Biso   1.000  H
  C21      1.0000 0.64440  0.35120  0.48750  Biso   1.000  C
  C22      1.0000 0.35560  0.85120  0.01250  Biso   1.000  C
  C23      1.0000 0.35560  0.64880  0.51250  Biso   1.000  C
  C24      1.0000 0.64440  0.14880  0.98750  Biso   1.000  C
  C25      1.0000 0.61940  0.42954  0.26630  Biso   1.000  C
  C26      1.0000 0.38060  0.92954  0.23370  Biso   1.000  C
  C27      1.0000 0.38060  0.57046  0.73370  Biso   1.000  C
  C28      1.0000 0.61940  0.07046  0.76630  Biso   1.000  C
  H17      1.0000 0.42740  0.87830  0.27270  Biso   1.000  H
  H18      1.0000 0.57260  0.37830  0.22730  Biso   1.000  H
  H19      1.0000 0.57260  0.12170  0.72730  Biso   1.000  H
  H20      1.0000 0.42740  0.62170  0.77270  Biso   1.000  H
  C29      1.0000 0.67650  0.42890  0.40240  Biso   1.000  C
  C30      1.0000 0.32350  0.92890  0.09760  Biso   1.000  C
  C31      1.0000 0.32350  0.57110  0.59760  Biso   1.000  C
  C32      1.0000 0.67650  0.07110  0.90240  Biso   1.000  C
  C33      1.0000 0.75350  0.50411  0.46050  Biso   1.000  C
  C34      1.0000 0.24650  0.00411  0.03950  Biso   1.000  C
  C35      1.0000 0.24650  0.49589  0.53950  Biso   1.000  C
  C36      1.0000 0.75350  0.99589  0.96050  Biso   1.000  C
  H21      1.0000 0.79160  0.50630  0.55220  Biso   1.000  H
  H22      1.0000 0.20840  0.00630  0.94780  Biso   1.000  H
  H23      1.0000 0.20840  0.49370  0.44780  Biso   1.000  H
  H24      1.0000 0.79160  0.99370  0.05220  Biso   1.000  H
  C37      1.0000 0.77190  0.57576  0.37770  Biso   1.000  C
  C38      1.0000 0.22810  0.07576  0.12230  Biso   1.000  C
  C39      1.0000 0.22810  0.42424  0.62230  Biso   1.000  C
  C40      1.0000 0.77190  0.92424  0.87770  Biso   1.000  C
  H25      1.0000 0.82830  0.62580  0.41240  Biso   1.000  H
  H26      1.0000 0.17170  0.12580  0.08760  Biso   1.000  H
  H27      1.0000 0.17170  0.37420  0.58760  Biso   1.000  H
  H28      1.0000 0.82830  0.87420  0.91240  Biso   1.000  H
  C41      1.0000 0.29330  0.07246  0.25540  Biso   1.000  C
  C42      1.0000 0.70670  0.57246  0.24460  Biso   1.000  C
  C43      1.0000 0.70670  0.92754  0.74460  Biso   1.000  C
  C44      1.0000 0.29330  0.42754  0.75540  Biso   1.000  C
  H29      1.0000 0.28310  0.12180  0.30880  Biso   1.000  H
  H30      1.0000 0.71690  0.62180  0.19120  Biso   1.000  H
  H31      1.0000 0.71690  0.87820  0.69120  Biso   1.000  H
  H32      1.0000 0.28310  0.37820  0.80880  Biso   1.000  H
  O1       1.0000 0.59070  0.36119  0.59486  Biso   1.000  O
  O2       1.0000 0.40930  0.86119  0.90514  Biso   1.000  O
  O3       1.0000 0.40930  0.63881  0.40514  Biso   1.000  O
  O4       1.0000 0.59070  0.13881  0.09486  Biso   1.000  O
  Cl1      1.0000 0.17339  0.15464  0.68187  Biso   1.000  Cl
  Cl2      1.0000 0.82661  0.65464  0.81813  Biso   1.000  Cl
  Cl3      1.0000 0.82661  0.84536  0.31813  Biso   1.000  Cl
  Cl4      1.0000 0.17339  0.34536  0.18187  Biso   1.000  Cl
  O5       1.0000 0.26340  0.11401  0.58017  Biso   1.000  O
  O6       1.0000 0.73660  0.61401  0.91983  Biso   1.000  O
  O7       1.0000 0.73660  0.88599  0.41983  Biso   1.000  O
  O8       1.0000 0.26340  0.38599  0.08017  Biso   1.000  O
  O9       1.0000 0.07210  0.22489  0.62680  Biso   1.000  O
  O10      1.0000 0.92790  0.72489  0.87320  Biso   1.000  O
  O11      1.0000 0.92790  0.77511  0.37320  Biso   1.000  O
  O12      1.0000 0.07210  0.27511  0.12680  Biso   1.000  O
  O13      1.0000 0.06820  0.09090  0.73400  Biso   1.000  O
  O14      1.0000 0.93180  0.59090  0.76600  Biso   1.000  O
  O15      1.0000 0.93180  0.90910  0.26600  Biso   1.000  O
  O16      1.0000 0.06820  0.40910  0.23400  Biso   1.000  O
  O17      1.0000 0.29220  0.18770  0.78730  Biso   1.000  O
  O18      1.0000 0.70780  0.68770  0.71270  Biso   1.000  O
  O19      1.0000 0.70780  0.81230  0.21270  Biso   1.000  O
  O20      1.0000 0.29220  0.31230  0.28730  Biso   1.000  O
