data_image0
_cell_length_a       7.5542
_cell_length_b       8.7861
_cell_length_c       10.3389
_cell_angle_alpha    101.28
_cell_angle_beta     109.236
_cell_angle_gamma    108.869

_symmetry_space_group_name_H-M    "P 1"
_symmetry_int_tables_number       1

loop_
  _symmetry_equiv_pos_as_xyz
  'x, y, z'

loop_
  _atom_site_label
  _atom_site_occupancy
  _atom_site_fract_x
  _atom_site_fract_y
  _atom_site_fract_z
  _atom_site_thermal_displace_type
  _atom_site_B_iso_or_equiv
  _atom_site_type_symbol
  Cu1      1.0000 0.50000  0.50000  0.00000  Biso   1.000  Cu
  O1       1.0000 0.79760  0.55110  0.49120  Biso   1.000  O
  O2       1.0000 0.20240  0.44890  0.50880  Biso   1.000  O
  N1       1.0000 0.53540  0.40650  0.82030  Biso   1.000  N
  N2       1.0000 0.46460  0.59350  0.17970  Biso   1.000  N
  N3       1.0000 0.36700  0.63590  0.89590  Biso   1.000  N
  N4       1.0000 0.63300  0.36410  0.10410  Biso   1.000  N
  C1       1.0000 0.39100  0.25470  0.72290  Biso   1.000  C
  C2       1.0000 0.60900  0.74530  0.27710  Biso   1.000  C
  H1       1.0000 0.28920  0.19110  0.74670  Biso   1.000  H
  H2       1.0000 0.71080  0.80890  0.25330  Biso   1.000  H
  C3       1.0000 0.38630  0.18810  0.58870  Biso   1.000  C
  C4       1.0000 0.61370  0.81190  0.41130  Biso   1.000  C
  H3       1.0000 0.28440  0.08160  0.52420  Biso   1.000  H
  H4       1.0000 0.71560  0.91840  0.47580  Biso   1.000  H
  C5       1.0000 0.53540  0.28250  0.55190  Biso   1.000  C
  C6       1.0000 0.46460  0.71750  0.44810  Biso   1.000  C
  H5       1.0000 0.53260  0.24300  0.46070  Biso   1.000  H
  H6       1.0000 0.46740  0.75700  0.53930  Biso   1.000  H
  C7       1.0000 0.69010  0.43790  0.65410  Biso   1.000  C
  C8       1.0000 0.30990  0.56210  0.34590  Biso   1.000  C
  C9       1.0000 0.68600  0.49530  0.78730  Biso   1.000  C
  C10      1.0000 0.31400  0.50470  0.21270  Biso   1.000  C
  H7       1.0000 0.79050  0.59850  0.85590  Biso   1.000  H
  H8       1.0000 0.20950  0.40150  0.14410  Biso   1.000  H
  C11      1.0000 0.84750  0.54420  0.61300  Biso   1.000  C
  C12      1.0000 0.15250  0.45580  0.38700  Biso   1.000  C
  C13      1.0000 0.06860  0.63980  0.72180  Biso   1.000  C
  C14      1.0000 0.93140  0.36020  0.27820  Biso   1.000  C
  C15      1.0000 0.16210  0.56730  0.81500  Biso   1.000  C
  C16      1.0000 0.83790  0.43270  0.18500  Biso   1.000  C
  H9       1.0000 0.07980  0.46720  0.82200  Biso   1.000  H
  H10      1.0000 0.92020  0.53280  0.17800  Biso   1.000  H
  C17      1.0000 0.48200  0.78520  0.89090  Biso   1.000  C
  C18      1.0000 0.51800  0.21480  0.10910  Biso   1.000  C
  H11      1.0000 0.62370  0.83480  0.94760  Biso   1.000  H
  H12      1.0000 0.37630  0.16520  0.05240  Biso   1.000  H
  C19      1.0000 0.39820  0.86860  0.80470  Biso   1.000  C
  C20      1.0000 0.60180  0.13140  0.19530  Biso   1.000  C
  H13      1.0000 0.48180  0.97390  0.80630  Biso   1.000  H
  H14      1.0000 0.51820  0.02610  0.19370  Biso   1.000  H
  C21      1.0000 0.18970  0.79380  0.71660  Biso   1.000  C
  C22      1.0000 0.81030  0.20620  0.28340  Biso   1.000  C
  H15      1.0000 0.13100  0.84530  0.65480  Biso   1.000  H
  H16      1.0000 0.86900  0.15470  0.34520  Biso   1.000  H
  F1       1.0000 0.85660  0.75880  0.09280  Biso   1.000  F
  F2       1.0000 0.14340  0.24120  0.90720  Biso   1.000  F
  F3       1.0000 0.12300  0.85090  0.30950  Biso   1.000  F
  F4       1.0000 0.87700  0.14910  0.69050  Biso   1.000  F
  F5       1.0000 0.10120  0.03400  0.18930  Biso   1.000  F
  F6       1.0000 0.89880  0.96600  0.81070  Biso   1.000  F
  F7       1.0000 0.17110  0.81190  0.10610  Biso   1.000  F
  F8       1.0000 0.82890  0.18810  0.89390  Biso   1.000  F
  B1       1.0000 0.06790  0.86980  0.17340  Biso   1.000  B
  B2       1.0000 0.93210  0.13020  0.82660  Biso   1.000  B
