data_image0
_cell_length_a       7.8543
_cell_length_b       15.057
_cell_length_c       9.9285
_cell_angle_alpha    90
_cell_angle_beta     96.293
_cell_angle_gamma    90

_symmetry_space_group_name_H-M    "P 1"
_symmetry_int_tables_number       1

loop_
  _symmetry_equiv_pos_as_xyz
  'x, y, z'

loop_
  _atom_site_label
  _atom_site_occupancy
  _atom_site_fract_x
  _atom_site_fract_y
  _atom_site_fract_z
  _atom_site_thermal_displace_type
  _atom_site_B_iso_or_equiv
  _atom_site_type_symbol
  Cu1      1.0000 0.00000  0.00000  0.00000  Biso   1.000  Cu
  Cu2      1.0000 0.00000  0.50000  0.50000  Biso   1.000  Cu
  O1       1.0000 0.90170  0.13578  0.39975  Biso   1.000  O
  O2       1.0000 0.09830  0.63578  0.10025  Biso   1.000  O
  O3       1.0000 0.09830  0.86422  0.60025  Biso   1.000  O
  O4       1.0000 0.90170  0.36422  0.89975  Biso   1.000  O
  N1       1.0000 0.87360  0.99731  0.81210  Biso   1.000  N
  N2       1.0000 0.12640  0.49731  0.68790  Biso   1.000  N
  N3       1.0000 0.12640  0.00269  0.18790  Biso   1.000  N
  N4       1.0000 0.87360  0.50269  0.31210  Biso   1.000  N
  N5       1.0000 0.86350  0.39207  0.54760  Biso   1.000  N
  N6       1.0000 0.13650  0.89207  0.95240  Biso   1.000  N
  N7       1.0000 0.13650  0.60793  0.45240  Biso   1.000  N
  N8       1.0000 0.86350  0.10793  0.04760  Biso   1.000  N
  C1       1.0000 0.88020  0.06842  0.73190  Biso   1.000  C
  C2       1.0000 0.11980  0.56842  0.76810  Biso   1.000  C
  C3       1.0000 0.11980  0.93158  0.26810  Biso   1.000  C
  C4       1.0000 0.88020  0.43158  0.23190  Biso   1.000  C
  H1       1.0000 0.92680  0.12070  0.76960  Biso   1.000  H
  H2       1.0000 0.07320  0.62070  0.73040  Biso   1.000  H
  H3       1.0000 0.07320  0.87930  0.23040  Biso   1.000  H
  H4       1.0000 0.92680  0.37930  0.26960  Biso   1.000  H
  C5       1.0000 0.82090  0.06760  0.59620  Biso   1.000  C
  C6       1.0000 0.17910  0.56760  0.90380  Biso   1.000  C
  C7       1.0000 0.17910  0.93240  0.40380  Biso   1.000  C
  C8       1.0000 0.82090  0.43240  0.09620  Biso   1.000  C
  C9       1.0000 0.74490  0.99083  0.54050  Biso   1.000  C
  C10      1.0000 0.25510  0.49083  0.95950  Biso   1.000  C
  C11      1.0000 0.25510  0.00917  0.45950  Biso   1.000  C
  C12      1.0000 0.74490  0.50917  0.04050  Biso   1.000  C
  H5       1.0000 0.70550  0.98790  0.44880  Biso   1.000  H
  H6       1.0000 0.29450  0.48790  0.05120  Biso   1.000  H
  H7       1.0000 0.29450  0.01210  0.55120  Biso   1.000  H
  H8       1.0000 0.70550  0.51210  0.94880  Biso   1.000  H
  C13      1.0000 0.72910  0.91919  0.62430  Biso   1.000  C
  C14      1.0000 0.27090  0.41919  0.87570  Biso   1.000  C
  C15      1.0000 0.27090  0.08081  0.37570  Biso   1.000  C
  C16      1.0000 0.72910  0.58081  0.12430  Biso   1.000  C
  H9       1.0000 0.67370  0.86790  0.59080  Biso   1.000  H
  H10      1.0000 0.32630  0.36790  0.90920  Biso   1.000  H
  H11      1.0000 0.32630  0.13210  0.40920  Biso   1.000  H
  H12      1.0000 0.67370  0.63210  0.09080  Biso   1.000  H
  C17      1.0000 0.79590  0.92396  0.75790  Biso   1.000  C
  C18      1.0000 0.20410  0.42396  0.74210  Biso   1.000  C
  C19      1.0000 0.20410  0.07604  0.24210  Biso   1.000  C
  C20      1.0000 0.79590  0.57604  0.25790  Biso   1.000  C
  H13      1.0000 0.78720  0.87460  0.81300  Biso   1.000  H
  H14      1.0000 0.21280  0.37460  0.68700  Biso   1.000  H
  H15      1.0000 0.21280  0.12540  0.18700  Biso   1.000  H
  H16      1.0000 0.78720  0.62540  0.31300  Biso   1.000  H
  C21      1.0000 0.84970  0.14592  0.50940  Biso   1.000  C
  C22      1.0000 0.15030  0.64592  0.99060  Biso   1.000  C
  C23      1.0000 0.15030  0.85408  0.49060  Biso   1.000  C
  C24      1.0000 0.84970  0.35408  0.00940  Biso   1.000  C
  C25      1.0000 0.90270  0.30845  0.51920  Biso   1.000  C
  C26      1.0000 0.09730  0.80845  0.98080  Biso   1.000  C
  C27      1.0000 0.09730  0.69155  0.48080  Biso   1.000  C
  C28      1.0000 0.90270  0.19155  0.01920  Biso   1.000  C
  H17      1.0000 0.00370  0.79810  0.02840  Biso   1.000  H
  H18      1.0000 0.99630  0.29810  0.47160  Biso   1.000  H
  H19      1.0000 0.99630  0.20190  0.97160  Biso   1.000  H
  H20      1.0000 0.00370  0.70190  0.52840  Biso   1.000  H
  C29      1.0000 0.80950  0.23624  0.55790  Biso   1.000  C
  C30      1.0000 0.19050  0.73624  0.94210  Biso   1.000  C
  C31      1.0000 0.19050  0.76376  0.44210  Biso   1.000  C
  C32      1.0000 0.80950  0.26376  0.05790  Biso   1.000  C
  C33      1.0000 0.67400  0.25157  0.63160  Biso   1.000  C
  C34      1.0000 0.32600  0.75157  0.86840  Biso   1.000  C
  C35      1.0000 0.32600  0.74843  0.36840  Biso   1.000  C
  C36      1.0000 0.67400  0.24843  0.13160  Biso   1.000  C
  H21      1.0000 0.61230  0.20450  0.66250  Biso   1.000  H
  H22      1.0000 0.38770  0.70450  0.83750  Biso   1.000  H
  H23      1.0000 0.38770  0.79550  0.33750  Biso   1.000  H
  H24      1.0000 0.61230  0.29550  0.16250  Biso   1.000  H
  C37      1.0000 0.63170  0.33783  0.65850  Biso   1.000  C
  C38      1.0000 0.36830  0.83783  0.84150  Biso   1.000  C
  C39      1.0000 0.36830  0.66217  0.34150  Biso   1.000  C
  C40      1.0000 0.63170  0.16217  0.15850  Biso   1.000  C
  H25      1.0000 0.53890  0.34990  0.70630  Biso   1.000  H
  H26      1.0000 0.46110  0.84990  0.79370  Biso   1.000  H
  H27      1.0000 0.46110  0.65010  0.29370  Biso   1.000  H
  H28      1.0000 0.53890  0.15010  0.20630  Biso   1.000  H
  C41      1.0000 0.27290  0.90592  0.88540  Biso   1.000  C
  C42      1.0000 0.72710  0.40592  0.61460  Biso   1.000  C
  C43      1.0000 0.72710  0.09408  0.11460  Biso   1.000  C
  C44      1.0000 0.27290  0.59408  0.38540  Biso   1.000  C
  H29      1.0000 0.30410  0.96400  0.86800  Biso   1.000  H
  H30      1.0000 0.69590  0.46400  0.63200  Biso   1.000  H
  H31      1.0000 0.69590  0.03600  0.13200  Biso   1.000  H
  H32      1.0000 0.30410  0.53600  0.36800  Biso   1.000  H
  B1       1.0000 0.31980  0.15350  0.81640  Biso   1.000  B
  B2       1.0000 0.68020  0.65350  0.68360  Biso   1.000  B
  B3       1.0000 0.68020  0.84650  0.18360  Biso   1.000  B
  B4       1.0000 0.31980  0.34650  0.31640  Biso   1.000  B
  F1       1.0000 0.42100  0.09195  0.76430  Biso   1.000  F
  F2       1.0000 0.57900  0.59195  0.73570  Biso   1.000  F
  F3       1.0000 0.57900  0.90805  0.23570  Biso   1.000  F
  F4       1.0000 0.42100  0.40805  0.26430  Biso   1.000  F
  F5       1.0000 0.22840  0.11252  0.91344  Biso   1.000  F
  F6       1.0000 0.77160  0.61252  0.58656  Biso   1.000  F
  F7       1.0000 0.77160  0.88748  0.08656  Biso   1.000  F
  F8       1.0000 0.22840  0.38748  0.41344  Biso   1.000  F
  F9       1.0000 0.41820  0.22059  0.87260  Biso   1.000  F
  F10      1.0000 0.58180  0.72059  0.62740  Biso   1.000  F
  F11      1.0000 0.58180  0.77941  0.12740  Biso   1.000  F
  F12      1.0000 0.41820  0.27941  0.37260  Biso   1.000  F
  F13      1.0000 0.20670  0.18740  0.71550  Biso   1.000  F
  F14      1.0000 0.79330  0.68740  0.78450  Biso   1.000  F
  F15      1.0000 0.79330  0.81260  0.28450  Biso   1.000  F
  F16      1.0000 0.20670  0.31260  0.21550  Biso   1.000  F
