data_image0
_cell_length_a       9.272
_cell_length_b       10.787
_cell_length_c       13.409
_cell_angle_alpha    106.404
_cell_angle_beta     99.515
_cell_angle_gamma    100.001

_symmetry_space_group_name_H-M    "P 1"
_symmetry_int_tables_number       1

loop_
  _symmetry_equiv_pos_as_xyz
  'x, y, z'

loop_
  _atom_site_label
  _atom_site_occupancy
  _atom_site_fract_x
  _atom_site_fract_y
  _atom_site_fract_z
  _atom_site_thermal_displace_type
  _atom_site_B_iso_or_equiv
  _atom_site_type_symbol
  Cu1      1.0000 0.41828  0.11567  0.66185  Biso   1.000  Cu
  Cu2      1.0000 0.58172  0.88433  0.33815  Biso   1.000  Cu
  S1       1.0000 0.28718  0.39619  0.73832  Biso   1.000  S
  S2       1.0000 0.71282  0.60381  0.26168  Biso   1.000  S
  O1       1.0000 0.72070  0.12130  0.64363  Biso   1.000  O
  O2       1.0000 0.27930  0.87870  0.35637  Biso   1.000  O
  O3       1.0000 0.26480  0.25420  0.71200  Biso   1.000  O
  O4       1.0000 0.73520  0.74580  0.28800  Biso   1.000  O
  O5       1.0000 0.34010  0.44940  0.66050  Biso   1.000  O
  O6       1.0000 0.65990  0.55060  0.33950  Biso   1.000  O
  C1       1.0000 0.09200  0.55900  0.76620  Biso   1.000  C
  C2       1.0000 0.90800  0.44100  0.23380  Biso   1.000  C
  H1       1.0000 0.17713  0.62850  0.78834  Biso   1.000  H
  H2       1.0000 0.82287  0.37150  0.21166  Biso   1.000  H
  O7       1.0000 0.58230  0.26727  0.69207  Biso   1.000  O
  O8       1.0000 0.41770  0.73273  0.30793  Biso   1.000  O
  O9       1.0000 0.05170  0.81708  0.83010  Biso   1.000  O
  O10      1.0000 0.94830  0.18292  0.16990  Biso   1.000  O
  C3       1.0000 0.70460  0.23630  0.67690  Biso   1.000  C
  C4       1.0000 0.29540  0.76370  0.32310  Biso   1.000  C
  O11      1.0000 0.37810  0.46690  0.84470  Biso   1.000  O
  O12      1.0000 0.62190  0.53310  0.15530  Biso   1.000  O
  C5       1.0000 0.08320  0.68910  0.55090  Biso   1.000  C
  C6       1.0000 0.91680  0.31090  0.44910  Biso   1.000  C
  C7       1.0000 0.97950  0.55720  0.50860  Biso   1.000  C
  C8       1.0000 0.02050  0.44280  0.49140  Biso   1.000  C
  H3       1.0000 0.87712  0.55380  0.49258  Biso   1.000  H
  H4       1.0000 0.12288  0.44620  0.50742  Biso   1.000  H
  O13      1.0000 0.80770  0.74900  0.75720  Biso   1.000  O
  O14      1.0000 0.19230  0.25100  0.24280  Biso   1.000  O
  C9       1.0000 0.12540  0.92590  0.59440  Biso   1.000  C
  C10      1.0000 0.87460  0.07410  0.40560  Biso   1.000  C
  H5       1.0000 0.08654  0.00055  0.59830  Biso   1.000  H
  H6       1.0000 0.91346  0.99945  0.40170  Biso   1.000  H
  N1       1.0000 0.27360  0.94230  0.62420  Biso   1.000  N
  N2       1.0000 0.72640  0.05770  0.37580  Biso   1.000  N
  C11      1.0000 0.83850  0.35040  0.70590  Biso   1.000  C
  C12      1.0000 0.16150  0.64960  0.29410  Biso   1.000  C
  C13      1.0000 0.02720  0.80250  0.55780  Biso   1.000  C
  C14      1.0000 0.97280  0.19750  0.44220  Biso   1.000  C
  H7       1.0000 0.92435  0.79503  0.53791  Biso   1.000  H
  H8       1.0000 0.07565  0.20497  0.46209  Biso   1.000  H
  C15      1.0000 0.98090  0.32470  0.70950  Biso   1.000  C
  C16      1.0000 0.01910  0.67530  0.29050  Biso   1.000  C
  H9       1.0000 0.99179  0.23760  0.69181  Biso   1.000  H
  H10      1.0000 0.00821  0.76240  0.30819  Biso   1.000  H
  C17      1.0000 0.93110  0.72760  0.78260  Biso   1.000  C
  C18      1.0000 0.06890  0.27240  0.21740  Biso   1.000  C
  C19      1.0000 0.94950  0.58550  0.75970  Biso   1.000  C
  C20      1.0000 0.05050  0.41450  0.24030  Biso   1.000  C
  C21      1.0000 0.10600  0.42870  0.73940  Biso   1.000  C
  C22      1.0000 0.89400  0.57130  0.26060  Biso   1.000  C
  C23      1.0000 0.23790  0.70770  0.58350  Biso   1.000  C
  C24      1.0000 0.76210  0.29230  0.41650  Biso   1.000  C
  H11      1.0000 0.28031  0.63520  0.58126  Biso   1.000  H
  H12      1.0000 0.71969  0.36480  0.41874  Biso   1.000  H
  C25      1.0000 0.82340  0.48120  0.72970  Biso   1.000  C
  C26      1.0000 0.17660  0.51880  0.27030  Biso   1.000  C
  H13      1.0000 0.72821  0.49874  0.72547  Biso   1.000  H
  H14      1.0000 0.27179  0.50126  0.27453  Biso   1.000  H
  C27      1.0000 0.32740  0.83410  0.61910  Biso   1.000  C
  C28      1.0000 0.67260  0.16590  0.38090  Biso   1.000  C
  H15      1.0000 0.43064  0.84491  0.64084  Biso   1.000  H
  H16      1.0000 0.56936  0.15509  0.35916  Biso   1.000  H
  O15      1.0000 0.49190  0.10330  0.80510  Biso   1.000  O
  O16      1.0000 0.50810  0.89670  0.19490  Biso   1.000  O
  O17      1.0000 0.36250  0.10820  0.51168  Biso   1.000  O
  O18      1.0000 0.63750  0.89180  0.48832  Biso   1.000  O
  H17      1.0000 0.37747  0.18701  0.50747  Biso   1.000  H
  H18      1.0000 0.62253  0.81299  0.49253  Biso   1.000  H
  H19      1.0000 0.26923  0.06978  0.48591  Biso   1.000  H
  H20      1.0000 0.73077  0.93022  0.51409  Biso   1.000  H
  H21      1.0000 0.46000  0.04900  0.82800  Biso   1.000  H
  H22      1.0000 0.54000  0.95100  0.17200  Biso   1.000  H
  H23      1.0000 0.51700  0.16400  0.84000  Biso   1.000  H
  H24      1.0000 0.48300  0.83600  0.16000  Biso   1.000  H
  N3       1.0000 0.02160  0.05820  0.89000  Biso   1.000  N
  N4       1.0000 0.97840  0.94180  0.11000  Biso   1.000  N
  C29      1.0000 0.02710  0.32260  0.96350  Biso   1.000  C
  C30      1.0000 0.97290  0.67740  0.03650  Biso   1.000  C
  C31      1.0000 0.89280  0.09540  0.88140  Biso   1.000  C
  C32      1.0000 0.10720  0.90460  0.11860  Biso   1.000  C
  H25      1.0000 0.80246  0.03224  0.85050  Biso   1.000  H
  H26      1.0000 0.19754  0.96776  0.14950  Biso   1.000  H
  C33      1.0000 0.15690  0.27840  0.97200  Biso   1.000  C
  C34      1.0000 0.84310  0.72160  0.02800  Biso   1.000  C
  H27      1.0000 0.24892  0.33919  0.00303  Biso   1.000  H
  H28      1.0000 0.75108  0.66081  0.99697  Biso   1.000  H
  C35      1.0000 0.15240  0.14680  0.93550  Biso   1.000  C
  C36      1.0000 0.84760  0.85320  0.06450  Biso   1.000  C
  H29      1.0000 0.24131  0.11792  0.94225  Biso   1.000  H
  H30      1.0000 0.75869  0.88208  0.05775  Biso   1.000  H
  C37      1.0000 0.89320  0.22880  0.91870  Biso   1.000  C
  C38      1.0000 0.10680  0.77120  0.08130  Biso   1.000  C
  H31      1.0000 0.80275  0.25537  0.91356  Biso   1.000  H
  H32      1.0000 0.19725  0.74463  0.08644  Biso   1.000  H
  C39      1.0000 0.05090  0.46940  0.00150  Biso   1.000  C
  C40      1.0000 0.94910  0.53060  0.99850  Biso   1.000  C
  H33      1.0000 0.14916  0.51941  0.02981  Biso   1.000  H
  H34      1.0000 0.85084  0.48059  0.97019  Biso   1.000  H
  H35      1.0000 0.01800  0.97300  0.86500  Biso   1.000  H
  H36      1.0000 0.98200  0.02700  0.13500  Biso   1.000  H
  O19      1.0000 0.40540  0.32740  0.45152  Biso   1.000  O
  O20      1.0000 0.59460  0.67260  0.54848  Biso   1.000  O
  O21      1.0000 0.37030  0.91430  0.88450  Biso   1.000  O
  O22      1.0000 0.62970  0.08570  0.11550  Biso   1.000  O
  O23      1.0000 0.54040  0.72716  0.83160  Biso   1.000  O
  O24      1.0000 0.45960  0.27284  0.16840  Biso   1.000  O
  H37      1.0000 0.54551  0.68143  0.76976  Biso   1.000  H
  H38      1.0000 0.45449  0.31857  0.23024  Biso   1.000  H
  H39      1.0000 0.62155  0.78649  0.86072  Biso   1.000  H
  H40      1.0000 0.37845  0.21351  0.13928  Biso   1.000  H
  O25      1.0000 0.57130  0.34800  0.94740  Biso   1.000  O
  O26      1.0000 0.42870  0.65200  0.05260  Biso   1.000  O
