data_image0
_cell_length_a       17.8191
_cell_length_b       11.0557
_cell_length_c       22.3316
_cell_angle_alpha    90
_cell_angle_beta     112.858
_cell_angle_gamma    90

_symmetry_space_group_name_H-M    "P 1"
_symmetry_int_tables_number       1

loop_
  _symmetry_equiv_pos_as_xyz
  'x, y, z'

loop_
  _atom_site_label
  _atom_site_occupancy
  _atom_site_fract_x
  _atom_site_fract_y
  _atom_site_fract_z
  _atom_site_thermal_displace_type
  _atom_site_B_iso_or_equiv
  _atom_site_type_symbol
  Cu1      1.0000 0.50000  0.02543  0.75000  Biso   1.000  Cu
  Cu2      1.0000 0.00000  0.52543  0.75000  Biso   1.000  Cu
  Cu3      1.0000 0.50000  0.97457  0.25000  Biso   1.000  Cu
  Cu4      1.0000 0.00000  0.47457  0.25000  Biso   1.000  Cu
  N1       1.0000 0.50000  0.20410  0.75000  Biso   1.000  N
  N2       1.0000 0.00000  0.70410  0.75000  Biso   1.000  N
  N3       1.0000 0.50000  0.79590  0.25000  Biso   1.000  N
  N4       1.0000 0.00000  0.29590  0.25000  Biso   1.000  N
  N5       1.0000 0.50270  0.02090  0.65940  Biso   1.000  N
  N6       1.0000 0.49730  0.02090  0.84060  Biso   1.000  N
  N7       1.0000 0.00270  0.52090  0.65940  Biso   1.000  N
  N8       1.0000 0.99730  0.52090  0.84060  Biso   1.000  N
  N9       1.0000 0.49730  0.97910  0.34060  Biso   1.000  N
  N10      1.0000 0.50270  0.97910  0.15940  Biso   1.000  N
  N11      1.0000 0.99730  0.47910  0.34060  Biso   1.000  N
  N12      1.0000 0.00270  0.47910  0.15940  Biso   1.000  N
  C1       1.0000 0.50000  0.46040  0.75000  Biso   1.000  C
  C2       1.0000 0.00000  0.96040  0.75000  Biso   1.000  C
  C3       1.0000 0.50000  0.53960  0.25000  Biso   1.000  C
  C4       1.0000 0.00000  0.03960  0.25000  Biso   1.000  C
  C5       1.0000 0.50040  0.00440  0.53360  Biso   1.000  C
  C6       1.0000 0.49960  0.00440  0.96640  Biso   1.000  C
  C7       1.0000 0.00040  0.50440  0.53360  Biso   1.000  C
  C8       1.0000 0.99960  0.50440  0.96640  Biso   1.000  C
  C9       1.0000 0.49960  0.99560  0.46640  Biso   1.000  C
  C10      1.0000 0.50040  0.99560  0.03360  Biso   1.000  C
  C11      1.0000 0.99960  0.49560  0.46640  Biso   1.000  C
  C12      1.0000 0.00040  0.49560  0.03360  Biso   1.000  C
  C13      1.0000 0.55300  0.39490  0.73040  Biso   1.000  C
  C14      1.0000 0.44700  0.39490  0.76960  Biso   1.000  C
  C15      1.0000 0.05300  0.89490  0.73040  Biso   1.000  C
  C16      1.0000 0.94700  0.89490  0.76960  Biso   1.000  C
  C17      1.0000 0.44700  0.60510  0.26960  Biso   1.000  C
  C18      1.0000 0.55300  0.60510  0.23040  Biso   1.000  C
  C19      1.0000 0.94700  0.10510  0.26960  Biso   1.000  C
  C20      1.0000 0.05300  0.10510  0.23040  Biso   1.000  C
  H1       1.0000 0.58937  0.43520  0.71670  Biso   1.000  H
  H2       1.0000 0.41063  0.43520  0.78330  Biso   1.000  H
  H3       1.0000 0.08937  0.93520  0.71670  Biso   1.000  H
  H4       1.0000 0.91063  0.93520  0.78330  Biso   1.000  H
  H5       1.0000 0.41063  0.56480  0.28330  Biso   1.000  H
  H6       1.0000 0.58937  0.56480  0.21670  Biso   1.000  H
  H7       1.0000 0.91063  0.06480  0.28330  Biso   1.000  H
  H8       1.0000 0.08937  0.06480  0.21670  Biso   1.000  H
  C21      1.0000 0.44370  0.07150  0.60970  Biso   1.000  C
  C22      1.0000 0.55630  0.07150  0.89030  Biso   1.000  C
  C23      1.0000 0.94370  0.57150  0.60970  Biso   1.000  C
  C24      1.0000 0.05630  0.57150  0.89030  Biso   1.000  C
  C25      1.0000 0.55630  0.92850  0.39030  Biso   1.000  C
  C26      1.0000 0.44370  0.92850  0.10970  Biso   1.000  C
  C27      1.0000 0.05630  0.42850  0.39030  Biso   1.000  C
  C28      1.0000 0.94370  0.42850  0.10970  Biso   1.000  C
  H9       1.0000 0.40312  0.11326  0.61746  Biso   1.000  H
  H10      1.0000 0.59688  0.11326  0.88254  Biso   1.000  H
  H11      1.0000 0.90312  0.61326  0.61746  Biso   1.000  H
  H12      1.0000 0.09688  0.61326  0.88254  Biso   1.000  H
  H13      1.0000 0.59688  0.88674  0.38254  Biso   1.000  H
  H14      1.0000 0.40312  0.88674  0.11746  Biso   1.000  H
  H15      1.0000 0.09688  0.38674  0.38254  Biso   1.000  H
  H16      1.0000 0.90312  0.38674  0.11746  Biso   1.000  H
  C29      1.0000 0.56200  0.96570  0.64750  Biso   1.000  C
  C30      1.0000 0.43800  0.96570  0.85250  Biso   1.000  C
  C31      1.0000 0.06200  0.46570  0.64750  Biso   1.000  C
  C32      1.0000 0.93800  0.46570  0.85250  Biso   1.000  C
  C33      1.0000 0.43800  0.03430  0.35250  Biso   1.000  C
  C34      1.0000 0.56200  0.03430  0.14750  Biso   1.000  C
  C35      1.0000 0.93800  0.53430  0.35250  Biso   1.000  C
  C36      1.0000 0.06200  0.53430  0.14750  Biso   1.000  C
  H17      1.0000 0.60420  0.93039  0.68216  Biso   1.000  H
  H18      1.0000 0.39580  0.93039  0.81784  Biso   1.000  H
  H19      1.0000 0.10420  0.43039  0.68216  Biso   1.000  H
  H20      1.0000 0.89580  0.43039  0.81784  Biso   1.000  H
  H21      1.0000 0.39580  0.06961  0.31784  Biso   1.000  H
  H22      1.0000 0.60420  0.06961  0.18216  Biso   1.000  H
  H23      1.0000 0.89580  0.56961  0.31784  Biso   1.000  H
  H24      1.0000 0.10420  0.56961  0.18216  Biso   1.000  H
  C37      1.0000 0.56390  0.95820  0.58620  Biso   1.000  C
  C38      1.0000 0.43610  0.95820  0.91380  Biso   1.000  C
  C39      1.0000 0.06390  0.45820  0.58620  Biso   1.000  C
  C40      1.0000 0.93610  0.45820  0.91380  Biso   1.000  C
  C41      1.0000 0.43610  0.04180  0.41380  Biso   1.000  C
  C42      1.0000 0.56390  0.04180  0.08620  Biso   1.000  C
  C43      1.0000 0.93610  0.54180  0.41380  Biso   1.000  C
  C44      1.0000 0.06390  0.54180  0.08620  Biso   1.000  C
  H25      1.0000 0.60796  0.92220  0.58066  Biso   1.000  H
  H26      1.0000 0.39204  0.92220  0.91934  Biso   1.000  H
  H27      1.0000 0.10796  0.42220  0.58066  Biso   1.000  H
  H28      1.0000 0.89204  0.42220  0.91934  Biso   1.000  H
  H29      1.0000 0.39204  0.07780  0.41934  Biso   1.000  H
  H30      1.0000 0.60796  0.07780  0.08066  Biso   1.000  H
  H31      1.0000 0.89204  0.57780  0.41934  Biso   1.000  H
  H32      1.0000 0.10796  0.57780  0.08066  Biso   1.000  H
  C45      1.0000 0.55180  0.26950  0.73120  Biso   1.000  C
  C46      1.0000 0.44820  0.26950  0.76880  Biso   1.000  C
  C47      1.0000 0.05180  0.76950  0.73120  Biso   1.000  C
  C48      1.0000 0.94820  0.76950  0.76880  Biso   1.000  C
  C49      1.0000 0.44820  0.73050  0.26880  Biso   1.000  C
  C50      1.0000 0.55180  0.73050  0.23120  Biso   1.000  C
  C51      1.0000 0.94820  0.23050  0.26880  Biso   1.000  C
  C52      1.0000 0.05180  0.23050  0.23120  Biso   1.000  C
  H33      1.0000 0.58833  0.22794  0.71830  Biso   1.000  H
  H34      1.0000 0.41167  0.22794  0.78170  Biso   1.000  H
  H35      1.0000 0.08833  0.72794  0.71830  Biso   1.000  H
  H36      1.0000 0.91167  0.72794  0.78170  Biso   1.000  H
  H37      1.0000 0.41167  0.77206  0.28170  Biso   1.000  H
  H38      1.0000 0.58833  0.77206  0.21830  Biso   1.000  H
  H39      1.0000 0.91167  0.27206  0.28170  Biso   1.000  H
  H40      1.0000 0.08833  0.27206  0.21830  Biso   1.000  H
  C53      1.0000 0.43950  0.06520  0.54670  Biso   1.000  C
  C54      1.0000 0.56050  0.06520  0.95330  Biso   1.000  C
  C55      1.0000 0.93950  0.56520  0.54670  Biso   1.000  C
  C56      1.0000 0.06050  0.56520  0.95330  Biso   1.000  C
  C57      1.0000 0.56050  0.93480  0.45330  Biso   1.000  C
  C58      1.0000 0.43950  0.93480  0.04670  Biso   1.000  C
  C59      1.0000 0.06050  0.43480  0.45330  Biso   1.000  C
  C60      1.0000 0.93950  0.43480  0.04670  Biso   1.000  C
  H41      1.0000 0.39644  0.10139  0.51305  Biso   1.000  H
  H42      1.0000 0.60356  0.10139  0.98695  Biso   1.000  H
  H43      1.0000 0.89644  0.60139  0.51305  Biso   1.000  H
  H44      1.0000 0.10356  0.60139  0.98695  Biso   1.000  H
  H45      1.0000 0.60356  0.89861  0.48695  Biso   1.000  H
  H46      1.0000 0.39644  0.89861  0.01305  Biso   1.000  H
  H47      1.0000 0.10356  0.39861  0.48695  Biso   1.000  H
  H48      1.0000 0.89644  0.39861  0.01305  Biso   1.000  H
  C61      1.0000 0.50000  0.59360  0.75000  Biso   1.000  C
  C62      1.0000 0.00000  0.09360  0.75000  Biso   1.000  C
  C63      1.0000 0.50000  0.40640  0.25000  Biso   1.000  C
  C64      1.0000 0.00000  0.90640  0.25000  Biso   1.000  C
  C65      1.0000 0.42830  0.65900  0.72770  Biso   1.000  C
  C66      1.0000 0.57170  0.65900  0.77230  Biso   1.000  C
  C67      1.0000 0.92830  0.15900  0.72770  Biso   1.000  C
  C68      1.0000 0.07170  0.15900  0.77230  Biso   1.000  C
  C69      1.0000 0.57170  0.34100  0.27230  Biso   1.000  C
  C70      1.0000 0.42830  0.34100  0.22770  Biso   1.000  C
  C71      1.0000 0.07170  0.84100  0.27230  Biso   1.000  C
  C72      1.0000 0.92830  0.84100  0.22770  Biso   1.000  C
  H49      1.0000 0.37846  0.61896  0.71278  Biso   1.000  H
  H50      1.0000 0.62154  0.61896  0.78722  Biso   1.000  H
  H51      1.0000 0.87846  0.11896  0.71278  Biso   1.000  H
  H52      1.0000 0.12154  0.11896  0.78722  Biso   1.000  H
  H53      1.0000 0.62154  0.38104  0.28722  Biso   1.000  H
  H54      1.0000 0.37846  0.38104  0.21278  Biso   1.000  H
  H55      1.0000 0.12154  0.88104  0.28722  Biso   1.000  H
  H56      1.0000 0.87846  0.88104  0.21278  Biso   1.000  H
  C73      1.0000 0.43080  0.78430  0.72750  Biso   1.000  C
  C74      1.0000 0.56920  0.78430  0.77250  Biso   1.000  C
  C75      1.0000 0.93080  0.28430  0.72750  Biso   1.000  C
  C76      1.0000 0.06920  0.28430  0.77250  Biso   1.000  C
  C77      1.0000 0.56920  0.21570  0.27250  Biso   1.000  C
  C78      1.0000 0.43080  0.21570  0.22750  Biso   1.000  C
  C79      1.0000 0.06920  0.71570  0.27250  Biso   1.000  C
  C80      1.0000 0.93080  0.71570  0.22750  Biso   1.000  C
  H57      1.0000 0.38222  0.82749  0.71104  Biso   1.000  H
  H58      1.0000 0.61778  0.82749  0.78896  Biso   1.000  H
  H59      1.0000 0.88222  0.32749  0.71104  Biso   1.000  H
  H60      1.0000 0.11778  0.32749  0.78896  Biso   1.000  H
  H61      1.0000 0.61778  0.17251  0.28896  Biso   1.000  H
  H62      1.0000 0.38222  0.17251  0.21104  Biso   1.000  H
  H63      1.0000 0.11778  0.67251  0.28896  Biso   1.000  H
  H64      1.0000 0.88222  0.67251  0.21104  Biso   1.000  H
  N13      1.0000 0.50000  0.84320  0.75000  Biso   1.000  N
  N14      1.0000 0.00000  0.34320  0.75000  Biso   1.000  N
  N15      1.0000 0.50000  0.15680  0.25000  Biso   1.000  N
  N16      1.0000 0.00000  0.65680  0.25000  Biso   1.000  N
  O1       1.0000 0.95460  0.18290  0.58060  Biso   1.000  O
  O2       1.0000 0.04540  0.18290  0.91940  Biso   1.000  O
  O3       1.0000 0.45460  0.68290  0.58060  Biso   1.000  O
  O4       1.0000 0.54540  0.68290  0.91940  Biso   1.000  O
  O5       1.0000 0.04540  0.81710  0.41940  Biso   1.000  O
  O6       1.0000 0.95460  0.81710  0.08060  Biso   1.000  O
  O7       1.0000 0.54540  0.31710  0.41940  Biso   1.000  O
  O8       1.0000 0.45460  0.31710  0.08060  Biso   1.000  O
  H65      1.0000 0.91352  0.22346  0.57363  Biso   1.000  H
  H66      1.0000 0.08648  0.22346  0.92637  Biso   1.000  H
  H67      1.0000 0.41352  0.72346  0.57363  Biso   1.000  H
  H68      1.0000 0.58648  0.72346  0.92637  Biso   1.000  H
  H69      1.0000 0.08648  0.77654  0.42637  Biso   1.000  H
  H70      1.0000 0.91352  0.77654  0.07363  Biso   1.000  H
  H71      1.0000 0.58648  0.27654  0.42637  Biso   1.000  H
  H72      1.0000 0.41352  0.27654  0.07363  Biso   1.000  H
  O9       1.0000 0.92590  0.21230  0.47560  Biso   1.000  O
  O10      1.0000 0.07410  0.21230  0.02440  Biso   1.000  O
  O11      1.0000 0.42590  0.71230  0.47560  Biso   1.000  O
  O12      1.0000 0.57410  0.71230  0.02440  Biso   1.000  O
  O13      1.0000 0.07410  0.78770  0.52440  Biso   1.000  O
  O14      1.0000 0.92590  0.78770  0.97560  Biso   1.000  O
  O15      1.0000 0.57410  0.28770  0.52440  Biso   1.000  O
  O16      1.0000 0.42590  0.28770  0.97560  Biso   1.000  O
  C81      1.0000 0.05660  0.13810  0.54210  Biso   1.000  C
  C82      1.0000 0.94340  0.13810  0.95790  Biso   1.000  C
  C83      1.0000 0.55660  0.63810  0.54210  Biso   1.000  C
  C84      1.0000 0.44340  0.63810  0.95790  Biso   1.000  C
  C85      1.0000 0.94340  0.86190  0.45790  Biso   1.000  C
  C86      1.0000 0.05660  0.86190  0.04210  Biso   1.000  C
  C87      1.0000 0.44340  0.36190  0.45790  Biso   1.000  C
  C88      1.0000 0.55660  0.36190  0.04210  Biso   1.000  C
  C89      1.0000 0.18990  0.07690  0.61490  Biso   1.000  C
  C90      1.0000 0.81010  0.07690  0.88510  Biso   1.000  C
  C91      1.0000 0.68990  0.57690  0.61490  Biso   1.000  C
  C92      1.0000 0.31010  0.57690  0.88510  Biso   1.000  C
  C93      1.0000 0.81010  0.92310  0.38510  Biso   1.000  C
  C94      1.0000 0.18990  0.92310  0.11490  Biso   1.000  C
  C95      1.0000 0.31010  0.42310  0.38510  Biso   1.000  C
  C96      1.0000 0.68990  0.42310  0.11490  Biso   1.000  C
  C97      1.0000 0.11050  0.11360  0.60410  Biso   1.000  C
  C98      1.0000 0.88950  0.11360  0.89590  Biso   1.000  C
  C99      1.0000 0.61050  0.61360  0.60410  Biso   1.000  C
  C100     1.0000 0.38950  0.61360  0.89590  Biso   1.000  C
  C101     1.0000 0.88950  0.88640  0.39590  Biso   1.000  C
  C102     1.0000 0.11050  0.88640  0.10410  Biso   1.000  C
  C103     1.0000 0.38950  0.38640  0.39590  Biso   1.000  C
  C104     1.0000 0.61050  0.38640  0.10410  Biso   1.000  C
  H73      1.0000 0.09444  0.12135  0.63887  Biso   1.000  H
  H74      1.0000 0.90556  0.12135  0.86113  Biso   1.000  H
  H75      1.0000 0.59444  0.62135  0.63887  Biso   1.000  H
  H76      1.0000 0.40556  0.62135  0.86113  Biso   1.000  H
  H77      1.0000 0.90556  0.87865  0.36113  Biso   1.000  H
  H78      1.0000 0.09444  0.87865  0.13887  Biso   1.000  H
  H79      1.0000 0.40556  0.37865  0.36113  Biso   1.000  H
  H80      1.0000 0.59444  0.37865  0.13887  Biso   1.000  H
  C105     1.0000 0.21270  0.06410  0.56360  Biso   1.000  C
  C106     1.0000 0.78730  0.06410  0.93640  Biso   1.000  C
  C107     1.0000 0.71270  0.56410  0.56360  Biso   1.000  C
  C108     1.0000 0.28730  0.56410  0.93640  Biso   1.000  C
  C109     1.0000 0.78730  0.93590  0.43640  Biso   1.000  C
  C110     1.0000 0.21270  0.93590  0.06360  Biso   1.000  C
  C111     1.0000 0.28730  0.43590  0.43640  Biso   1.000  C
  C112     1.0000 0.71270  0.43590  0.06360  Biso   1.000  C
  H81      1.0000 0.26509  0.03800  0.57080  Biso   1.000  H
  H82      1.0000 0.73491  0.03800  0.92920  Biso   1.000  H
  H83      1.0000 0.76509  0.53800  0.57080  Biso   1.000  H
  H84      1.0000 0.23491  0.53800  0.92920  Biso   1.000  H
  H85      1.0000 0.73491  0.96200  0.42920  Biso   1.000  H
  H86      1.0000 0.26509  0.96200  0.07080  Biso   1.000  H
  H87      1.0000 0.23491  0.46200  0.42920  Biso   1.000  H
  H88      1.0000 0.76509  0.46200  0.07080  Biso   1.000  H
  C113     1.0000 0.97180  0.18220  0.52870  Biso   1.000  C
  C114     1.0000 0.02820  0.18220  0.97130  Biso   1.000  C
  C115     1.0000 0.47180  0.68220  0.52870  Biso   1.000  C
  C116     1.0000 0.52820  0.68220  0.97130  Biso   1.000  C
  C117     1.0000 0.02820  0.81780  0.47130  Biso   1.000  C
  C118     1.0000 0.97180  0.81780  0.02870  Biso   1.000  C
  C119     1.0000 0.52820  0.31780  0.47130  Biso   1.000  C
  C120     1.0000 0.47180  0.31780  0.02870  Biso   1.000  C
  C121     1.0000 0.16010  0.08880  0.50240  Biso   1.000  C
  C122     1.0000 0.83990  0.08880  0.99760  Biso   1.000  C
  C123     1.0000 0.66010  0.58880  0.50240  Biso   1.000  C
  C124     1.0000 0.33990  0.58880  0.99760  Biso   1.000  C
  C125     1.0000 0.83990  0.91120  0.49760  Biso   1.000  C
  C126     1.0000 0.16010  0.91120  0.00240  Biso   1.000  C
  C127     1.0000 0.33990  0.41120  0.49760  Biso   1.000  C
  C128     1.0000 0.66010  0.41120  0.00240  Biso   1.000  C
  C129     1.0000 0.08130  0.12690  0.49110  Biso   1.000  C
  C130     1.0000 0.91870  0.12690  0.00890  Biso   1.000  C
  C131     1.0000 0.58130  0.62690  0.49110  Biso   1.000  C
  C132     1.0000 0.41870  0.62690  0.00890  Biso   1.000  C
  C133     1.0000 0.91870  0.87310  0.50890  Biso   1.000  C
  C134     1.0000 0.08130  0.87310  0.99110  Biso   1.000  C
  C135     1.0000 0.41870  0.37310  0.50890  Biso   1.000  C
  C136     1.0000 0.58130  0.37310  0.99110  Biso   1.000  C
  H89      1.0000 0.04528  0.14489  0.44901  Biso   1.000  H
  H90      1.0000 0.95472  0.14489  0.05099  Biso   1.000  H
  H91      1.0000 0.54528  0.64489  0.44901  Biso   1.000  H
  H92      1.0000 0.45472  0.64489  0.05099  Biso   1.000  H
  H93      1.0000 0.95472  0.85511  0.55099  Biso   1.000  H
  H94      1.0000 0.04528  0.85511  0.94901  Biso   1.000  H
  H95      1.0000 0.45472  0.35511  0.55099  Biso   1.000  H
  H96      1.0000 0.54528  0.35511  0.94901  Biso   1.000  H
  O17      1.0000 0.25350  0.99230  0.46260  Biso   1.000  O
  O18      1.0000 0.74650  0.99230  0.03740  Biso   1.000  O
  O19      1.0000 0.75350  0.49230  0.46260  Biso   1.000  O
  O20      1.0000 0.24650  0.49230  0.03740  Biso   1.000  O
  O21      1.0000 0.74650  0.00770  0.53740  Biso   1.000  O
  O22      1.0000 0.25350  0.00770  0.96260  Biso   1.000  O
  O23      1.0000 0.24650  0.50770  0.53740  Biso   1.000  O
  O24      1.0000 0.75350  0.50770  0.96260  Biso   1.000  O
  O25      1.0000 0.15130  0.12750  0.39770  Biso   1.000  O
  O26      1.0000 0.84870  0.12750  0.10230  Biso   1.000  O
  O27      1.0000 0.65130  0.62750  0.39770  Biso   1.000  O
  O28      1.0000 0.34870  0.62750  0.10230  Biso   1.000  O
  O29      1.0000 0.84870  0.87250  0.60230  Biso   1.000  O
  O30      1.0000 0.15130  0.87250  0.89770  Biso   1.000  O
  O31      1.0000 0.34870  0.37250  0.60230  Biso   1.000  O
  O32      1.0000 0.65130  0.37250  0.89770  Biso   1.000  O
  C137     1.0000 0.19030  0.06970  0.45030  Biso   1.000  C
  C138     1.0000 0.80970  0.06970  0.04970  Biso   1.000  C
  C139     1.0000 0.69030  0.56970  0.45030  Biso   1.000  C
  C140     1.0000 0.30970  0.56970  0.04970  Biso   1.000  C
  C141     1.0000 0.80970  0.93030  0.54970  Biso   1.000  C
  C142     1.0000 0.19030  0.93030  0.95030  Biso   1.000  C
  C143     1.0000 0.30970  0.43030  0.54970  Biso   1.000  C
  C144     1.0000 0.69030  0.43030  0.95030  Biso   1.000  C
  S1       1.0000 0.26048  0.04850  0.69663  Biso   1.000  S
  S2       1.0000 0.73952  0.04850  0.80337  Biso   1.000  S
  S3       1.0000 0.76048  0.54850  0.69663  Biso   1.000  S
  S4       1.0000 0.23952  0.54850  0.80337  Biso   1.000  S
  S5       1.0000 0.73952  0.95150  0.30337  Biso   1.000  S
  S6       1.0000 0.26048  0.95150  0.19663  Biso   1.000  S
  S7       1.0000 0.23952  0.45150  0.30337  Biso   1.000  S
  S8       1.0000 0.76048  0.45150  0.19663  Biso   1.000  S
  O33      1.0000 0.25150  0.14750  0.73640  Biso   1.000  O
  O34      1.0000 0.74850  0.14750  0.76360  Biso   1.000  O
  O35      1.0000 0.75150  0.64750  0.73640  Biso   1.000  O
  O36      1.0000 0.24850  0.64750  0.76360  Biso   1.000  O
  O37      1.0000 0.74850  0.85250  0.26360  Biso   1.000  O
  O38      1.0000 0.25150  0.85250  0.23640  Biso   1.000  O
  O39      1.0000 0.24850  0.35250  0.26360  Biso   1.000  O
  O40      1.0000 0.75150  0.35250  0.23640  Biso   1.000  O
  O41      1.0000 0.34060  0.04540  0.69530  Biso   1.000  O
  O42      1.0000 0.65940  0.04540  0.80470  Biso   1.000  O
  O43      1.0000 0.84060  0.54540  0.69530  Biso   1.000  O
  O44      1.0000 0.15940  0.54540  0.80470  Biso   1.000  O
  O45      1.0000 0.65940  0.95460  0.30470  Biso   1.000  O
  O46      1.0000 0.34060  0.95460  0.19530  Biso   1.000  O
  O47      1.0000 0.15940  0.45460  0.30470  Biso   1.000  O
  O48      1.0000 0.84060  0.45460  0.19530  Biso   1.000  O
  O49      1.0000 0.23460  0.93270  0.71300  Biso   1.000  O
  O50      1.0000 0.76540  0.93270  0.78700  Biso   1.000  O
  O51      1.0000 0.73460  0.43270  0.71300  Biso   1.000  O
  O52      1.0000 0.26540  0.43270  0.78700  Biso   1.000  O
  O53      1.0000 0.76540  0.06730  0.28700  Biso   1.000  O
  O54      1.0000 0.23460  0.06730  0.21300  Biso   1.000  O
  O55      1.0000 0.26540  0.56730  0.28700  Biso   1.000  O
  O56      1.0000 0.73460  0.56730  0.21300  Biso   1.000  O
  O57      1.0000 0.71640  0.20810  0.62600  Biso   1.000  O
  O58      1.0000 0.28360  0.20810  0.87400  Biso   1.000  O
  O59      1.0000 0.21640  0.70810  0.62600  Biso   1.000  O
  O60      1.0000 0.78360  0.70810  0.87400  Biso   1.000  O
  O61      1.0000 0.28360  0.79190  0.37400  Biso   1.000  O
  O62      1.0000 0.71640  0.79190  0.12600  Biso   1.000  O
  O63      1.0000 0.78360  0.29190  0.37400  Biso   1.000  O
  O64      1.0000 0.21640  0.29190  0.12600  Biso   1.000  O
  H97      1.0000 0.66608  0.21185  0.60171  Biso   1.000  H
  H98      1.0000 0.33392  0.21185  0.89829  Biso   1.000  H
  H99      1.0000 0.16608  0.71185  0.60171  Biso   1.000  H
  H100     1.0000 0.83392  0.71185  0.89829  Biso   1.000  H
  H101     1.0000 0.33392  0.78815  0.39829  Biso   1.000  H
  H102     1.0000 0.66608  0.78815  0.10171  Biso   1.000  H
  H103     1.0000 0.83392  0.28815  0.39829  Biso   1.000  H
  H104     1.0000 0.16608  0.28815  0.10171  Biso   1.000  H
  H105     1.0000 0.74437  0.23361  0.60516  Biso   1.000  H
  H106     1.0000 0.25563  0.23361  0.89484  Biso   1.000  H
  H107     1.0000 0.24437  0.73361  0.60516  Biso   1.000  H
  H108     1.0000 0.75563  0.73361  0.89484  Biso   1.000  H
  H109     1.0000 0.25563  0.76639  0.39484  Biso   1.000  H
  H110     1.0000 0.74437  0.76639  0.10516  Biso   1.000  H
  H111     1.0000 0.75563  0.26639  0.39484  Biso   1.000  H
  H112     1.0000 0.24437  0.26639  0.10516  Biso   1.000  H
  O65      1.0000 0.68260  0.21070  0.43590  Biso   1.000  O
  O66      1.0000 0.31740  0.21070  0.06410  Biso   1.000  O
  O67      1.0000 0.18260  0.71070  0.43590  Biso   1.000  O
  O68      1.0000 0.81740  0.71070  0.06410  Biso   1.000  O
  O69      1.0000 0.31740  0.78930  0.56410  Biso   1.000  O
  O70      1.0000 0.68260  0.78930  0.93590  Biso   1.000  O
  O71      1.0000 0.81740  0.28930  0.56410  Biso   1.000  O
  O72      1.0000 0.18260  0.28930  0.93590  Biso   1.000  O
  O73      1.0000 0.25030  0.40040  0.66580  Biso   1.000  O
  O74      1.0000 0.74970  0.40040  0.83420  Biso   1.000  O
  O75      1.0000 0.75030  0.90040  0.66580  Biso   1.000  O
  O76      1.0000 0.24970  0.90040  0.83420  Biso   1.000  O
  O77      1.0000 0.74970  0.59960  0.33420  Biso   1.000  O
  O78      1.0000 0.25030  0.59960  0.16580  Biso   1.000  O
  O79      1.0000 0.24970  0.09960  0.33420  Biso   1.000  O
  O80      1.0000 0.75030  0.09960  0.16580  Biso   1.000  O
  H113     1.0000 0.27714  0.44141  0.64876  Biso   1.000  H
  H114     1.0000 0.72286  0.44141  0.85124  Biso   1.000  H
  H115     1.0000 0.77714  0.94141  0.64876  Biso   1.000  H
  H116     1.0000 0.22286  0.94141  0.85124  Biso   1.000  H
  H117     1.0000 0.72286  0.55859  0.35124  Biso   1.000  H
  H118     1.0000 0.27714  0.55859  0.14876  Biso   1.000  H
  H119     1.0000 0.22286  0.05859  0.35124  Biso   1.000  H
  H120     1.0000 0.77714  0.05859  0.14876  Biso   1.000  H
  H121     1.0000 0.26100  0.42556  0.70427  Biso   1.000  H
  H122     1.0000 0.73900  0.42556  0.79573  Biso   1.000  H
  H123     1.0000 0.76100  0.92556  0.70427  Biso   1.000  H
  H124     1.0000 0.23900  0.92556  0.79573  Biso   1.000  H
  H125     1.0000 0.73900  0.57444  0.29573  Biso   1.000  H
  H126     1.0000 0.26100  0.57444  0.20427  Biso   1.000  H
  H127     1.0000 0.23900  0.07444  0.29573  Biso   1.000  H
  H128     1.0000 0.76100  0.07444  0.20427  Biso   1.000  H
  O81      1.0000 0.24760  0.08700  0.44520  Biso   1.000  O
  O82      1.0000 0.75240  0.08700  0.05480  Biso   1.000  O
  O83      1.0000 0.74760  0.58700  0.44520  Biso   1.000  O
  O84      1.0000 0.25240  0.58700  0.05480  Biso   1.000  O
  O85      1.0000 0.75240  0.91300  0.55480  Biso   1.000  O
  O86      1.0000 0.24760  0.91300  0.94520  Biso   1.000  O
  O87      1.0000 0.25240  0.41300  0.55480  Biso   1.000  O
  O88      1.0000 0.74760  0.41300  0.94520  Biso   1.000  O
