data_image0
_cell_length_a       11.728
_cell_length_b       6.853
_cell_length_c       20.166
_cell_angle_alpha    90
_cell_angle_beta     92.328
_cell_angle_gamma    90

_symmetry_space_group_name_H-M    "P 1"
_symmetry_int_tables_number       1

loop_
  _symmetry_equiv_pos_as_xyz
  'x, y, z'

loop_
  _atom_site_label
  _atom_site_occupancy
  _atom_site_fract_x
  _atom_site_fract_y
  _atom_site_fract_z
  _atom_site_thermal_displace_type
  _atom_site_B_iso_or_equiv
  _atom_site_type_symbol
  Cu1      1.0000 0.27722  0.00000  0.47511  Biso   1.000  Cu
  Cu2      1.0000 0.72278  0.00000  0.52489  Biso   1.000  Cu
  Cu3      1.0000 0.77722  0.50000  0.97511  Biso   1.000  Cu
  Cu4      1.0000 0.22278  0.50000  0.02489  Biso   1.000  Cu
  S1       1.0000 0.51916  0.00000  0.84576  Biso   1.000  S
  S2       1.0000 0.48084  0.00000  0.15424  Biso   1.000  S
  S3       1.0000 0.01916  0.50000  0.34576  Biso   1.000  S
  S4       1.0000 0.98084  0.50000  0.65424  Biso   1.000  S
  O1       1.0000 0.42650  0.00000  0.57961  Biso   1.000  O
  O2       1.0000 0.57350  0.00000  0.42039  Biso   1.000  O
  O3       1.0000 0.92650  0.50000  0.07961  Biso   1.000  O
  O4       1.0000 0.07350  0.50000  0.92039  Biso   1.000  O
  O5       1.0000 0.35680  0.00000  0.38987  Biso   1.000  O
  O6       1.0000 0.64320  0.00000  0.61013  Biso   1.000  O
  O7       1.0000 0.85680  0.50000  0.88987  Biso   1.000  O
  O8       1.0000 0.14320  0.50000  0.11013  Biso   1.000  O
  O9       1.0000 0.23930  0.00000  0.56841  Biso   1.000  O
  O10      1.0000 0.76070  0.00000  0.43159  Biso   1.000  O
  O11      1.0000 0.73930  0.50000  0.06841  Biso   1.000  O
  O12      1.0000 0.26070  0.50000  0.93159  Biso   1.000  O
  N1       1.0000 0.28374  0.29800  0.47744  Biso   1.000  N
  N2       1.0000 0.71626  0.29800  0.52256  Biso   1.000  N
  N3       1.0000 0.78374  0.79800  0.97744  Biso   1.000  N
  N4       1.0000 0.21626  0.79800  0.02256  Biso   1.000  N
  N5       1.0000 0.71626  0.70200  0.52256  Biso   1.000  N
  N6       1.0000 0.28374  0.70200  0.47744  Biso   1.000  N
  N7       1.0000 0.21626  0.20200  0.02256  Biso   1.000  N
  N8       1.0000 0.78374  0.20200  0.97744  Biso   1.000  N
  O13      1.0000 0.61860  0.00000  0.80745  Biso   1.000  O
  O14      1.0000 0.38140  0.00000  0.19255  Biso   1.000  O
  O15      1.0000 0.11860  0.50000  0.30745  Biso   1.000  O
  O16      1.0000 0.88140  0.50000  0.69255  Biso   1.000  O
  O17      1.0000 0.50390  0.17100  0.88615  Biso   1.000  O
  O18      1.0000 0.49610  0.17100  0.11385  Biso   1.000  O
  O19      1.0000 0.00390  0.67100  0.38615  Biso   1.000  O
  O20      1.0000 0.99610  0.67100  0.61385  Biso   1.000  O
  O21      1.0000 0.49610  0.82900  0.11385  Biso   1.000  O
  O22      1.0000 0.50390  0.82900  0.88615  Biso   1.000  O
  O23      1.0000 0.99610  0.32900  0.61385  Biso   1.000  O
  O24      1.0000 0.00390  0.32900  0.38615  Biso   1.000  O
  C1       1.0000 0.32990  0.00000  0.60377  Biso   1.000  C
  C2       1.0000 0.67010  0.00000  0.39623  Biso   1.000  C
  C3       1.0000 0.82990  0.50000  0.10377  Biso   1.000  C
  C4       1.0000 0.17010  0.50000  0.89623  Biso   1.000  C
  C5       1.0000 0.20900  0.00000  0.70297  Biso   1.000  C
  C6       1.0000 0.79100  0.00000  0.29703  Biso   1.000  C
  C7       1.0000 0.70900  0.50000  0.20297  Biso   1.000  C
  C8       1.0000 0.29100  0.50000  0.79703  Biso   1.000  C
  H1       1.0000 0.14484  0.00000  0.67433  Biso   1.000  H
  H2       1.0000 0.85516  0.00000  0.32567  Biso   1.000  H
  H3       1.0000 0.64484  0.50000  0.17433  Biso   1.000  H
  H4       1.0000 0.35516  0.50000  0.82567  Biso   1.000  H
  O25      1.0000 0.11100  0.00000  0.42610  Biso   1.000  O
  O26      1.0000 0.88900  0.00000  0.57390  Biso   1.000  O
  O27      1.0000 0.61100  0.50000  0.92610  Biso   1.000  O
  O28      1.0000 0.38900  0.50000  0.07390  Biso   1.000  O
  C9       1.0000 0.08320  0.00000  0.80120  Biso   1.000  C
  C10      1.0000 0.91680  0.00000  0.19880  Biso   1.000  C
  C11      1.0000 0.58320  0.50000  0.30120  Biso   1.000  C
  C12      1.0000 0.41680  0.50000  0.69880  Biso   1.000  C
  C13      1.0000 0.40030  0.00000  0.78845  Biso   1.000  C
  C14      1.0000 0.59970  0.00000  0.21155  Biso   1.000  C
  C15      1.0000 0.90030  0.50000  0.28845  Biso   1.000  C
  C16      1.0000 0.09970  0.50000  0.71155  Biso   1.000  C
  C17      1.0000 0.19710  0.00000  0.77134  Biso   1.000  C
  C18      1.0000 0.80290  0.00000  0.22866  Biso   1.000  C
  C19      1.0000 0.69710  0.50000  0.27134  Biso   1.000  C
  C20      1.0000 0.30290  0.50000  0.72866  Biso   1.000  C
  C21      1.0000 0.19820  0.39870  0.50234  Biso   1.000  C
  C22      1.0000 0.80180  0.39870  0.49766  Biso   1.000  C
  C23      1.0000 0.69820  0.89870  0.00234  Biso   1.000  C
  C24      1.0000 0.30180  0.89870  0.99766  Biso   1.000  C
  C25      1.0000 0.80180  0.60130  0.49766  Biso   1.000  C
  C26      1.0000 0.19820  0.60130  0.50234  Biso   1.000  C
  C27      1.0000 0.30180  0.10130  0.99766  Biso   1.000  C
  C28      1.0000 0.69820  0.10130  0.00234  Biso   1.000  C
  H5       1.0000 0.13734  0.33211  0.52002  Biso   1.000  H
  H6       1.0000 0.86266  0.33211  0.47998  Biso   1.000  H
  H7       1.0000 0.63734  0.83211  0.02002  Biso   1.000  H
  H8       1.0000 0.36266  0.83211  0.97998  Biso   1.000  H
  H9       1.0000 0.86266  0.66789  0.47998  Biso   1.000  H
  H10      1.0000 0.13734  0.66789  0.52002  Biso   1.000  H
  H11      1.0000 0.36266  0.16789  0.97998  Biso   1.000  H
  H12      1.0000 0.63734  0.16789  0.02002  Biso   1.000  H
  C29      1.0000 0.29270  0.00000  0.81374  Biso   1.000  C
  C30      1.0000 0.70730  0.00000  0.18626  Biso   1.000  C
  C31      1.0000 0.79270  0.50000  0.31374  Biso   1.000  C
  C32      1.0000 0.20730  0.50000  0.68626  Biso   1.000  C
  H13      1.0000 0.28453  0.00000  0.85942  Biso   1.000  H
  H14      1.0000 0.71547  0.00000  0.14058  Biso   1.000  H
  H15      1.0000 0.78453  0.50000  0.35942  Biso   1.000  H
  H16      1.0000 0.21547  0.50000  0.64058  Biso   1.000  H
  C33      1.0000 0.37030  0.39890  0.45377  Biso   1.000  C
  C34      1.0000 0.62970  0.39890  0.54623  Biso   1.000  C
  C35      1.0000 0.87030  0.89890  0.95377  Biso   1.000  C
  C36      1.0000 0.12970  0.89890  0.04623  Biso   1.000  C
  C37      1.0000 0.62970  0.60110  0.54623  Biso   1.000  C
  C38      1.0000 0.37030  0.60110  0.45377  Biso   1.000  C
  C39      1.0000 0.12970  0.10110  0.04623  Biso   1.000  C
  C40      1.0000 0.87030  0.10110  0.95377  Biso   1.000  C
  H17      1.0000 0.43192  0.33238  0.43693  Biso   1.000  H
  H18      1.0000 0.56808  0.33238  0.56307  Biso   1.000  H
  H19      1.0000 0.93192  0.83238  0.93693  Biso   1.000  H
  H20      1.0000 0.06808  0.83238  0.06307  Biso   1.000  H
  H21      1.0000 0.56808  0.66762  0.56307  Biso   1.000  H
  H22      1.0000 0.43192  0.66762  0.43693  Biso   1.000  H
  H23      1.0000 0.06808  0.16762  0.06307  Biso   1.000  H
  H24      1.0000 0.93192  0.16762  0.93693  Biso   1.000  H
  O29      1.0000 0.07140  0.00000  0.85988  Biso   1.000  O
  O30      1.0000 0.92860  0.00000  0.14012  Biso   1.000  O
  O31      1.0000 0.57140  0.50000  0.35988  Biso   1.000  O
  O32      1.0000 0.42860  0.50000  0.64012  Biso   1.000  O
  C41      1.0000 0.41290  0.00000  0.72088  Biso   1.000  C
  C42      1.0000 0.58710  0.00000  0.27912  Biso   1.000  C
  C43      1.0000 0.91290  0.50000  0.22088  Biso   1.000  C
  C44      1.0000 0.08710  0.50000  0.77912  Biso   1.000  C
  H25      1.0000 0.48552  0.00000  0.70404  Biso   1.000  H
  H26      1.0000 0.51448  0.00000  0.29596  Biso   1.000  H
  H27      1.0000 0.98552  0.50000  0.20404  Biso   1.000  H
  H28      1.0000 0.01448  0.50000  0.79596  Biso   1.000  H
  O33      1.0000 0.99810  0.00000  0.75721  Biso   1.000  O
  O34      1.0000 0.00190  0.00000  0.24279  Biso   1.000  O
  O35      1.0000 0.49810  0.50000  0.25721  Biso   1.000  O
  O36      1.0000 0.50190  0.50000  0.74279  Biso   1.000  O
  C45      1.0000 0.31770  0.00000  0.67781  Biso   1.000  C
  C46      1.0000 0.68230  0.00000  0.32219  Biso   1.000  C
  C47      1.0000 0.81770  0.50000  0.17781  Biso   1.000  C
  C48      1.0000 0.18230  0.50000  0.82219  Biso   1.000  C
  O37      1.0000 0.30850  0.26080  0.29470  Biso   1.000  O
  O38      1.0000 0.69150  0.26080  0.70530  Biso   1.000  O
  O39      1.0000 0.80850  0.76080  0.79470  Biso   1.000  O
  O40      1.0000 0.19150  0.76080  0.20530  Biso   1.000  O
  O41      1.0000 0.69150  0.73920  0.70530  Biso   1.000  O
  O42      1.0000 0.30850  0.73920  0.29470  Biso   1.000  O
  O43      1.0000 0.19150  0.23920  0.20530  Biso   1.000  O
  O44      1.0000 0.80850  0.23920  0.79470  Biso   1.000  O
  H29      1.0000 0.26100  0.16800  0.28500  Biso   1.000  H
  H30      1.0000 0.73900  0.16800  0.71500  Biso   1.000  H
  H31      1.0000 0.76100  0.66800  0.78500  Biso   1.000  H
  H32      1.0000 0.23900  0.66800  0.21500  Biso   1.000  H
  H33      1.0000 0.73900  0.83200  0.71500  Biso   1.000  H
  H34      1.0000 0.26100  0.83200  0.28500  Biso   1.000  H
  H35      1.0000 0.23900  0.33200  0.21500  Biso   1.000  H
  H36      1.0000 0.76100  0.33200  0.78500  Biso   1.000  H
  H37      1.0000 0.26800  0.36400  0.29800  Biso   1.000  H
  H38      1.0000 0.73200  0.36400  0.70200  Biso   1.000  H
  H39      1.0000 0.76800  0.86400  0.79800  Biso   1.000  H
  H40      1.0000 0.23200  0.86400  0.20200  Biso   1.000  H
  H41      1.0000 0.73200  0.63600  0.70200  Biso   1.000  H
  H42      1.0000 0.26800  0.63600  0.29800  Biso   1.000  H
  H43      1.0000 0.23200  0.13600  0.20200  Biso   1.000  H
  H44      1.0000 0.76800  0.13600  0.79800  Biso   1.000  H
  H45      1.0000 0.42800  0.02000  0.39300  Biso   1.000  H
  H46      1.0000 0.57200  0.02000  0.60700  Biso   1.000  H
  H47      1.0000 0.92800  0.52000  0.89300  Biso   1.000  H
  H48      1.0000 0.07200  0.52000  0.10700  Biso   1.000  H
  H49      1.0000 0.57200  0.98000  0.60700  Biso   1.000  H
  H50      1.0000 0.42800  0.98000  0.39300  Biso   1.000  H
  H51      1.0000 0.07200  0.48000  0.10700  Biso   1.000  H
  H52      1.0000 0.92800  0.48000  0.89300  Biso   1.000  H
  H53      1.0000 0.08700  0.90800  0.40100  Biso   1.000  H
  H54      1.0000 0.91300  0.90800  0.59900  Biso   1.000  H
  H55      1.0000 0.58700  0.40800  0.90100  Biso   1.000  H
  H56      1.0000 0.41300  0.40800  0.09900  Biso   1.000  H
  H57      1.0000 0.91300  0.09200  0.59900  Biso   1.000  H
  H58      1.0000 0.08700  0.09200  0.40100  Biso   1.000  H
  H59      1.0000 0.41300  0.59200  0.09900  Biso   1.000  H
  H60      1.0000 0.58700  0.59200  0.90100  Biso   1.000  H
  H61      1.0000 0.07200  0.09900  0.41900  Biso   1.000  H
  H62      1.0000 0.92800  0.09900  0.58100  Biso   1.000  H
  H63      1.0000 0.57200  0.59900  0.91900  Biso   1.000  H
  H64      1.0000 0.42800  0.59900  0.08100  Biso   1.000  H
  H65      1.0000 0.92800  0.90100  0.58100  Biso   1.000  H
  H66      1.0000 0.07200  0.90100  0.41900  Biso   1.000  H
  H67      1.0000 0.42800  0.40100  0.08100  Biso   1.000  H
  H68      1.0000 0.57200  0.40100  0.91900  Biso   1.000  H
  H69      1.0000 0.94145  0.95339  0.77371  Biso   1.000  H
  H70      1.0000 0.05855  0.95339  0.22629  Biso   1.000  H
  H71      1.0000 0.44145  0.45339  0.27371  Biso   1.000  H
  H72      1.0000 0.55855  0.45339  0.72629  Biso   1.000  H
  H73      1.0000 0.05855  0.04661  0.22629  Biso   1.000  H
  H74      1.0000 0.94145  0.04661  0.77371  Biso   1.000  H
  H75      1.0000 0.55855  0.54661  0.72629  Biso   1.000  H
  H76      1.0000 0.44145  0.54661  0.27371  Biso   1.000  H
  H77      1.0000 0.32500  0.05800  0.35740  Biso   1.000  H
  H78      1.0000 0.67500  0.05800  0.64260  Biso   1.000  H
  H79      1.0000 0.82500  0.55800  0.85740  Biso   1.000  H
  H80      1.0000 0.17500  0.55800  0.14260  Biso   1.000  H
  H81      1.0000 0.67500  0.94200  0.64260  Biso   1.000  H
  H82      1.0000 0.32500  0.94200  0.35740  Biso   1.000  H
  H83      1.0000 0.17500  0.44200  0.14260  Biso   1.000  H
  H84      1.0000 0.82500  0.44200  0.85740  Biso   1.000  H
