data_image0
_cell_length_a       24.024
_cell_length_b       11.135
_cell_length_c       16.298
_cell_angle_alpha    90
_cell_angle_beta     107.004
_cell_angle_gamma    90

_symmetry_space_group_name_H-M    "P 1"
_symmetry_int_tables_number       1

loop_
  _symmetry_equiv_pos_as_xyz
  'x, y, z'

loop_
  _atom_site_label
  _atom_site_occupancy
  _atom_site_fract_x
  _atom_site_fract_y
  _atom_site_fract_z
  _atom_site_thermal_displace_type
  _atom_site_B_iso_or_equiv
  _atom_site_type_symbol
  Cu1      1.0000 0.53225  0.37119  0.66340  Biso   1.000  Cu
  Cu2      1.0000 0.46775  0.37119  0.83660  Biso   1.000  Cu
  Cu3      1.0000 0.03225  0.87119  0.66340  Biso   1.000  Cu
  Cu4      1.0000 0.96775  0.87119  0.83660  Biso   1.000  Cu
  Cu5      1.0000 0.46775  0.62881  0.33660  Biso   1.000  Cu
  Cu6      1.0000 0.53225  0.62881  0.16340  Biso   1.000  Cu
  Cu7      1.0000 0.96775  0.12881  0.33660  Biso   1.000  Cu
  Cu8      1.0000 0.03225  0.12881  0.16340  Biso   1.000  Cu
  O1       1.0000 0.58423  0.36417  0.78978  Biso   1.000  O
  O2       1.0000 0.41577  0.36417  0.71022  Biso   1.000  O
  O3       1.0000 0.08423  0.86417  0.78978  Biso   1.000  O
  O4       1.0000 0.91577  0.86417  0.71022  Biso   1.000  O
  O5       1.0000 0.41577  0.63583  0.21022  Biso   1.000  O
  O6       1.0000 0.58423  0.63583  0.28978  Biso   1.000  O
  O7       1.0000 0.91577  0.13583  0.21022  Biso   1.000  O
  O8       1.0000 0.08423  0.13583  0.28978  Biso   1.000  O
  C1       1.0000 0.65130  0.38510  0.92690  Biso   1.000  C
  C2       1.0000 0.34870  0.38510  0.57310  Biso   1.000  C
  C3       1.0000 0.15130  0.88510  0.92690  Biso   1.000  C
  C4       1.0000 0.84870  0.88510  0.57310  Biso   1.000  C
  C5       1.0000 0.34870  0.61490  0.07310  Biso   1.000  C
  C6       1.0000 0.65130  0.61490  0.42690  Biso   1.000  C
  C7       1.0000 0.84870  0.11490  0.07310  Biso   1.000  C
  C8       1.0000 0.15130  0.11490  0.42690  Biso   1.000  C
  N1       1.0000 0.53203  0.18970  0.65833  Biso   1.000  N
  N2       1.0000 0.46797  0.18970  0.84167  Biso   1.000  N
  N3       1.0000 0.03203  0.68970  0.65833  Biso   1.000  N
  N4       1.0000 0.96797  0.68970  0.84167  Biso   1.000  N
  N5       1.0000 0.46797  0.81030  0.34167  Biso   1.000  N
  N6       1.0000 0.53203  0.81030  0.15833  Biso   1.000  N
  N7       1.0000 0.96797  0.31030  0.34167  Biso   1.000  N
  N8       1.0000 0.03203  0.31030  0.15833  Biso   1.000  N
  C9       1.0000 0.58180  0.00570  0.70645  Biso   1.000  C
  C10      1.0000 0.41820  0.00570  0.79355  Biso   1.000  C
  C11      1.0000 0.08180  0.50570  0.70645  Biso   1.000  C
  C12      1.0000 0.91820  0.50570  0.79355  Biso   1.000  C
  C13      1.0000 0.41820  0.99430  0.29355  Biso   1.000  C
  C14      1.0000 0.58180  0.99430  0.20645  Biso   1.000  C
  C15      1.0000 0.91820  0.49430  0.29355  Biso   1.000  C
  C16      1.0000 0.08180  0.49430  0.20645  Biso   1.000  C
  H1       1.0000 0.61494  0.96728  0.74038  Biso   1.000  H
  H2       1.0000 0.38506  0.96728  0.75962  Biso   1.000  H
  H3       1.0000 0.11494  0.46728  0.74038  Biso   1.000  H
  H4       1.0000 0.88506  0.46728  0.75962  Biso   1.000  H
  H5       1.0000 0.38506  0.03272  0.25962  Biso   1.000  H
  H6       1.0000 0.61494  0.03272  0.24038  Biso   1.000  H
  H7       1.0000 0.88506  0.53272  0.25962  Biso   1.000  H
  H8       1.0000 0.11494  0.53272  0.24038  Biso   1.000  H
  C17      1.0000 0.53540  0.93820  0.65716  Biso   1.000  C
  C18      1.0000 0.46460  0.93820  0.84284  Biso   1.000  C
  C19      1.0000 0.03540  0.43820  0.65716  Biso   1.000  C
  C20      1.0000 0.96460  0.43820  0.84284  Biso   1.000  C
  C21      1.0000 0.46460  0.06180  0.34284  Biso   1.000  C
  C22      1.0000 0.53540  0.06180  0.15716  Biso   1.000  C
  C23      1.0000 0.96460  0.56180  0.34284  Biso   1.000  C
  C24      1.0000 0.03540  0.56180  0.15716  Biso   1.000  C
  C25      1.0000 0.76390  0.41260  0.03523  Biso   1.000  C
  C26      1.0000 0.23610  0.41260  0.46477  Biso   1.000  C
  C27      1.0000 0.26390  0.91260  0.03523  Biso   1.000  C
  C28      1.0000 0.73610  0.91260  0.46477  Biso   1.000  C
  C29      1.0000 0.23610  0.58740  0.96477  Biso   1.000  C
  C30      1.0000 0.76390  0.58740  0.53523  Biso   1.000  C
  C31      1.0000 0.73610  0.08740  0.96477  Biso   1.000  C
  C32      1.0000 0.26390  0.08740  0.53523  Biso   1.000  C
  H9       1.0000 0.80166  0.42053  0.07132  Biso   1.000  H
  H10      1.0000 0.19834  0.42053  0.42868  Biso   1.000  H
  H11      1.0000 0.30166  0.92053  0.07132  Biso   1.000  H
  H12      1.0000 0.69834  0.92053  0.42868  Biso   1.000  H
  H13      1.0000 0.19834  0.57947  0.92868  Biso   1.000  H
  H14      1.0000 0.80166  0.57947  0.57132  Biso   1.000  H
  H15      1.0000 0.69834  0.07947  0.92868  Biso   1.000  H
  H16      1.0000 0.30166  0.07947  0.57132  Biso   1.000  H
  C33      1.0000 0.66078  0.39590  0.01475  Biso   1.000  C
  C34      1.0000 0.33922  0.39590  0.48525  Biso   1.000  C
  C35      1.0000 0.16078  0.89590  0.01475  Biso   1.000  C
  C36      1.0000 0.83922  0.89590  0.48525  Biso   1.000  C
  C37      1.0000 0.33922  0.60410  0.98525  Biso   1.000  C
  C38      1.0000 0.66078  0.60410  0.51475  Biso   1.000  C
  C39      1.0000 0.83922  0.10410  0.98525  Biso   1.000  C
  C40      1.0000 0.16078  0.10410  0.51475  Biso   1.000  C
  H17      1.0000 0.62949  0.39381  0.03743  Biso   1.000  H
  H18      1.0000 0.37051  0.39381  0.46257  Biso   1.000  H
  H19      1.0000 0.12949  0.89381  0.03743  Biso   1.000  H
  H20      1.0000 0.87051  0.89381  0.46257  Biso   1.000  H
  H21      1.0000 0.37051  0.60619  0.96257  Biso   1.000  H
  H22      1.0000 0.62949  0.60619  0.53743  Biso   1.000  H
  H23      1.0000 0.87051  0.10619  0.96257  Biso   1.000  H
  H24      1.0000 0.12949  0.10619  0.53743  Biso   1.000  H
  C41      1.0000 0.71716  0.40990  0.06894  Biso   1.000  C
  C42      1.0000 0.28284  0.40990  0.43106  Biso   1.000  C
  C43      1.0000 0.21716  0.90990  0.06894  Biso   1.000  C
  C44      1.0000 0.78284  0.90990  0.43106  Biso   1.000  C
  C45      1.0000 0.28284  0.59010  0.93106  Biso   1.000  C
  C46      1.0000 0.71716  0.59010  0.56894  Biso   1.000  C
  C47      1.0000 0.78284  0.09010  0.93106  Biso   1.000  C
  C48      1.0000 0.21716  0.09010  0.56894  Biso   1.000  C
  C49      1.0000 0.75380  0.40340  0.94742  Biso   1.000  C
  C50      1.0000 0.24620  0.40340  0.55258  Biso   1.000  C
  C51      1.0000 0.25380  0.90340  0.94742  Biso   1.000  C
  C52      1.0000 0.74620  0.90340  0.55258  Biso   1.000  C
  C53      1.0000 0.24620  0.59660  0.05258  Biso   1.000  C
  C54      1.0000 0.75380  0.59660  0.44742  Biso   1.000  C
  C55      1.0000 0.74620  0.09660  0.05258  Biso   1.000  C
  C56      1.0000 0.25380  0.09660  0.44742  Biso   1.000  C
  C57      1.0000 0.69771  0.38940  0.89269  Biso   1.000  C
  C58      1.0000 0.30229  0.38940  0.60731  Biso   1.000  C
  C59      1.0000 0.19771  0.88940  0.89269  Biso   1.000  C
  C60      1.0000 0.80229  0.88940  0.60731  Biso   1.000  C
  C61      1.0000 0.30229  0.61060  0.10731  Biso   1.000  C
  C62      1.0000 0.69771  0.61060  0.39269  Biso   1.000  C
  C63      1.0000 0.80229  0.11060  0.10731  Biso   1.000  C
  C64      1.0000 0.19771  0.11060  0.39269  Biso   1.000  C
  H25      1.0000 0.69141  0.38296  0.83377  Biso   1.000  H
  H26      1.0000 0.30859  0.38296  0.66623  Biso   1.000  H
  H27      1.0000 0.19141  0.88296  0.83377  Biso   1.000  H
  H28      1.0000 0.80859  0.88296  0.66623  Biso   1.000  H
  H29      1.0000 0.30859  0.61704  0.16623  Biso   1.000  H
  H30      1.0000 0.69141  0.61704  0.33377  Biso   1.000  H
  H31      1.0000 0.80859  0.11704  0.16623  Biso   1.000  H
  H32      1.0000 0.19141  0.11704  0.33377  Biso   1.000  H
  C65      1.0000 0.48744  0.00170  0.60667  Biso   1.000  C
  C66      1.0000 0.51256  0.00170  0.89333  Biso   1.000  C
  C67      1.0000 0.98744  0.50170  0.60667  Biso   1.000  C
  C68      1.0000 0.01256  0.50170  0.89333  Biso   1.000  C
  C69      1.0000 0.51256  0.99830  0.39333  Biso   1.000  C
  C70      1.0000 0.48744  0.99830  0.10667  Biso   1.000  C
  C71      1.0000 0.01256  0.49830  0.39333  Biso   1.000  C
  C72      1.0000 0.98744  0.49830  0.10667  Biso   1.000  C
  H33      1.0000 0.45569  0.96048  0.57152  Biso   1.000  H
  H34      1.0000 0.54431  0.96048  0.92848  Biso   1.000  H
  H35      1.0000 0.95569  0.46048  0.57152  Biso   1.000  H
  H36      1.0000 0.04431  0.46048  0.92848  Biso   1.000  H
  H37      1.0000 0.54431  0.03952  0.42848  Biso   1.000  H
  H38      1.0000 0.45569  0.03952  0.07152  Biso   1.000  H
  H39      1.0000 0.04431  0.53952  0.42848  Biso   1.000  H
  H40      1.0000 0.95569  0.53952  0.07152  Biso   1.000  H
  C73      1.0000 0.57890  0.12940  0.70530  Biso   1.000  C
  C74      1.0000 0.42110  0.12940  0.79470  Biso   1.000  C
  C75      1.0000 0.07890  0.62940  0.70530  Biso   1.000  C
  C76      1.0000 0.92110  0.62940  0.79470  Biso   1.000  C
  C77      1.0000 0.42110  0.87060  0.29470  Biso   1.000  C
  C78      1.0000 0.57890  0.87060  0.20530  Biso   1.000  C
  C79      1.0000 0.92110  0.37060  0.29470  Biso   1.000  C
  C80      1.0000 0.07890  0.37060  0.20530  Biso   1.000  C
  H41      1.0000 0.61067  0.17276  0.73829  Biso   1.000  H
  H42      1.0000 0.38933  0.17276  0.76171  Biso   1.000  H
  H43      1.0000 0.11067  0.67276  0.73829  Biso   1.000  H
  H44      1.0000 0.88933  0.67276  0.76171  Biso   1.000  H
  H45      1.0000 0.38933  0.82724  0.26171  Biso   1.000  H
  H46      1.0000 0.61067  0.82724  0.23829  Biso   1.000  H
  H47      1.0000 0.88933  0.32724  0.26171  Biso   1.000  H
  H48      1.0000 0.11067  0.32724  0.23829  Biso   1.000  H
  C81      1.0000 0.48717  0.12580  0.60900  Biso   1.000  C
  C82      1.0000 0.51283  0.12580  0.89100  Biso   1.000  C
  C83      1.0000 0.98717  0.62580  0.60900  Biso   1.000  C
  C84      1.0000 0.01283  0.62580  0.89100  Biso   1.000  C
  C85      1.0000 0.51283  0.87420  0.39100  Biso   1.000  C
  C86      1.0000 0.48717  0.87420  0.10900  Biso   1.000  C
  C87      1.0000 0.01283  0.37420  0.39100  Biso   1.000  C
  C88      1.0000 0.98717  0.37420  0.10900  Biso   1.000  C
  H49      1.0000 0.45478  0.16654  0.57512  Biso   1.000  H
  H50      1.0000 0.54522  0.16654  0.92488  Biso   1.000  H
  H51      1.0000 0.95478  0.66654  0.57512  Biso   1.000  H
  H52      1.0000 0.04522  0.66654  0.92488  Biso   1.000  H
  H53      1.0000 0.54522  0.83346  0.42488  Biso   1.000  H
  H54      1.0000 0.45478  0.83346  0.07512  Biso   1.000  H
  H55      1.0000 0.04522  0.33346  0.42488  Biso   1.000  H
  H56      1.0000 0.95478  0.33346  0.07512  Biso   1.000  H
  C89      1.0000 0.59031  0.37413  0.86813  Biso   1.000  C
  C90      1.0000 0.40969  0.37413  0.63187  Biso   1.000  C
  C91      1.0000 0.09031  0.87413  0.86813  Biso   1.000  C
  C92      1.0000 0.90969  0.87413  0.63187  Biso   1.000  C
  C93      1.0000 0.40969  0.62587  0.13187  Biso   1.000  C
  C94      1.0000 0.59031  0.62587  0.36813  Biso   1.000  C
  C95      1.0000 0.90969  0.12587  0.13187  Biso   1.000  C
  C96      1.0000 0.09031  0.12587  0.36813  Biso   1.000  C
  C97      1.0000 0.53656  0.80530  0.65800  Biso   1.000  C
  C98      1.0000 0.46344  0.80530  0.84200  Biso   1.000  C
  C99      1.0000 0.03656  0.30530  0.65800  Biso   1.000  C
  C100     1.0000 0.96344  0.30530  0.84200  Biso   1.000  C
  C101     1.0000 0.46344  0.19470  0.34200  Biso   1.000  C
  C102     1.0000 0.53656  0.19470  0.15800  Biso   1.000  C
  C103     1.0000 0.96344  0.69470  0.34200  Biso   1.000  C
  C104     1.0000 0.03656  0.69470  0.15800  Biso   1.000  C
  C105     1.0000 0.57237  0.74180  0.72620  Biso   1.000  C
  C106     1.0000 0.42763  0.74180  0.77380  Biso   1.000  C
  C107     1.0000 0.07237  0.24180  0.72620  Biso   1.000  C
  C108     1.0000 0.92763  0.24180  0.77380  Biso   1.000  C
  C109     1.0000 0.42763  0.25820  0.27380  Biso   1.000  C
  C110     1.0000 0.57237  0.25820  0.22620  Biso   1.000  C
  C111     1.0000 0.92763  0.75820  0.27380  Biso   1.000  C
  C112     1.0000 0.07237  0.75820  0.22620  Biso   1.000  C
  H57      1.0000 0.59765  0.78270  0.77179  Biso   1.000  H
  H58      1.0000 0.40235  0.78270  0.72821  Biso   1.000  H
  H59      1.0000 0.09765  0.28270  0.77179  Biso   1.000  H
  H60      1.0000 0.90235  0.28270  0.72821  Biso   1.000  H
  H61      1.0000 0.40235  0.21730  0.22821  Biso   1.000  H
  H62      1.0000 0.59765  0.21730  0.27179  Biso   1.000  H
  H63      1.0000 0.90235  0.71730  0.22821  Biso   1.000  H
  H64      1.0000 0.09765  0.71730  0.27179  Biso   1.000  H
  C113     1.0000 0.57064  0.61760  0.72660  Biso   1.000  C
  C114     1.0000 0.42936  0.61760  0.77340  Biso   1.000  C
  C115     1.0000 0.07064  0.11760  0.72660  Biso   1.000  C
  C116     1.0000 0.92936  0.11760  0.77340  Biso   1.000  C
  C117     1.0000 0.42936  0.38240  0.27340  Biso   1.000  C
  C118     1.0000 0.57064  0.38240  0.22660  Biso   1.000  C
  C119     1.0000 0.92936  0.88240  0.27340  Biso   1.000  C
  C120     1.0000 0.07064  0.88240  0.22660  Biso   1.000  C
  H65      1.0000 0.59575  0.57694  0.77248  Biso   1.000  H
  H66      1.0000 0.40425  0.57694  0.72752  Biso   1.000  H
  H67      1.0000 0.09575  0.07694  0.77248  Biso   1.000  H
  H68      1.0000 0.90425  0.07694  0.72752  Biso   1.000  H
  H69      1.0000 0.40425  0.42306  0.22752  Biso   1.000  H
  H70      1.0000 0.59575  0.42306  0.27248  Biso   1.000  H
  H71      1.0000 0.90425  0.92306  0.22752  Biso   1.000  H
  H72      1.0000 0.09575  0.92306  0.27248  Biso   1.000  H
  N9       1.0000 0.53454  0.55340  0.66398  Biso   1.000  N
  N10      1.0000 0.46546  0.55340  0.83602  Biso   1.000  N
  N11      1.0000 0.03454  0.05340  0.66398  Biso   1.000  N
  N12      1.0000 0.96546  0.05340  0.83602  Biso   1.000  N
  N13      1.0000 0.46546  0.44660  0.33602  Biso   1.000  N
  N14      1.0000 0.53454  0.44660  0.16398  Biso   1.000  N
  N15      1.0000 0.96546  0.94660  0.33602  Biso   1.000  N
  N16      1.0000 0.03454  0.94660  0.16398  Biso   1.000  N
  C121     1.0000 0.50067  0.61430  0.59660  Biso   1.000  C
  C122     1.0000 0.49933  0.61430  0.90340  Biso   1.000  C
  C123     1.0000 0.00067  0.11430  0.59660  Biso   1.000  C
  C124     1.0000 0.99933  0.11430  0.90340  Biso   1.000  C
  C125     1.0000 0.49933  0.38570  0.40340  Biso   1.000  C
  C126     1.0000 0.50067  0.38570  0.09660  Biso   1.000  C
  C127     1.0000 0.99933  0.88570  0.40340  Biso   1.000  C
  C128     1.0000 0.00067  0.88570  0.09660  Biso   1.000  C
  H73      1.0000 0.47616  0.57124  0.55145  Biso   1.000  H
  H74      1.0000 0.52384  0.57124  0.94855  Biso   1.000  H
  H75      1.0000 0.97616  0.07124  0.55145  Biso   1.000  H
  H76      1.0000 0.02384  0.07124  0.94855  Biso   1.000  H
  H77      1.0000 0.52384  0.42876  0.44855  Biso   1.000  H
  H78      1.0000 0.47616  0.42876  0.05145  Biso   1.000  H
  H79      1.0000 0.02384  0.92876  0.44855  Biso   1.000  H
  H80      1.0000 0.97616  0.92876  0.05145  Biso   1.000  H
  C129     1.0000 0.50064  0.73780  0.59139  Biso   1.000  C
  C130     1.0000 0.49936  0.73780  0.90861  Biso   1.000  C
  C131     1.0000 0.00064  0.23780  0.59139  Biso   1.000  C
  C132     1.0000 0.99936  0.23780  0.90861  Biso   1.000  C
  C133     1.0000 0.49936  0.26220  0.40861  Biso   1.000  C
  C134     1.0000 0.50064  0.26220  0.09139  Biso   1.000  C
  C135     1.0000 0.99936  0.76220  0.40861  Biso   1.000  C
  C136     1.0000 0.00064  0.76220  0.09139  Biso   1.000  C
  H81      1.0000 0.47660  0.77620  0.54333  Biso   1.000  H
  H82      1.0000 0.52340  0.77620  0.95667  Biso   1.000  H
  H83      1.0000 0.97660  0.27620  0.54333  Biso   1.000  H
  H84      1.0000 0.02340  0.27620  0.95667  Biso   1.000  H
  H85      1.0000 0.52340  0.22380  0.45667  Biso   1.000  H
  H86      1.0000 0.47660  0.22380  0.04333  Biso   1.000  H
  H87      1.0000 0.02340  0.72380  0.45667  Biso   1.000  H
  H88      1.0000 0.97660  0.72380  0.04333  Biso   1.000  H
  O9       1.0000 0.78011  0.40430  0.20892  Biso   1.000  O
  O10      1.0000 0.21989  0.40430  0.29108  Biso   1.000  O
  O11      1.0000 0.28011  0.90430  0.20892  Biso   1.000  O
  O12      1.0000 0.71989  0.90430  0.29108  Biso   1.000  O
  O13      1.0000 0.21989  0.59570  0.79108  Biso   1.000  O
  O14      1.0000 0.78011  0.59570  0.70892  Biso   1.000  O
  O15      1.0000 0.71989  0.09570  0.79108  Biso   1.000  O
  O16      1.0000 0.28011  0.09570  0.70892  Biso   1.000  O
  O17      1.0000 0.68866  0.45990  0.19275  Biso   1.000  O
  O18      1.0000 0.31134  0.45990  0.30725  Biso   1.000  O
  O19      1.0000 0.18866  0.95990  0.19275  Biso   1.000  O
  O20      1.0000 0.81134  0.95990  0.30725  Biso   1.000  O
  O21      1.0000 0.31134  0.54010  0.80725  Biso   1.000  O
  O22      1.0000 0.68866  0.54010  0.69275  Biso   1.000  O
  O23      1.0000 0.81134  0.04010  0.80725  Biso   1.000  O
  O24      1.0000 0.18866  0.04010  0.69275  Biso   1.000  O
  C137     1.0000 0.72646  0.42690  0.16280  Biso   1.000  C
  C138     1.0000 0.27354  0.42690  0.33720  Biso   1.000  C
  C139     1.0000 0.22646  0.92690  0.16280  Biso   1.000  C
  C140     1.0000 0.77354  0.92690  0.33720  Biso   1.000  C
  C141     1.0000 0.27354  0.57310  0.83720  Biso   1.000  C
  C142     1.0000 0.72646  0.57310  0.66280  Biso   1.000  C
  C143     1.0000 0.77354  0.07310  0.83720  Biso   1.000  C
  C144     1.0000 0.22646  0.07310  0.66280  Biso   1.000  C
  S1       1.0000 0.81274  0.42235  0.90362  Biso   1.000  S
  S2       1.0000 0.18726  0.42235  0.59638  Biso   1.000  S
  S3       1.0000 0.31274  0.92235  0.90362  Biso   1.000  S
  S4       1.0000 0.68726  0.92235  0.59638  Biso   1.000  S
  S5       1.0000 0.18726  0.57765  0.09638  Biso   1.000  S
  S6       1.0000 0.81274  0.57765  0.40362  Biso   1.000  S
  S7       1.0000 0.68726  0.07765  0.09638  Biso   1.000  S
  S8       1.0000 0.31274  0.07765  0.40362  Biso   1.000  S
  O25      1.0000 0.54966  0.37711  0.90267  Biso   1.000  O
  O26      1.0000 0.45034  0.37711  0.59733  Biso   1.000  O
  O27      1.0000 0.04966  0.87711  0.90267  Biso   1.000  O
  O28      1.0000 0.95034  0.87711  0.59733  Biso   1.000  O
  O29      1.0000 0.45034  0.62289  0.09733  Biso   1.000  O
  O30      1.0000 0.54966  0.62289  0.40267  Biso   1.000  O
  O31      1.0000 0.95034  0.12289  0.09733  Biso   1.000  O
  O32      1.0000 0.04966  0.12289  0.40267  Biso   1.000  O
  O33      1.0000 0.80584  0.54820  0.87329  Biso   1.000  O
  O34      1.0000 0.19416  0.54820  0.62671  Biso   1.000  O
  O35      1.0000 0.30584  0.04820  0.87329  Biso   1.000  O
  O36      1.0000 0.69416  0.04820  0.62671  Biso   1.000  O
  O37      1.0000 0.19416  0.45180  0.12671  Biso   1.000  O
  O38      1.0000 0.80584  0.45180  0.37329  Biso   1.000  O
  O39      1.0000 0.69416  0.95180  0.12671  Biso   1.000  O
  O40      1.0000 0.30584  0.95180  0.37329  Biso   1.000  O
  O41      1.0000 0.80398  0.33980  0.83306  Biso   1.000  O
  O42      1.0000 0.19602  0.33980  0.66694  Biso   1.000  O
  O43      1.0000 0.30398  0.83980  0.83306  Biso   1.000  O
  O44      1.0000 0.69602  0.83980  0.66694  Biso   1.000  O
  O45      1.0000 0.19602  0.66020  0.16694  Biso   1.000  O
  O46      1.0000 0.80398  0.66020  0.33306  Biso   1.000  O
  O47      1.0000 0.69602  0.16020  0.16694  Biso   1.000  O
  O48      1.0000 0.30398  0.16020  0.33306  Biso   1.000  O
  O49      1.0000 0.86524  0.40560  0.97273  Biso   1.000  O
  O50      1.0000 0.13476  0.40560  0.52727  Biso   1.000  O
  O51      1.0000 0.36524  0.90560  0.97273  Biso   1.000  O
  O52      1.0000 0.63476  0.90560  0.52727  Biso   1.000  O
  O53      1.0000 0.13476  0.59440  0.02727  Biso   1.000  O
  O54      1.0000 0.86524  0.59440  0.47273  Biso   1.000  O
  O55      1.0000 0.63476  0.09440  0.02727  Biso   1.000  O
  O56      1.0000 0.36524  0.09440  0.47273  Biso   1.000  O
  O57      1.0000 0.60152  0.37990  0.61190  Biso   1.000  O
  O58      1.0000 0.39848  0.37990  0.88810  Biso   1.000  O
  O59      1.0000 0.10152  0.87990  0.61190  Biso   1.000  O
  O60      1.0000 0.89848  0.87990  0.88810  Biso   1.000  O
  O61      1.0000 0.39848  0.62010  0.38810  Biso   1.000  O
  O62      1.0000 0.60152  0.62010  0.11190  Biso   1.000  O
  O63      1.0000 0.89848  0.12010  0.38810  Biso   1.000  O
  O64      1.0000 0.10152  0.12010  0.11190  Biso   1.000  O
  H89      1.0000 0.60362  0.31458  0.58546  Biso   1.000  H
  H90      1.0000 0.39638  0.31458  0.91454  Biso   1.000  H
  H91      1.0000 0.10362  0.81458  0.58546  Biso   1.000  H
  H92      1.0000 0.89638  0.81458  0.91454  Biso   1.000  H
  H93      1.0000 0.39638  0.68542  0.41454  Biso   1.000  H
  H94      1.0000 0.60362  0.68542  0.08546  Biso   1.000  H
  H95      1.0000 0.89638  0.18542  0.41454  Biso   1.000  H
  H96      1.0000 0.10362  0.18542  0.08546  Biso   1.000  H
  H97      1.0000 0.63315  0.38993  0.65220  Biso   1.000  H
  H98      1.0000 0.36685  0.38993  0.84780  Biso   1.000  H
  H99      1.0000 0.13315  0.88993  0.65220  Biso   1.000  H
  H100     1.0000 0.86685  0.88993  0.84780  Biso   1.000  H
  H101     1.0000 0.36685  0.61007  0.34780  Biso   1.000  H
  H102     1.0000 0.63315  0.61007  0.15220  Biso   1.000  H
  H103     1.0000 0.86685  0.11007  0.34780  Biso   1.000  H
  H104     1.0000 0.13315  0.11007  0.15220  Biso   1.000  H
  H105     1.0000 0.78610  0.42300  0.24900  Biso   1.000  H
  H106     1.0000 0.21390  0.42300  0.25100  Biso   1.000  H
  H107     1.0000 0.28610  0.92300  0.24900  Biso   1.000  H
  H108     1.0000 0.71390  0.92300  0.25100  Biso   1.000  H
  H109     1.0000 0.21390  0.57700  0.75100  Biso   1.000  H
  H110     1.0000 0.78610  0.57700  0.74900  Biso   1.000  H
  H111     1.0000 0.71390  0.07700  0.75100  Biso   1.000  H
  H112     1.0000 0.28610  0.07700  0.74900  Biso   1.000  H
  O65      1.0000 0.63408  0.22030  0.51300  Biso   1.000  O
  O66      1.0000 0.36592  0.22030  0.98700  Biso   1.000  O
  O67      1.0000 0.13408  0.72030  0.51300  Biso   1.000  O
  O68      1.0000 0.86592  0.72030  0.98700  Biso   1.000  O
  O69      1.0000 0.36592  0.77970  0.48700  Biso   1.000  O
  O70      1.0000 0.63408  0.77970  0.01300  Biso   1.000  O
  O71      1.0000 0.86592  0.27970  0.48700  Biso   1.000  O
  O72      1.0000 0.13408  0.27970  0.01300  Biso   1.000  O
  H113     1.0000 0.65065  0.15593  0.53571  Biso   1.000  H
  H114     1.0000 0.34935  0.15593  0.96429  Biso   1.000  H
  H115     1.0000 0.15065  0.65593  0.53571  Biso   1.000  H
  H116     1.0000 0.84935  0.65593  0.96429  Biso   1.000  H
  H117     1.0000 0.34935  0.84407  0.46429  Biso   1.000  H
  H118     1.0000 0.65065  0.84407  0.03571  Biso   1.000  H
  H119     1.0000 0.84935  0.34407  0.46429  Biso   1.000  H
  H120     1.0000 0.15065  0.34407  0.03571  Biso   1.000  H
  H121     1.0000 0.62344  0.21306  0.45873  Biso   1.000  H
  H122     1.0000 0.37656  0.21306  0.04127  Biso   1.000  H
  H123     1.0000 0.12344  0.71306  0.45873  Biso   1.000  H
  H124     1.0000 0.87656  0.71306  0.04127  Biso   1.000  H
  H125     1.0000 0.37656  0.78694  0.54127  Biso   1.000  H
  H126     1.0000 0.62344  0.78694  0.95873  Biso   1.000  H
  H127     1.0000 0.87656  0.28694  0.54127  Biso   1.000  H
  H128     1.0000 0.12344  0.28694  0.95873  Biso   1.000  H
  O73      1.0000 0.78120  0.26660  0.64330  Biso   1.000  O
  O74      1.0000 0.21880  0.26660  0.85670  Biso   1.000  O
  O75      1.0000 0.28120  0.76660  0.64330  Biso   1.000  O
  O76      1.0000 0.71880  0.76660  0.85670  Biso   1.000  O
  O77      1.0000 0.21880  0.73340  0.35670  Biso   1.000  O
  O78      1.0000 0.78120  0.73340  0.14330  Biso   1.000  O
  O79      1.0000 0.71880  0.23340  0.35670  Biso   1.000  O
  O80      1.0000 0.28120  0.23340  0.14330  Biso   1.000  O
