data_image0
_cell_length_a       9.2017
_cell_length_b       9.3397
_cell_length_c       12.0119
_cell_angle_alpha    75.123
_cell_angle_beta     71.887
_cell_angle_gamma    61.701

_symmetry_space_group_name_H-M    "P 1"
_symmetry_int_tables_number       1

loop_
  _symmetry_equiv_pos_as_xyz
  'x, y, z'

loop_
  _atom_site_label
  _atom_site_occupancy
  _atom_site_fract_x
  _atom_site_fract_y
  _atom_site_fract_z
  _atom_site_thermal_displace_type
  _atom_site_B_iso_or_equiv
  _atom_site_type_symbol
  Cu1      1.0000 0.46560  0.20044  0.19232  Biso   1.000  Cu
  Cu2      1.0000 0.53440  0.79956  0.80768  Biso   1.000  Cu
  P1       1.0000 0.72052  0.09404  0.94965  Biso   1.000  P
  P2       1.0000 0.27948  0.90596  0.05035  Biso   1.000  P
  P3       1.0000 0.52079  0.50103  0.67599  Biso   1.000  P
  P4       1.0000 0.47921  0.49897  0.32401  Biso   1.000  P
  O1       1.0000 0.62957  0.20211  0.04725  Biso   1.000  O
  O2       1.0000 0.37043  0.79789  0.95275  Biso   1.000  O
  O3       1.0000 0.64946  0.97214  0.95737  Biso   1.000  O
  O4       1.0000 0.35054  0.02786  0.04263  Biso   1.000  O
  O5       1.0000 0.91157  0.99875  0.94105  Biso   1.000  O
  O6       1.0000 0.08843  0.00125  0.05895  Biso   1.000  O
  H1       1.0000 0.93590  0.01220  0.99830  Biso   1.000  H
  H2       1.0000 0.06410  0.98780  0.00170  Biso   1.000  H
  O7       1.0000 0.54145  0.61773  0.72736  Biso   1.000  O
  O8       1.0000 0.45855  0.38227  0.27264  Biso   1.000  O
  O9       1.0000 0.68478  0.42353  0.57620  Biso   1.000  O
  O10      1.0000 0.31522  0.57647  0.42380  Biso   1.000  O
  H3       1.0000 0.65570  0.43190  0.51420  Biso   1.000  H
  H4       1.0000 0.34430  0.56810  0.48580  Biso   1.000  H
  O11      1.0000 0.36631  0.57121  0.62486  Biso   1.000  O
  O12      1.0000 0.63369  0.42879  0.37514  Biso   1.000  O
  N1       1.0000 0.61766  0.99804  0.28528  Biso   1.000  N
  N2       1.0000 0.38234  0.00196  0.71472  Biso   1.000  N
  N3       1.0000 0.29753  0.13274  0.30493  Biso   1.000  N
  N4       1.0000 0.70247  0.86726  0.69507  Biso   1.000  N
  N5       1.0000 0.25157  0.37151  0.14067  Biso   1.000  N
  N6       1.0000 0.74843  0.62849  0.85933  Biso   1.000  N
  C1       1.0000 0.78530  0.93820  0.27099  Biso   1.000  C
  C2       1.0000 0.21470  0.06180  0.72901  Biso   1.000  C
  C3       1.0000 0.87460  0.80200  0.34290  Biso   1.000  C
  C4       1.0000 0.12540  0.19800  0.65710  Biso   1.000  C
  C5       1.0000 0.78860  0.72570  0.43189  Biso   1.000  C
  C6       1.0000 0.21140  0.27430  0.56811  Biso   1.000  C
  C7       1.0000 0.61470  0.78840  0.44808  Biso   1.000  C
  C8       1.0000 0.38530  0.21160  0.55192  Biso   1.000  C
  C9       1.0000 0.53330  0.92331  0.37339  Biso   1.000  C
  C10      1.0000 0.46670  0.07669  0.62661  Biso   1.000  C
  C11      1.0000 0.34870  0.99888  0.38287  Biso   1.000  C
  C12      1.0000 0.65130  0.00112  0.61713  Biso   1.000  C
  C13      1.0000 0.23450  0.94280  0.46180  Biso   1.000  C
  C14      1.0000 0.76550  0.05720  0.53820  Biso   1.000  C
  C15      1.0000 0.06310  0.02819  0.45819  Biso   1.000  C
  C16      1.0000 0.93690  0.97181  0.54181  Biso   1.000  C
  C17      1.0000 0.01370  0.16750  0.37418  Biso   1.000  C
  C18      1.0000 0.98630  0.83250  0.62582  Biso   1.000  C
  C19      1.0000 0.13540  0.21661  0.29868  Biso   1.000  C
  C20      1.0000 0.86460  0.78339  0.70132  Biso   1.000  C
  C21      1.0000 0.10690  0.36160  0.20687  Biso   1.000  C
  C22      1.0000 0.89310  0.63840  0.79313  Biso   1.000  C
  C23      1.0000 0.94890  0.48210  0.19230  Biso   1.000  C
  C24      1.0000 0.05110  0.51790  0.80770  Biso   1.000  C
  C25      1.0000 0.94030  0.61630  0.10645  Biso   1.000  C
  C26      1.0000 0.05970  0.38370  0.89355  Biso   1.000  C
  C27      1.0000 0.08780  0.62670  0.03960  Biso   1.000  C
  C28      1.0000 0.91220  0.37330  0.96040  Biso   1.000  C
  C29      1.0000 0.24120  0.50210  0.05978  Biso   1.000  C
  C30      1.0000 0.75880  0.49790  0.94022  Biso   1.000  C
  C31      1.0000 0.70290  0.22610  0.81197  Biso   1.000  C
  C32      1.0000 0.29710  0.77390  0.18803  Biso   1.000  C
  C33      1.0000 0.52590  0.32780  0.78720  Biso   1.000  C
  C34      1.0000 0.47410  0.67220  0.21280  Biso   1.000  C
  H5       1.0000 0.83300  0.99000  0.21300  Biso   1.000  H
  H6       1.0000 0.16700  0.01000  0.78700  Biso   1.000  H
  H7       1.0000 0.98800  0.76100  0.33200  Biso   1.000  H
  H8       1.0000 0.01200  0.23900  0.66800  Biso   1.000  H
  H9       1.0000 0.84700  0.63500  0.48000  Biso   1.000  H
  H10      1.0000 0.15300  0.36500  0.52000  Biso   1.000  H
  H11      1.0000 0.55000  0.74600  0.50800  Biso   1.000  H
  H12      1.0000 0.45000  0.25400  0.49200  Biso   1.000  H
  H13      1.0000 0.27400  0.85200  0.51600  Biso   1.000  H
  H14      1.0000 0.72600  0.14800  0.48400  Biso   1.000  H
  H15      1.0000 0.90300  0.22500  0.36900  Biso   1.000  H
  H16      1.0000 0.09700  0.77500  0.63100  Biso   1.000  H
  H17      1.0000 0.85500  0.47300  0.24000  Biso   1.000  H
  H18      1.0000 0.14500  0.52700  0.76000  Biso   1.000  H
  H19      1.0000 0.83800  0.69500  0.09500  Biso   1.000  H
  H20      1.0000 0.16200  0.30500  0.90500  Biso   1.000  H
  H21      1.0000 0.08300  0.71600  0.98300  Biso   1.000  H
  H22      1.0000 0.91700  0.28400  0.01700  Biso   1.000  H
  H23      1.0000 0.33800  0.51000  0.02000  Biso   1.000  H
  H24      1.0000 0.66200  0.49000  0.98000  Biso   1.000  H
  H25      1.0000 0.77700  0.16000  0.75100  Biso   1.000  H
  H26      1.0000 0.22300  0.84000  0.24900  Biso   1.000  H
  H27      1.0000 0.74600  0.29400  0.81800  Biso   1.000  H
  H28      1.0000 0.25400  0.70600  0.18200  Biso   1.000  H
  H29      1.0000 0.43800  0.37000  0.85900  Biso   1.000  H
  H30      1.0000 0.56200  0.63000  0.14100  Biso   1.000  H
  H31      1.0000 0.49300  0.26400  0.76300  Biso   1.000  H
  H32      1.0000 0.50700  0.73600  0.23700  Biso   1.000  H
