data_image0
_cell_length_a       9.4495
_cell_length_b       10.3887
_cell_length_c       11.8824
_cell_angle_alpha    115.412
_cell_angle_beta     99.167
_cell_angle_gamma    94.807

_symmetry_space_group_name_H-M    "P 1"
_symmetry_int_tables_number       1

loop_
  _symmetry_equiv_pos_as_xyz
  'x, y, z'

loop_
  _atom_site_label
  _atom_site_occupancy
  _atom_site_fract_x
  _atom_site_fract_y
  _atom_site_fract_z
  _atom_site_thermal_displace_type
  _atom_site_B_iso_or_equiv
  _atom_site_type_symbol
  Cu1      1.0000 0.14894  0.84168  0.39749  Biso   1.000  Cu
  Cu2      1.0000 0.85106  0.15832  0.60251  Biso   1.000  Cu
  P1       1.0000 0.01633  0.09471  0.35400  Biso   1.000  P
  P2       1.0000 0.98367  0.90529  0.64600  Biso   1.000  P
  P3       1.0000 0.71268  0.96427  0.98469  Biso   1.000  P
  P4       1.0000 0.28732  0.03573  0.01531  Biso   1.000  P
  O1       1.0000 0.04330  0.94240  0.32083  Biso   1.000  O
  O2       1.0000 0.95670  0.05760  0.67917  Biso   1.000  O
  O3       1.0000 0.14710  0.18420  0.33768  Biso   1.000  O
  O4       1.0000 0.85290  0.81580  0.66232  Biso   1.000  O
  O5       1.0000 0.60720  0.86680  0.01830  Biso   1.000  O
  O6       1.0000 0.39280  0.13320  0.98170  Biso   1.000  O
  O7       1.0000 0.74000  0.87880  0.85331  Biso   1.000  O
  O8       1.0000 0.26000  0.12120  0.14669  Biso   1.000  O
  O9       1.0000 0.65700  0.10410  0.00711  Biso   1.000  O
  O10      1.0000 0.34300  0.89590  0.99289  Biso   1.000  O
  O11      1.0000 0.99630  0.18160  0.48723  Biso   1.000  O
  O12      1.0000 0.00370  0.81840  0.51277  Biso   1.000  O
  O13      1.0000 0.56070  0.56160  0.92880  Biso   1.000  O
  O14      1.0000 0.43930  0.43840  0.07120  Biso   1.000  O
  O15      1.0000 0.64250  0.36970  0.23130  Biso   1.000  O
  O16      1.0000 0.35750  0.63030  0.76870  Biso   1.000  O
  O17      1.0000 0.89650  0.51940  0.41460  Biso   1.000  O
  O18      1.0000 0.10350  0.48060  0.58540  Biso   1.000  O
  N1       1.0000 0.30740  0.99710  0.54630  Biso   1.000  N
  N2       1.0000 0.69260  0.00290  0.45370  Biso   1.000  N
  N3       1.0000 0.28270  0.72160  0.42630  Biso   1.000  N
  N4       1.0000 0.71730  0.27840  0.57370  Biso   1.000  N
  N5       1.0000 0.05670  0.64530  0.24930  Biso   1.000  N
  N6       1.0000 0.94330  0.35470  0.75070  Biso   1.000  N
  C1       1.0000 0.31260  0.14060  0.60310  Biso   1.000  C
  C2       1.0000 0.68740  0.85940  0.39690  Biso   1.000  C
  H1       1.0000 0.23930  0.18060  0.57050  Biso   1.000  H
  H2       1.0000 0.76070  0.81940  0.42950  Biso   1.000  H
  C3       1.0000 0.42130  0.23310  0.70790  Biso   1.000  C
  C4       1.0000 0.57870  0.76690  0.29210  Biso   1.000  C
  H3       1.0000 0.42300  0.33460  0.74540  Biso   1.000  H
  H4       1.0000 0.57700  0.66540  0.25460  Biso   1.000  H
  C5       1.0000 0.52700  0.17530  0.75690  Biso   1.000  C
  C6       1.0000 0.47300  0.82470  0.24310  Biso   1.000  C
  H5       1.0000 0.60180  0.23670  0.82900  Biso   1.000  H
  H6       1.0000 0.39820  0.76330  0.17100  Biso   1.000  H
  C7       1.0000 0.52280  0.02630  0.69970  Biso   1.000  C
  C8       1.0000 0.47720  0.97370  0.30030  Biso   1.000  C
  H7       1.0000 0.59420  0.98430  0.73190  Biso   1.000  H
  H8       1.0000 0.40580  0.01570  0.26810  Biso   1.000  H
  C9       1.0000 0.41190  0.94080  0.59480  Biso   1.000  C
  C10      1.0000 0.58810  0.05920  0.40520  Biso   1.000  C
  C11      1.0000 0.39450  0.78110  0.52640  Biso   1.000  C
  C12      1.0000 0.60550  0.21890  0.47360  Biso   1.000  C
  C13      1.0000 0.48270  0.69720  0.55990  Biso   1.000  C
  C14      1.0000 0.51730  0.30280  0.44010  Biso   1.000  C
  H9       1.0000 0.56010  0.74040  0.63330  Biso   1.000  H
  H10      1.0000 0.43990  0.25960  0.36670  Biso   1.000  H
  C15      1.0000 0.45480  0.54700  0.48270  Biso   1.000  C
  C16      1.0000 0.54520  0.45300  0.51730  Biso   1.000  C
  C17      1.0000 0.34110  0.48840  0.37480  Biso   1.000  C
  C18      1.0000 0.65890  0.51160  0.62520  Biso   1.000  C
  H11      1.0000 0.32360  0.38780  0.31850  Biso   1.000  H
  H12      1.0000 0.67640  0.61220  0.68150  Biso   1.000  H
  C19      1.0000 0.25360  0.57880  0.35050  Biso   1.000  C
  C20      1.0000 0.74640  0.42120  0.64950  Biso   1.000  C
  C21      1.0000 0.12270  0.53430  0.24700  Biso   1.000  C
  C22      1.0000 0.87730  0.46570  0.75300  Biso   1.000  C
  C23      1.0000 0.06690  0.39240  0.15890  Biso   1.000  C
  C24      1.0000 0.93310  0.60760  0.84110  Biso   1.000  C
  H13      1.0000 0.11680  0.31610  0.15710  Biso   1.000  H
  H14      1.0000 0.88320  0.68390  0.84290  Biso   1.000  H
  C25      1.0000 0.93580  0.36410  0.07290  Biso   1.000  C
  C26      1.0000 0.06420  0.63590  0.92710  Biso   1.000  C
  H15      1.0000 0.89470  0.26770  0.01150  Biso   1.000  H
  H16      1.0000 0.10530  0.73230  0.98850  Biso   1.000  H
  C27      1.0000 0.86610  0.47770  0.07780  Biso   1.000  C
  C28      1.0000 0.13390  0.52230  0.92220  Biso   1.000  C
  H17      1.0000 0.77550  0.46030  0.02120  Biso   1.000  H
  H18      1.0000 0.22450  0.53970  0.97880  Biso   1.000  H
  C29      1.0000 0.93050  0.61730  0.16650  Biso   1.000  C
  C30      1.0000 0.06950  0.38270  0.83350  Biso   1.000  C
  H19      1.0000 0.88380  0.69560  0.16870  Biso   1.000  H
  H20      1.0000 0.11620  0.30440  0.83130  Biso   1.000  H
  C31      1.0000 0.85970  0.08040  0.23930  Biso   1.000  C
  C32      1.0000 0.14030  0.91960  0.76070  Biso   1.000  C
  H21      1.0000 0.77440  0.02690  0.24880  Biso   1.000  H
  H22      1.0000 0.22560  0.97310  0.75120  Biso   1.000  H
  H23      1.0000 0.83990  0.17870  0.25750  Biso   1.000  H
  H24      1.0000 0.16010  0.82130  0.74250  Biso   1.000  H
  C33      1.0000 0.87790  0.00350  0.10140  Biso   1.000  C
  C34      1.0000 0.12210  0.99650  0.89860  Biso   1.000  C
  H25      1.0000 0.91300  0.91180  0.08740  Biso   1.000  H
  H26      1.0000 0.08700  0.08820  0.91260  Biso   1.000  H
  H27      1.0000 0.95310  0.06490  0.08840  Biso   1.000  H
  H28      1.0000 0.04690  0.93510  0.91160  Biso   1.000  H
  H29      1.0000 0.17600  0.15300  0.27100  Biso   1.000  H
  H30      1.0000 0.82400  0.84700  0.72900  Biso   1.000  H
  H31      1.0000 0.52200  0.88000  0.00900  Biso   1.000  H
  H32      1.0000 0.47800  0.12000  0.99100  Biso   1.000  H
  H33      1.0000 0.58900  0.64900  0.96700  Biso   1.000  H
  H34      1.0000 0.41100  0.35100  0.03300  Biso   1.000  H
  H35      1.0000 0.47400  0.55100  0.93200  Biso   1.000  H
  H36      1.0000 0.52600  0.44900  0.06800  Biso   1.000  H
  H37      1.0000 0.91600  0.60800  0.44300  Biso   1.000  H
  H38      1.0000 0.08400  0.39200  0.55700  Biso   1.000  H
  H39      1.0000 0.66800  0.30900  0.16900  Biso   1.000  H
  H40      1.0000 0.33200  0.69100  0.83100  Biso   1.000  H
  H41      1.0000 0.91100  0.49600  0.47300  Biso   1.000  H
  H42      1.0000 0.08900  0.50400  0.52700  Biso   1.000  H
  H43      1.0000 0.71700  0.42200  0.28500  Biso   1.000  H
  H44      1.0000 0.28300  0.57800  0.71500  Biso   1.000  H
