data_image0
_cell_length_a       15.2102
_cell_length_b       6.9886
_cell_length_c       33.378
_cell_angle_alpha    90
_cell_angle_beta     102.392
_cell_angle_gamma    90

_symmetry_space_group_name_H-M    "P 1"
_symmetry_int_tables_number       1

loop_
  _symmetry_equiv_pos_as_xyz
  'x, y, z'

loop_
  _atom_site_label
  _atom_site_occupancy
  _atom_site_fract_x
  _atom_site_fract_y
  _atom_site_fract_z
  _atom_site_thermal_displace_type
  _atom_site_B_iso_or_equiv
  _atom_site_type_symbol
  Cu1      1.0000 0.20340  0.82633  0.13622  Biso   1.000  Cu
  Cu2      1.0000 0.70340  0.32633  0.13622  Biso   1.000  Cu
  Cu3      1.0000 0.79660  0.82633  0.36378  Biso   1.000  Cu
  Cu4      1.0000 0.29660  0.32633  0.36378  Biso   1.000  Cu
  Cu5      1.0000 0.79660  0.17367  0.86378  Biso   1.000  Cu
  Cu6      1.0000 0.29660  0.67367  0.86378  Biso   1.000  Cu
  Cu7      1.0000 0.20340  0.17367  0.63622  Biso   1.000  Cu
  Cu8      1.0000 0.70340  0.67367  0.63622  Biso   1.000  Cu
  P1       1.0000 0.31382  0.88644  0.22733  Biso   1.000  P
  P2       1.0000 0.81382  0.38644  0.22733  Biso   1.000  P
  P3       1.0000 0.68618  0.88644  0.27267  Biso   1.000  P
  P4       1.0000 0.18618  0.38644  0.27267  Biso   1.000  P
  P5       1.0000 0.68618  0.11356  0.77267  Biso   1.000  P
  P6       1.0000 0.18618  0.61356  0.77267  Biso   1.000  P
  P7       1.0000 0.31382  0.11356  0.72733  Biso   1.000  P
  P8       1.0000 0.81382  0.61356  0.72733  Biso   1.000  P
  O1       1.0000 0.25558  0.91440  0.25807  Biso   1.000  O
  O2       1.0000 0.75558  0.41440  0.25807  Biso   1.000  O
  O3       1.0000 0.74442  0.91440  0.24193  Biso   1.000  O
  O4       1.0000 0.24442  0.41440  0.24193  Biso   1.000  O
  O5       1.0000 0.74442  0.08560  0.74193  Biso   1.000  O
  O6       1.0000 0.24442  0.58560  0.74193  Biso   1.000  O
  O7       1.0000 0.25558  0.08560  0.75807  Biso   1.000  O
  O8       1.0000 0.75558  0.58560  0.75807  Biso   1.000  O
  O9       1.0000 0.27073  0.94570  0.18405  Biso   1.000  O
  O10      1.0000 0.77073  0.44570  0.18405  Biso   1.000  O
  O11      1.0000 0.72927  0.94570  0.31595  Biso   1.000  O
  O12      1.0000 0.22927  0.44570  0.31595  Biso   1.000  O
  O13      1.0000 0.72927  0.05430  0.81595  Biso   1.000  O
  O14      1.0000 0.22927  0.55430  0.81595  Biso   1.000  O
  O15      1.0000 0.27073  0.05430  0.68405  Biso   1.000  O
  O16      1.0000 0.77073  0.55430  0.68405  Biso   1.000  O
  O17      1.0000 0.34541  0.67390  0.22844  Biso   1.000  O
  O18      1.0000 0.84541  0.17390  0.22844  Biso   1.000  O
  O19      1.0000 0.65459  0.67390  0.27156  Biso   1.000  O
  O20      1.0000 0.15459  0.17390  0.27156  Biso   1.000  O
  O21      1.0000 0.65459  0.32610  0.77156  Biso   1.000  O
  O22      1.0000 0.15459  0.82610  0.77156  Biso   1.000  O
  O23      1.0000 0.34541  0.32610  0.72844  Biso   1.000  O
  O24      1.0000 0.84541  0.82610  0.72844  Biso   1.000  O
  H1       1.0000 0.30570  0.60300  0.23460  Biso   1.000  H
  H2       1.0000 0.80570  0.10300  0.23460  Biso   1.000  H
  H3       1.0000 0.69430  0.60300  0.26540  Biso   1.000  H
  H4       1.0000 0.19430  0.10300  0.26540  Biso   1.000  H
  H5       1.0000 0.69430  0.39700  0.76540  Biso   1.000  H
  H6       1.0000 0.19430  0.89700  0.76540  Biso   1.000  H
  H7       1.0000 0.30570  0.39700  0.73460  Biso   1.000  H
  H8       1.0000 0.80570  0.89700  0.73460  Biso   1.000  H
  O25      1.0000 0.19562  0.14000  0.09827  Biso   1.000  O
  O26      1.0000 0.69562  0.64000  0.09827  Biso   1.000  O
  O27      1.0000 0.80438  0.14000  0.40173  Biso   1.000  O
  O28      1.0000 0.30438  0.64000  0.40173  Biso   1.000  O
  O29      1.0000 0.80438  0.86000  0.90173  Biso   1.000  O
  O30      1.0000 0.30438  0.36000  0.90173  Biso   1.000  O
  O31      1.0000 0.19562  0.86000  0.59827  Biso   1.000  O
  O32      1.0000 0.69562  0.36000  0.59827  Biso   1.000  O
  O33      1.0000 0.26222  0.12130  0.04668  Biso   1.000  O
  O34      1.0000 0.76222  0.62130  0.04668  Biso   1.000  O
  O35      1.0000 0.73778  0.12130  0.45332  Biso   1.000  O
  O36      1.0000 0.23778  0.62130  0.45332  Biso   1.000  O
  O37      1.0000 0.73778  0.87870  0.95332  Biso   1.000  O
  O38      1.0000 0.23778  0.37870  0.95332  Biso   1.000  O
  O39      1.0000 0.26222  0.87870  0.54668  Biso   1.000  O
  O40      1.0000 0.76222  0.37870  0.54668  Biso   1.000  O
  O41      1.0000 0.11789  0.09550  0.03684  Biso   1.000  O
  O42      1.0000 0.61789  0.59550  0.03684  Biso   1.000  O
  O43      1.0000 0.88211  0.09550  0.46316  Biso   1.000  O
  O44      1.0000 0.38211  0.59550  0.46316  Biso   1.000  O
  O45      1.0000 0.88211  0.90450  0.96316  Biso   1.000  O
  O46      1.0000 0.38211  0.40450  0.96316  Biso   1.000  O
  O47      1.0000 0.11789  0.90450  0.53684  Biso   1.000  O
  O48      1.0000 0.61789  0.40450  0.53684  Biso   1.000  O
  O49      1.0000 0.33176  0.93760  0.34285  Biso   1.000  O
  O50      1.0000 0.83176  0.43760  0.34285  Biso   1.000  O
  O51      1.0000 0.66824  0.93760  0.15715  Biso   1.000  O
  O52      1.0000 0.16824  0.43760  0.15715  Biso   1.000  O
  O53      1.0000 0.66824  0.06240  0.65715  Biso   1.000  O
  O54      1.0000 0.16824  0.56240  0.65715  Biso   1.000  O
  O55      1.0000 0.33176  0.06240  0.84285  Biso   1.000  O
  O56      1.0000 0.83176  0.56240  0.84285  Biso   1.000  O
  N1       1.0000 0.30180  0.74650  0.10696  Biso   1.000  N
  N2       1.0000 0.80180  0.24650  0.10696  Biso   1.000  N
  N3       1.0000 0.69820  0.74650  0.39304  Biso   1.000  N
  N4       1.0000 0.19820  0.24650  0.39304  Biso   1.000  N
  N5       1.0000 0.69820  0.25350  0.89304  Biso   1.000  N
  N6       1.0000 0.19820  0.75350  0.89304  Biso   1.000  N
  N7       1.0000 0.30180  0.25350  0.60696  Biso   1.000  N
  N8       1.0000 0.80180  0.75350  0.60696  Biso   1.000  N
  N9       1.0000 0.13190  0.70660  0.08809  Biso   1.000  N
  N10      1.0000 0.63190  0.20660  0.08809  Biso   1.000  N
  N11      1.0000 0.86810  0.70660  0.41191  Biso   1.000  N
  N12      1.0000 0.36810  0.20660  0.41191  Biso   1.000  N
  N13      1.0000 0.86810  0.29340  0.91191  Biso   1.000  N
  N14      1.0000 0.36810  0.79340  0.91191  Biso   1.000  N
  N15      1.0000 0.13190  0.29340  0.58809  Biso   1.000  N
  N16      1.0000 0.63190  0.79340  0.58809  Biso   1.000  N
  N17      1.0000 0.07990  0.85690  0.14821  Biso   1.000  N
  N18      1.0000 0.57990  0.35690  0.14821  Biso   1.000  N
  N19      1.0000 0.92010  0.85690  0.35179  Biso   1.000  N
  N20      1.0000 0.42010  0.35690  0.35179  Biso   1.000  N
  N21      1.0000 0.92010  0.14310  0.85179  Biso   1.000  N
  N22      1.0000 0.42010  0.64310  0.85179  Biso   1.000  N
  N23      1.0000 0.07990  0.14310  0.64821  Biso   1.000  N
  N24      1.0000 0.57990  0.64310  0.64821  Biso   1.000  N
  N25      1.0000 0.19213  0.11840  0.06044  Biso   1.000  N
  N26      1.0000 0.69213  0.61840  0.06044  Biso   1.000  N
  N27      1.0000 0.80787  0.11840  0.43956  Biso   1.000  N
  N28      1.0000 0.30787  0.61840  0.43956  Biso   1.000  N
  N29      1.0000 0.80787  0.88160  0.93956  Biso   1.000  N
  N30      1.0000 0.30787  0.38160  0.93956  Biso   1.000  N
  N31      1.0000 0.19213  0.88160  0.56044  Biso   1.000  N
  N32      1.0000 0.69213  0.38160  0.56044  Biso   1.000  N
  C1       1.0000 0.39027  0.78080  0.11887  Biso   1.000  C
  C2       1.0000 0.89027  0.28080  0.11887  Biso   1.000  C
  C3       1.0000 0.60973  0.78080  0.38113  Biso   1.000  C
  C4       1.0000 0.10973  0.28080  0.38113  Biso   1.000  C
  C5       1.0000 0.60973  0.21920  0.88113  Biso   1.000  C
  C6       1.0000 0.10973  0.71920  0.88113  Biso   1.000  C
  C7       1.0000 0.39027  0.21920  0.61887  Biso   1.000  C
  C8       1.0000 0.89027  0.71920  0.61887  Biso   1.000  C
  H9       1.0000 0.41200  0.84210  0.14450  Biso   1.000  H
  H10      1.0000 0.91200  0.34210  0.14450  Biso   1.000  H
  H11      1.0000 0.58800  0.84210  0.35550  Biso   1.000  H
  H12      1.0000 0.08800  0.34210  0.35550  Biso   1.000  H
  H13      1.0000 0.58800  0.15790  0.85550  Biso   1.000  H
  H14      1.0000 0.08800  0.65790  0.85550  Biso   1.000  H
  H15      1.0000 0.41200  0.15790  0.64450  Biso   1.000  H
  H16      1.0000 0.91200  0.65790  0.64450  Biso   1.000  H
  C9       1.0000 0.45140  0.73030  0.09528  Biso   1.000  C
  C10      1.0000 0.95140  0.23030  0.09528  Biso   1.000  C
  C11      1.0000 0.54860  0.73030  0.40472  Biso   1.000  C
  C12      1.0000 0.04860  0.23030  0.40472  Biso   1.000  C
  C13      1.0000 0.54860  0.26970  0.90472  Biso   1.000  C
  C14      1.0000 0.04860  0.76970  0.90472  Biso   1.000  C
  C15      1.0000 0.45140  0.26970  0.59528  Biso   1.000  C
  C16      1.0000 0.95140  0.76970  0.59528  Biso   1.000  C
  H17      1.0000 0.51360  0.75860  0.10440  Biso   1.000  H
  H18      1.0000 0.01360  0.25860  0.10440  Biso   1.000  H
  H19      1.0000 0.48640  0.75860  0.39560  Biso   1.000  H
  H20      1.0000 0.98640  0.25860  0.39560  Biso   1.000  H
  H21      1.0000 0.48640  0.24140  0.89560  Biso   1.000  H
  H22      1.0000 0.98640  0.74140  0.89560  Biso   1.000  H
  H23      1.0000 0.51360  0.24140  0.60440  Biso   1.000  H
  H24      1.0000 0.01360  0.74140  0.60440  Biso   1.000  H
  C17      1.0000 0.41999  0.63750  0.05807  Biso   1.000  C
  C18      1.0000 0.91999  0.13750  0.05807  Biso   1.000  C
  C19      1.0000 0.58001  0.63750  0.44193  Biso   1.000  C
  C20      1.0000 0.08001  0.13750  0.44193  Biso   1.000  C
  C21      1.0000 0.58001  0.36250  0.94193  Biso   1.000  C
  C22      1.0000 0.08001  0.86250  0.94193  Biso   1.000  C
  C23      1.0000 0.41999  0.36250  0.55807  Biso   1.000  C
  C24      1.0000 0.91999  0.86250  0.55807  Biso   1.000  C
  H25      1.0000 0.46070  0.59970  0.04160  Biso   1.000  H
  H26      1.0000 0.96070  0.09970  0.04160  Biso   1.000  H
  H27      1.0000 0.53930  0.59970  0.45840  Biso   1.000  H
  H28      1.0000 0.03930  0.09970  0.45840  Biso   1.000  H
  H29      1.0000 0.53930  0.40030  0.95840  Biso   1.000  H
  H30      1.0000 0.03930  0.90030  0.95840  Biso   1.000  H
  H31      1.0000 0.46070  0.40030  0.54160  Biso   1.000  H
  H32      1.0000 0.96070  0.90030  0.54160  Biso   1.000  H
  C25      1.0000 0.32818  0.60060  0.04526  Biso   1.000  C
  C26      1.0000 0.82818  0.10060  0.04526  Biso   1.000  C
  C27      1.0000 0.67182  0.60060  0.45474  Biso   1.000  C
  C28      1.0000 0.17182  0.10060  0.45474  Biso   1.000  C
  C29      1.0000 0.67182  0.39940  0.95474  Biso   1.000  C
  C30      1.0000 0.17182  0.89940  0.95474  Biso   1.000  C
  C31      1.0000 0.32818  0.39940  0.54526  Biso   1.000  C
  C32      1.0000 0.82818  0.89940  0.54526  Biso   1.000  C
  H33      1.0000 0.30510  0.53780  0.02000  Biso   1.000  H
  H34      1.0000 0.80510  0.03780  0.02000  Biso   1.000  H
  H35      1.0000 0.69490  0.53780  0.48000  Biso   1.000  H
  H36      1.0000 0.19490  0.03780  0.48000  Biso   1.000  H
  H37      1.0000 0.69490  0.46220  0.98000  Biso   1.000  H
  H38      1.0000 0.19490  0.96220  0.98000  Biso   1.000  H
  H39      1.0000 0.30510  0.46220  0.52000  Biso   1.000  H
  H40      1.0000 0.80510  0.96220  0.52000  Biso   1.000  H
  C33      1.0000 0.27135  0.65790  0.07037  Biso   1.000  C
  C34      1.0000 0.77135  0.15790  0.07037  Biso   1.000  C
  C35      1.0000 0.72865  0.65790  0.42963  Biso   1.000  C
  C36      1.0000 0.22865  0.15790  0.42963  Biso   1.000  C
  C37      1.0000 0.72865  0.34210  0.92963  Biso   1.000  C
  C38      1.0000 0.22865  0.84210  0.92963  Biso   1.000  C
  C39      1.0000 0.27135  0.34210  0.57037  Biso   1.000  C
  C40      1.0000 0.77135  0.84210  0.57037  Biso   1.000  C
  C41      1.0000 0.17231  0.63390  0.05960  Biso   1.000  C
  C42      1.0000 0.67231  0.13390  0.05960  Biso   1.000  C
  C43      1.0000 0.82769  0.63390  0.44040  Biso   1.000  C
  C44      1.0000 0.32769  0.13390  0.44040  Biso   1.000  C
  C45      1.0000 0.82769  0.36610  0.94040  Biso   1.000  C
  C46      1.0000 0.32769  0.86610  0.94040  Biso   1.000  C
  C47      1.0000 0.17231  0.36610  0.55960  Biso   1.000  C
  C48      1.0000 0.67231  0.86610  0.55960  Biso   1.000  C
  C49      1.0000 0.12231  0.54860  0.02457  Biso   1.000  C
  C50      1.0000 0.62231  0.04860  0.02457  Biso   1.000  C
  C51      1.0000 0.87769  0.54860  0.47543  Biso   1.000  C
  C52      1.0000 0.37769  0.04860  0.47543  Biso   1.000  C
  C53      1.0000 0.87769  0.45140  0.97543  Biso   1.000  C
  C54      1.0000 0.37769  0.95140  0.97543  Biso   1.000  C
  C55      1.0000 0.12231  0.45140  0.52457  Biso   1.000  C
  C56      1.0000 0.62231  0.95140  0.52457  Biso   1.000  C
  H41      1.0000 0.15140  0.49430  0.00480  Biso   1.000  H
  H42      1.0000 0.65140  0.99430  0.00480  Biso   1.000  H
  H43      1.0000 0.84860  0.49430  0.49520  Biso   1.000  H
  H44      1.0000 0.34860  0.99430  0.49520  Biso   1.000  H
  H45      1.0000 0.84860  0.50570  0.99520  Biso   1.000  H
  H46      1.0000 0.34860  0.00570  0.99520  Biso   1.000  H
  H47      1.0000 0.15140  0.50570  0.50480  Biso   1.000  H
  H48      1.0000 0.65140  0.00570  0.50480  Biso   1.000  H
  C57      1.0000 0.02815  0.54350  0.01868  Biso   1.000  C
  C58      1.0000 0.52815  0.04350  0.01868  Biso   1.000  C
  C59      1.0000 0.97185  0.54350  0.48132  Biso   1.000  C
  C60      1.0000 0.47185  0.04350  0.48132  Biso   1.000  C
  C61      1.0000 0.97185  0.45650  0.98132  Biso   1.000  C
  C62      1.0000 0.47185  0.95650  0.98132  Biso   1.000  C
  C63      1.0000 0.02815  0.45650  0.51868  Biso   1.000  C
  C64      1.0000 0.52815  0.95650  0.51868  Biso   1.000  C
  C65      1.0000 0.98802  0.62150  0.04913  Biso   1.000  C
  C66      1.0000 0.48802  0.12150  0.04913  Biso   1.000  C
  C67      1.0000 0.01198  0.62150  0.45087  Biso   1.000  C
  C68      1.0000 0.51198  0.12150  0.45087  Biso   1.000  C
  C69      1.0000 0.01198  0.37850  0.95087  Biso   1.000  C
  C70      1.0000 0.51198  0.87850  0.95087  Biso   1.000  C
  C71      1.0000 0.98802  0.37850  0.54913  Biso   1.000  C
  C72      1.0000 0.48802  0.87850  0.54913  Biso   1.000  C
  H49      1.0000 0.92440  0.62140  0.04590  Biso   1.000  H
  H50      1.0000 0.42440  0.12140  0.04590  Biso   1.000  H
  H51      1.0000 0.07560  0.62140  0.45410  Biso   1.000  H
  H52      1.0000 0.57560  0.12140  0.45410  Biso   1.000  H
  H53      1.0000 0.07560  0.37860  0.95410  Biso   1.000  H
  H54      1.0000 0.57560  0.87860  0.95410  Biso   1.000  H
  H55      1.0000 0.92440  0.37860  0.54590  Biso   1.000  H
  H56      1.0000 0.42440  0.87860  0.54590  Biso   1.000  H
  C73      1.0000 0.04261  0.69860  0.08408  Biso   1.000  C
  C74      1.0000 0.54261  0.19860  0.08408  Biso   1.000  C
  C75      1.0000 0.95739  0.69860  0.41592  Biso   1.000  C
  C76      1.0000 0.45739  0.19860  0.41592  Biso   1.000  C
  C77      1.0000 0.95739  0.30140  0.91592  Biso   1.000  C
  C78      1.0000 0.45739  0.80140  0.91592  Biso   1.000  C
  C79      1.0000 0.04261  0.30140  0.58408  Biso   1.000  C
  C80      1.0000 0.54261  0.80140  0.58408  Biso   1.000  C
  C81      1.0000 0.01265  0.77710  0.11998  Biso   1.000  C
  C82      1.0000 0.51265  0.27710  0.11998  Biso   1.000  C
  C83      1.0000 0.98735  0.77710  0.38002  Biso   1.000  C
  C84      1.0000 0.48735  0.27710  0.38002  Biso   1.000  C
  C85      1.0000 0.98735  0.22290  0.88002  Biso   1.000  C
  C86      1.0000 0.48735  0.72290  0.88002  Biso   1.000  C
  C87      1.0000 0.01265  0.22290  0.61998  Biso   1.000  C
  C88      1.0000 0.51265  0.72290  0.61998  Biso   1.000  C
  C89      1.0000 0.92457  0.77100  0.12510  Biso   1.000  C
  C90      1.0000 0.42457  0.27100  0.12510  Biso   1.000  C
  C91      1.0000 0.07543  0.77100  0.37490  Biso   1.000  C
  C92      1.0000 0.57543  0.27100  0.37490  Biso   1.000  C
  C93      1.0000 0.07543  0.22900  0.87490  Biso   1.000  C
  C94      1.0000 0.57543  0.72900  0.87490  Biso   1.000  C
  C95      1.0000 0.92457  0.22900  0.62510  Biso   1.000  C
  C96      1.0000 0.42457  0.72900  0.62510  Biso   1.000  C
  H57      1.0000 0.87850  0.71300  0.10500  Biso   1.000  H
  H58      1.0000 0.37850  0.21300  0.10500  Biso   1.000  H
  H59      1.0000 0.12150  0.71300  0.39500  Biso   1.000  H
  H60      1.0000 0.62150  0.21300  0.39500  Biso   1.000  H
  H61      1.0000 0.12150  0.28700  0.89500  Biso   1.000  H
  H62      1.0000 0.62150  0.78700  0.89500  Biso   1.000  H
  H63      1.0000 0.87850  0.28700  0.60500  Biso   1.000  H
  H64      1.0000 0.37850  0.78700  0.60500  Biso   1.000  H
  C97      1.0000 0.90529  0.85160  0.16025  Biso   1.000  C
  C98      1.0000 0.40529  0.35160  0.16025  Biso   1.000  C
  C99      1.0000 0.09471  0.85160  0.33975  Biso   1.000  C
  C100     1.0000 0.59471  0.35160  0.33975  Biso   1.000  C
  C101     1.0000 0.09471  0.14840  0.83975  Biso   1.000  C
  C102     1.0000 0.59471  0.64840  0.83975  Biso   1.000  C
  C103     1.0000 0.90529  0.14840  0.66025  Biso   1.000  C
  C104     1.0000 0.40529  0.64840  0.66025  Biso   1.000  C
  H65      1.0000 0.84570  0.84830  0.16480  Biso   1.000  H
  H66      1.0000 0.34570  0.34830  0.16480  Biso   1.000  H
  H67      1.0000 0.15430  0.84830  0.33520  Biso   1.000  H
  H68      1.0000 0.65430  0.34830  0.33520  Biso   1.000  H
  H69      1.0000 0.15430  0.15170  0.83520  Biso   1.000  H
  H70      1.0000 0.65430  0.65170  0.83520  Biso   1.000  H
  H71      1.0000 0.84570  0.15170  0.66480  Biso   1.000  H
  H72      1.0000 0.34570  0.65170  0.66480  Biso   1.000  H
  C105     1.0000 0.97408  0.93730  0.18877  Biso   1.000  C
  C106     1.0000 0.47408  0.43730  0.18877  Biso   1.000  C
  C107     1.0000 0.02592  0.93730  0.31123  Biso   1.000  C
  C108     1.0000 0.52592  0.43730  0.31123  Biso   1.000  C
  C109     1.0000 0.02592  0.06270  0.81123  Biso   1.000  C
  C110     1.0000 0.52592  0.56270  0.81123  Biso   1.000  C
  C111     1.0000 0.97408  0.06270  0.68877  Biso   1.000  C
  C112     1.0000 0.47408  0.56270  0.68877  Biso   1.000  C
  H73      1.0000 0.96200  0.99530  0.21280  Biso   1.000  H
  H74      1.0000 0.46200  0.49530  0.21280  Biso   1.000  H
  H75      1.0000 0.03800  0.99530  0.28720  Biso   1.000  H
  H76      1.0000 0.53800  0.49530  0.28720  Biso   1.000  H
  H77      1.0000 0.03800  0.00470  0.78720  Biso   1.000  H
  H78      1.0000 0.53800  0.50470  0.78720  Biso   1.000  H
  H79      1.0000 0.96200  0.00470  0.71280  Biso   1.000  H
  H80      1.0000 0.46200  0.50470  0.71280  Biso   1.000  H
  C113     1.0000 0.06050  0.93700  0.18169  Biso   1.000  C
  C114     1.0000 0.56050  0.43700  0.18169  Biso   1.000  C
  C115     1.0000 0.93950  0.93700  0.31831  Biso   1.000  C
  C116     1.0000 0.43950  0.43700  0.31831  Biso   1.000  C
  C117     1.0000 0.93950  0.06300  0.81831  Biso   1.000  C
  C118     1.0000 0.43950  0.56300  0.81831  Biso   1.000  C
  C119     1.0000 0.06050  0.06300  0.68169  Biso   1.000  C
  C120     1.0000 0.56050  0.56300  0.68169  Biso   1.000  C
  H81      1.0000 0.10750  0.99540  0.20120  Biso   1.000  H
  H82      1.0000 0.60750  0.49540  0.20120  Biso   1.000  H
  H83      1.0000 0.89250  0.99540  0.29880  Biso   1.000  H
  H84      1.0000 0.39250  0.49540  0.29880  Biso   1.000  H
  H85      1.0000 0.89250  0.00460  0.79880  Biso   1.000  H
  H86      1.0000 0.39250  0.50460  0.79880  Biso   1.000  H
  H87      1.0000 0.10750  0.00460  0.70120  Biso   1.000  H
  H88      1.0000 0.60750  0.50460  0.70120  Biso   1.000  H
  C121     1.0000 0.41700  0.02760  0.23410  Biso   1.000  C
  C122     1.0000 0.91700  0.52760  0.23410  Biso   1.000  C
  C123     1.0000 0.58300  0.02760  0.26590  Biso   1.000  C
  C124     1.0000 0.08300  0.52760  0.26590  Biso   1.000  C
  C125     1.0000 0.58300  0.97240  0.76590  Biso   1.000  C
  C126     1.0000 0.08300  0.47240  0.76590  Biso   1.000  C
  C127     1.0000 0.41700  0.97240  0.73410  Biso   1.000  C
  C128     1.0000 0.91700  0.47240  0.73410  Biso   1.000  C
  H89      1.0000 0.43220  0.04310  0.20690  Biso   1.000  H
  H90      1.0000 0.93220  0.54310  0.20690  Biso   1.000  H
  H91      1.0000 0.56780  0.04310  0.29310  Biso   1.000  H
  H92      1.0000 0.06780  0.54310  0.29310  Biso   1.000  H
  H93      1.0000 0.56780  0.95690  0.79310  Biso   1.000  H
  H94      1.0000 0.06780  0.45690  0.79310  Biso   1.000  H
  H95      1.0000 0.43220  0.95690  0.70690  Biso   1.000  H
  H96      1.0000 0.93220  0.45690  0.70690  Biso   1.000  H
  H97      1.0000 0.40430  0.15670  0.24370  Biso   1.000  H
  H98      1.0000 0.90430  0.65670  0.24370  Biso   1.000  H
  H99      1.0000 0.59570  0.15670  0.25630  Biso   1.000  H
  H100     1.0000 0.09570  0.65670  0.25630  Biso   1.000  H
  H101     1.0000 0.59570  0.84330  0.75630  Biso   1.000  H
  H102     1.0000 0.09570  0.34330  0.75630  Biso   1.000  H
  H103     1.0000 0.40430  0.84330  0.74370  Biso   1.000  H
  H104     1.0000 0.90430  0.34330  0.74370  Biso   1.000  H
  C129     1.0000 0.41400  0.01230  0.24950  Biso   1.000  C
  C130     1.0000 0.91400  0.51230  0.24950  Biso   1.000  C
  C131     1.0000 0.58600  0.01230  0.25050  Biso   1.000  C
  C132     1.0000 0.08600  0.51230  0.25050  Biso   1.000  C
  C133     1.0000 0.58600  0.98770  0.75050  Biso   1.000  C
  C134     1.0000 0.08600  0.48770  0.75050  Biso   1.000  C
  C135     1.0000 0.41400  0.98770  0.74950  Biso   1.000  C
  C136     1.0000 0.91400  0.48770  0.74950  Biso   1.000  C
  H105     1.0000 0.40410  0.14970  0.24290  Biso   1.000  H
  H106     1.0000 0.90410  0.64970  0.24290  Biso   1.000  H
  H107     1.0000 0.59590  0.14970  0.25710  Biso   1.000  H
  H108     1.0000 0.09590  0.64970  0.25710  Biso   1.000  H
  H109     1.0000 0.59590  0.85030  0.75710  Biso   1.000  H
  H110     1.0000 0.09590  0.35030  0.75710  Biso   1.000  H
  H111     1.0000 0.40410  0.85030  0.74290  Biso   1.000  H
  H112     1.0000 0.90410  0.35030  0.74290  Biso   1.000  H
  H113     1.0000 0.42400  0.99960  0.27970  Biso   1.000  H
  H114     1.0000 0.92400  0.49960  0.27970  Biso   1.000  H
  H115     1.0000 0.57600  0.99960  0.22030  Biso   1.000  H
  H116     1.0000 0.07600  0.49960  0.22030  Biso   1.000  H
  H117     1.0000 0.57600  0.00040  0.72030  Biso   1.000  H
  H118     1.0000 0.07600  0.50040  0.72030  Biso   1.000  H
  H119     1.0000 0.42400  0.00040  0.77970  Biso   1.000  H
  H120     1.0000 0.92400  0.50040  0.77970  Biso   1.000  H
  C137     1.0000 0.50020  0.94950  0.23638  Biso   1.000  C
  C138     1.0000 0.00020  0.44950  0.23638  Biso   1.000  C
  C139     1.0000 0.49980  0.94950  0.26362  Biso   1.000  C
  C140     1.0000 0.99980  0.44950  0.26362  Biso   1.000  C
  C141     1.0000 0.49980  0.05050  0.76362  Biso   1.000  C
  C142     1.0000 0.99980  0.55050  0.76362  Biso   1.000  C
  C143     1.0000 0.50020  0.05050  0.73638  Biso   1.000  C
  C144     1.0000 0.00020  0.55050  0.73638  Biso   1.000  C
