data_image0
_cell_length_a       14.1868
_cell_length_b       15.8571
_cell_length_c       18.3044
_cell_angle_alpha    90
_cell_angle_beta     93.65
_cell_angle_gamma    90

_symmetry_space_group_name_H-M    "P 1"
_symmetry_int_tables_number       1

loop_
  _symmetry_equiv_pos_as_xyz
  'x, y, z'

loop_
  _atom_site_label
  _atom_site_occupancy
  _atom_site_fract_x
  _atom_site_fract_y
  _atom_site_fract_z
  _atom_site_thermal_displace_type
  _atom_site_B_iso_or_equiv
  _atom_site_type_symbol
  Mo1      1.0000 0.04168  0.11945  0.58801  Biso   1.000  Mo
  Mo2      1.0000 0.54168  0.61945  0.58801  Biso   1.000  Mo
  Mo3      1.0000 0.95832  0.11945  0.91199  Biso   1.000  Mo
  Mo4      1.0000 0.45832  0.61945  0.91199  Biso   1.000  Mo
  Mo5      1.0000 0.95832  0.88055  0.41199  Biso   1.000  Mo
  Mo6      1.0000 0.45832  0.38055  0.41199  Biso   1.000  Mo
  Mo7      1.0000 0.04168  0.88055  0.08801  Biso   1.000  Mo
  Mo8      1.0000 0.54168  0.38055  0.08801  Biso   1.000  Mo
  Mo9      1.0000 0.17568  0.99616  0.47090  Biso   1.000  Mo
  Mo10     1.0000 0.67568  0.49616  0.47090  Biso   1.000  Mo
  Mo11     1.0000 0.82432  0.99616  0.02910  Biso   1.000  Mo
  Mo12     1.0000 0.32432  0.49616  0.02910  Biso   1.000  Mo
  Mo13     1.0000 0.82432  0.00384  0.52910  Biso   1.000  Mo
  Mo14     1.0000 0.32432  0.50384  0.52910  Biso   1.000  Mo
  Mo15     1.0000 0.17568  0.00384  0.97090  Biso   1.000  Mo
  Mo16     1.0000 0.67568  0.50384  0.97090  Biso   1.000  Mo
  Cu1      1.0000 0.35409  0.09440  0.73294  Biso   1.000  Cu
  Cu2      1.0000 0.85409  0.59440  0.73294  Biso   1.000  Cu
  Cu3      1.0000 0.64591  0.09440  0.76706  Biso   1.000  Cu
  Cu4      1.0000 0.14591  0.59440  0.76706  Biso   1.000  Cu
  Cu5      1.0000 0.64591  0.90560  0.26706  Biso   1.000  Cu
  Cu6      1.0000 0.14591  0.40560  0.26706  Biso   1.000  Cu
  Cu7      1.0000 0.35409  0.90560  0.23294  Biso   1.000  Cu
  Cu8      1.0000 0.85409  0.40560  0.23294  Biso   1.000  Cu
  P1       1.0000 0.27152  0.14638  0.57703  Biso   1.000  P
  P2       1.0000 0.77152  0.64638  0.57703  Biso   1.000  P
  P3       1.0000 0.72848  0.14638  0.92297  Biso   1.000  P
  P4       1.0000 0.22848  0.64638  0.92297  Biso   1.000  P
  P5       1.0000 0.72848  0.85362  0.42297  Biso   1.000  P
  P6       1.0000 0.22848  0.35362  0.42297  Biso   1.000  P
  P7       1.0000 0.27152  0.85362  0.07703  Biso   1.000  P
  P8       1.0000 0.77152  0.35362  0.07703  Biso   1.000  P
  O1       1.0000 0.35010  0.13500  0.63530  Biso   1.000  O
  O2       1.0000 0.85010  0.63500  0.63530  Biso   1.000  O
  O3       1.0000 0.64990  0.13500  0.86470  Biso   1.000  O
  O4       1.0000 0.14990  0.63500  0.86470  Biso   1.000  O
  O5       1.0000 0.64990  0.86500  0.36470  Biso   1.000  O
  O6       1.0000 0.14990  0.36500  0.36470  Biso   1.000  O
  O7       1.0000 0.35010  0.86500  0.13530  Biso   1.000  O
  O8       1.0000 0.85010  0.36500  0.13530  Biso   1.000  O
  O9       1.0000 0.17670  0.15820  0.61020  Biso   1.000  O
  O10      1.0000 0.67670  0.65820  0.61020  Biso   1.000  O
  O11      1.0000 0.82330  0.15820  0.88980  Biso   1.000  O
  O12      1.0000 0.32330  0.65820  0.88980  Biso   1.000  O
  O13      1.0000 0.82330  0.84180  0.38980  Biso   1.000  O
  O14      1.0000 0.32330  0.34180  0.38980  Biso   1.000  O
  O15      1.0000 0.17670  0.84180  0.11020  Biso   1.000  O
  O16      1.0000 0.67670  0.34180  0.11020  Biso   1.000  O
  O17      1.0000 0.27130  0.07450  0.52140  Biso   1.000  O
  O18      1.0000 0.77130  0.57450  0.52140  Biso   1.000  O
  O19      1.0000 0.72870  0.07450  0.97860  Biso   1.000  O
  O20      1.0000 0.22870  0.57450  0.97860  Biso   1.000  O
  O21      1.0000 0.72870  0.92550  0.47860  Biso   1.000  O
  O22      1.0000 0.22870  0.42550  0.47860  Biso   1.000  O
  O23      1.0000 0.27130  0.92550  0.02140  Biso   1.000  O
  O24      1.0000 0.77130  0.42550  0.02140  Biso   1.000  O
  O25      1.0000 0.12460  0.00640  0.57780  Biso   1.000  O
  O26      1.0000 0.62460  0.50640  0.57780  Biso   1.000  O
  O27      1.0000 0.87540  0.00640  0.92220  Biso   1.000  O
  O28      1.0000 0.37540  0.50640  0.92220  Biso   1.000  O
  O29      1.0000 0.87540  0.99360  0.42220  Biso   1.000  O
  O30      1.0000 0.37540  0.49360  0.42220  Biso   1.000  O
  O31      1.0000 0.12460  0.99360  0.07780  Biso   1.000  O
  O32      1.0000 0.62460  0.49360  0.07780  Biso   1.000  O
  O33      1.0000 0.09100  0.10860  0.48130  Biso   1.000  O
  O34      1.0000 0.59100  0.60860  0.48130  Biso   1.000  O
  O35      1.0000 0.90900  0.10860  0.01870  Biso   1.000  O
  O36      1.0000 0.40900  0.60860  0.01870  Biso   1.000  O
  O37      1.0000 0.90900  0.89140  0.51870  Biso   1.000  O
  O38      1.0000 0.40900  0.39140  0.51870  Biso   1.000  O
  O39      1.0000 0.09100  0.89140  0.98130  Biso   1.000  O
  O40      1.0000 0.59100  0.39140  0.98130  Biso   1.000  O
  O41      1.0000 0.03030  0.10240  0.67820  Biso   1.000  O
  O42      1.0000 0.53030  0.60240  0.67820  Biso   1.000  O
  O43      1.0000 0.96970  0.10240  0.82180  Biso   1.000  O
  O44      1.0000 0.46970  0.60240  0.82180  Biso   1.000  O
  O45      1.0000 0.96970  0.89760  0.32180  Biso   1.000  O
  O46      1.0000 0.46970  0.39760  0.32180  Biso   1.000  O
  O47      1.0000 0.03030  0.89760  0.17820  Biso   1.000  O
  O48      1.0000 0.53030  0.39760  0.17820  Biso   1.000  O
  O49      1.0000 0.00230  0.21960  0.57290  Biso   1.000  O
  O50      1.0000 0.50230  0.71960  0.57290  Biso   1.000  O
  O51      1.0000 0.99770  0.21960  0.92710  Biso   1.000  O
  O52      1.0000 0.49770  0.71960  0.92710  Biso   1.000  O
  O53      1.0000 0.99770  0.78040  0.42710  Biso   1.000  O
  O54      1.0000 0.49770  0.28040  0.42710  Biso   1.000  O
  O55      1.0000 0.00230  0.78040  0.07290  Biso   1.000  O
  O56      1.0000 0.50230  0.28040  0.07290  Biso   1.000  O
  O57      1.0000 0.94070  0.05680  0.54980  Biso   1.000  O
  O58      1.0000 0.44070  0.55680  0.54980  Biso   1.000  O
  O59      1.0000 0.05930  0.05680  0.95020  Biso   1.000  O
  O60      1.0000 0.55930  0.55680  0.95020  Biso   1.000  O
  O61      1.0000 0.05930  0.94320  0.45020  Biso   1.000  O
  O62      1.0000 0.55930  0.44320  0.45020  Biso   1.000  O
  O63      1.0000 0.94070  0.94320  0.04980  Biso   1.000  O
  O64      1.0000 0.44070  0.44320  0.04980  Biso   1.000  O
  O65      1.0000 0.24340  0.91080  0.48910  Biso   1.000  O
  O66      1.0000 0.74340  0.41080  0.48910  Biso   1.000  O
  O67      1.0000 0.75660  0.91080  0.01090  Biso   1.000  O
  O68      1.0000 0.25660  0.41080  0.01090  Biso   1.000  O
  O69      1.0000 0.75660  0.08920  0.51090  Biso   1.000  O
  O70      1.0000 0.25660  0.58920  0.51090  Biso   1.000  O
  O71      1.0000 0.24340  0.08920  0.98910  Biso   1.000  O
  O72      1.0000 0.74340  0.58920  0.98910  Biso   1.000  O
  O73      1.0000 0.20180  0.02440  0.38480  Biso   1.000  O
  O74      1.0000 0.70180  0.52440  0.38480  Biso   1.000  O
  O75      1.0000 0.79820  0.02440  0.11520  Biso   1.000  O
  O76      1.0000 0.29820  0.52440  0.11520  Biso   1.000  O
  O77      1.0000 0.79820  0.97560  0.61520  Biso   1.000  O
  O78      1.0000 0.29820  0.47560  0.61520  Biso   1.000  O
  O79      1.0000 0.20180  0.97560  0.88480  Biso   1.000  O
  O80      1.0000 0.70180  0.47560  0.88480  Biso   1.000  O
  O81      1.0000 0.20570  0.08840  0.76500  Biso   1.000  O
  O82      1.0000 0.70570  0.58840  0.76500  Biso   1.000  O
  O83      1.0000 0.79430  0.08840  0.73500  Biso   1.000  O
  O84      1.0000 0.29430  0.58840  0.73500  Biso   1.000  O
  O85      1.0000 0.79430  0.91160  0.23500  Biso   1.000  O
  O86      1.0000 0.29430  0.41160  0.23500  Biso   1.000  O
  O87      1.0000 0.20570  0.91160  0.26500  Biso   1.000  O
  O88      1.0000 0.70570  0.41160  0.26500  Biso   1.000  O
  N1       1.0000 0.38200  0.20820  0.77830  Biso   1.000  N
  N2       1.0000 0.88200  0.70820  0.77830  Biso   1.000  N
  N3       1.0000 0.61800  0.20820  0.72170  Biso   1.000  N
  N4       1.0000 0.11800  0.70820  0.72170  Biso   1.000  N
  N5       1.0000 0.61800  0.79180  0.22170  Biso   1.000  N
  N6       1.0000 0.11800  0.29180  0.22170  Biso   1.000  N
  N7       1.0000 0.38200  0.79180  0.27830  Biso   1.000  N
  N8       1.0000 0.88200  0.29180  0.27830  Biso   1.000  N
  N9       1.0000 0.40450  0.06050  0.82780  Biso   1.000  N
  N10      1.0000 0.90450  0.56050  0.82780  Biso   1.000  N
  N11      1.0000 0.59550  0.06050  0.67220  Biso   1.000  N
  N12      1.0000 0.09550  0.56050  0.67220  Biso   1.000  N
  N13      1.0000 0.59550  0.93950  0.17220  Biso   1.000  N
  N14      1.0000 0.09550  0.43950  0.17220  Biso   1.000  N
  N15      1.0000 0.40450  0.93950  0.32780  Biso   1.000  N
  N16      1.0000 0.90450  0.43950  0.32780  Biso   1.000  N
  N17      1.0000 0.36020  0.96690  0.71870  Biso   1.000  N
  N18      1.0000 0.86020  0.46690  0.71870  Biso   1.000  N
  N19      1.0000 0.63980  0.96690  0.78130  Biso   1.000  N
  N20      1.0000 0.13980  0.46690  0.78130  Biso   1.000  N
  N21      1.0000 0.63980  0.03310  0.28130  Biso   1.000  N
  N22      1.0000 0.13980  0.53310  0.28130  Biso   1.000  N
  N23      1.0000 0.36020  0.03310  0.21870  Biso   1.000  N
  N24      1.0000 0.86020  0.53310  0.21870  Biso   1.000  N
  C1       1.0000 0.37100  0.28260  0.74580  Biso   1.000  C
  C2       1.0000 0.87100  0.78260  0.74580  Biso   1.000  C
  C3       1.0000 0.62900  0.28260  0.75420  Biso   1.000  C
  C4       1.0000 0.12900  0.78260  0.75420  Biso   1.000  C
  C5       1.0000 0.62900  0.71740  0.25420  Biso   1.000  C
  C6       1.0000 0.12900  0.21740  0.25420  Biso   1.000  C
  C7       1.0000 0.37100  0.71740  0.24580  Biso   1.000  C
  C8       1.0000 0.87100  0.21740  0.24580  Biso   1.000  C
  H1       1.0000 0.34550  0.28480  0.69660  Biso   1.000  H
  H2       1.0000 0.84550  0.78480  0.69660  Biso   1.000  H
  H3       1.0000 0.65450  0.28480  0.80340  Biso   1.000  H
  H4       1.0000 0.15450  0.78480  0.80340  Biso   1.000  H
  H5       1.0000 0.65450  0.71520  0.30340  Biso   1.000  H
  H6       1.0000 0.15450  0.21520  0.30340  Biso   1.000  H
  H7       1.0000 0.34550  0.71520  0.19660  Biso   1.000  H
  H8       1.0000 0.84550  0.21520  0.19660  Biso   1.000  H
  C9       1.0000 0.39540  0.35660  0.78120  Biso   1.000  C
  C10      1.0000 0.89540  0.85660  0.78120  Biso   1.000  C
  C11      1.0000 0.60460  0.35660  0.71880  Biso   1.000  C
  C12      1.0000 0.10460  0.85660  0.71880  Biso   1.000  C
  C13      1.0000 0.60460  0.64340  0.21880  Biso   1.000  C
  C14      1.0000 0.10460  0.14340  0.21880  Biso   1.000  C
  C15      1.0000 0.39540  0.64340  0.28120  Biso   1.000  C
  C16      1.0000 0.89540  0.14340  0.28120  Biso   1.000  C
  H9       1.0000 0.38580  0.40900  0.75680  Biso   1.000  H
  H10      1.0000 0.88580  0.90900  0.75680  Biso   1.000  H
  H11      1.0000 0.61420  0.40900  0.74320  Biso   1.000  H
  H12      1.0000 0.11420  0.90900  0.74320  Biso   1.000  H
  H13      1.0000 0.61420  0.59100  0.24320  Biso   1.000  H
  H14      1.0000 0.11420  0.09100  0.24320  Biso   1.000  H
  H15      1.0000 0.38580  0.59100  0.25680  Biso   1.000  H
  H16      1.0000 0.88580  0.09100  0.25680  Biso   1.000  H
  C17      1.0000 0.43430  0.35460  0.85300  Biso   1.000  C
  C18      1.0000 0.93430  0.85460  0.85300  Biso   1.000  C
  C19      1.0000 0.56570  0.35460  0.64700  Biso   1.000  C
  C20      1.0000 0.06570  0.85460  0.64700  Biso   1.000  C
  C21      1.0000 0.56570  0.64540  0.14700  Biso   1.000  C
  C22      1.0000 0.06570  0.14540  0.14700  Biso   1.000  C
  C23      1.0000 0.43430  0.64540  0.35300  Biso   1.000  C
  C24      1.0000 0.93430  0.14540  0.35300  Biso   1.000  C
  H17      1.0000 0.45330  0.40490  0.87790  Biso   1.000  H
  H18      1.0000 0.95330  0.90490  0.87790  Biso   1.000  H
  H19      1.0000 0.54670  0.40490  0.62210  Biso   1.000  H
  H20      1.0000 0.04670  0.90490  0.62210  Biso   1.000  H
  H21      1.0000 0.54670  0.59510  0.12210  Biso   1.000  H
  H22      1.0000 0.04670  0.09510  0.12210  Biso   1.000  H
  H23      1.0000 0.45330  0.59510  0.37790  Biso   1.000  H
  H24      1.0000 0.95330  0.09510  0.37790  Biso   1.000  H
  C25      1.0000 0.44430  0.27650  0.88690  Biso   1.000  C
  C26      1.0000 0.94430  0.77650  0.88690  Biso   1.000  C
  C27      1.0000 0.55570  0.27650  0.61310  Biso   1.000  C
  C28      1.0000 0.05570  0.77650  0.61310  Biso   1.000  C
  C29      1.0000 0.55570  0.72350  0.11310  Biso   1.000  C
  C30      1.0000 0.05570  0.22350  0.11310  Biso   1.000  C
  C31      1.0000 0.44430  0.72350  0.38690  Biso   1.000  C
  C32      1.0000 0.94430  0.22350  0.38690  Biso   1.000  C
  H25      1.0000 0.46960  0.27230  0.93610  Biso   1.000  H
  H26      1.0000 0.96960  0.77230  0.93610  Biso   1.000  H
  H27      1.0000 0.53040  0.27230  0.56390  Biso   1.000  H
  H28      1.0000 0.03040  0.77230  0.56390  Biso   1.000  H
  H29      1.0000 0.53040  0.72770  0.06390  Biso   1.000  H
  H30      1.0000 0.03040  0.22770  0.06390  Biso   1.000  H
  H31      1.0000 0.46960  0.72770  0.43610  Biso   1.000  H
  H32      1.0000 0.96960  0.22770  0.43610  Biso   1.000  H
  C33      1.0000 0.41710  0.20520  0.84810  Biso   1.000  C
  C34      1.0000 0.91710  0.70520  0.84810  Biso   1.000  C
  C35      1.0000 0.58290  0.20520  0.65190  Biso   1.000  C
  C36      1.0000 0.08290  0.70520  0.65190  Biso   1.000  C
  C37      1.0000 0.58290  0.79480  0.15190  Biso   1.000  C
  C38      1.0000 0.08290  0.29480  0.15190  Biso   1.000  C
  C39      1.0000 0.41710  0.79480  0.34810  Biso   1.000  C
  C40      1.0000 0.91710  0.29480  0.34810  Biso   1.000  C
  C41      1.0000 0.42890  0.11830  0.87730  Biso   1.000  C
  C42      1.0000 0.92890  0.61830  0.87730  Biso   1.000  C
  C43      1.0000 0.57110  0.11830  0.62270  Biso   1.000  C
  C44      1.0000 0.07110  0.61830  0.62270  Biso   1.000  C
  C45      1.0000 0.57110  0.88170  0.12270  Biso   1.000  C
  C46      1.0000 0.07110  0.38170  0.12270  Biso   1.000  C
  C47      1.0000 0.42890  0.88170  0.37730  Biso   1.000  C
  C48      1.0000 0.92890  0.38170  0.37730  Biso   1.000  C
  C49      1.0000 0.46520  0.09640  0.94630  Biso   1.000  C
  C50      1.0000 0.96520  0.59640  0.94630  Biso   1.000  C
  C51      1.0000 0.53480  0.09640  0.55370  Biso   1.000  C
  C52      1.0000 0.03480  0.59640  0.55370  Biso   1.000  C
  C53      1.0000 0.53480  0.90360  0.05370  Biso   1.000  C
  C54      1.0000 0.03480  0.40360  0.05370  Biso   1.000  C
  C55      1.0000 0.46520  0.90360  0.44630  Biso   1.000  C
  C56      1.0000 0.96520  0.40360  0.44630  Biso   1.000  C
  H33      1.0000 0.48110  0.13890  0.98160  Biso   1.000  H
  H34      1.0000 0.98110  0.63890  0.98160  Biso   1.000  H
  H35      1.0000 0.51890  0.13890  0.51840  Biso   1.000  H
  H36      1.0000 0.01890  0.63890  0.51840  Biso   1.000  H
  H37      1.0000 0.51890  0.86110  0.01840  Biso   1.000  H
  H38      1.0000 0.01890  0.36110  0.01840  Biso   1.000  H
  H39      1.0000 0.48110  0.86110  0.48160  Biso   1.000  H
  H40      1.0000 0.98110  0.36110  0.48160  Biso   1.000  H
  C57      1.0000 0.47820  0.01340  0.96370  Biso   1.000  C
  C58      1.0000 0.97820  0.51340  0.96370  Biso   1.000  C
  C59      1.0000 0.52180  0.01340  0.53630  Biso   1.000  C
  C60      1.0000 0.02180  0.51340  0.53630  Biso   1.000  C
  C61      1.0000 0.52180  0.98660  0.03630  Biso   1.000  C
  C62      1.0000 0.02180  0.48660  0.03630  Biso   1.000  C
  C63      1.0000 0.47820  0.98660  0.46370  Biso   1.000  C
  C64      1.0000 0.97820  0.48660  0.46370  Biso   1.000  C
  C65      1.0000 0.45150  0.95280  0.91020  Biso   1.000  C
  C66      1.0000 0.95150  0.45280  0.91020  Biso   1.000  C
  C67      1.0000 0.54850  0.95280  0.58980  Biso   1.000  C
  C68      1.0000 0.04850  0.45280  0.58980  Biso   1.000  C
  C69      1.0000 0.54850  0.04720  0.08980  Biso   1.000  C
  C70      1.0000 0.04850  0.54720  0.08980  Biso   1.000  C
  C71      1.0000 0.45150  0.04720  0.41020  Biso   1.000  C
  C72      1.0000 0.95150  0.54720  0.41020  Biso   1.000  C
  H41      1.0000 0.45920  0.89440  0.92080  Biso   1.000  H
  H42      1.0000 0.95920  0.39440  0.92080  Biso   1.000  H
  H43      1.0000 0.54080  0.89440  0.57920  Biso   1.000  H
  H44      1.0000 0.04080  0.39440  0.57920  Biso   1.000  H
  H45      1.0000 0.54080  0.10560  0.07920  Biso   1.000  H
  H46      1.0000 0.04080  0.60560  0.07920  Biso   1.000  H
  H47      1.0000 0.45920  0.10560  0.42080  Biso   1.000  H
  H48      1.0000 0.95920  0.60560  0.42080  Biso   1.000  H
  C73      1.0000 0.41470  0.97780  0.84330  Biso   1.000  C
  C74      1.0000 0.91470  0.47780  0.84330  Biso   1.000  C
  C75      1.0000 0.58530  0.97780  0.65670  Biso   1.000  C
  C76      1.0000 0.08530  0.47780  0.65670  Biso   1.000  C
  C77      1.0000 0.58530  0.02220  0.15670  Biso   1.000  C
  C78      1.0000 0.08530  0.52220  0.15670  Biso   1.000  C
  C79      1.0000 0.41470  0.02220  0.34330  Biso   1.000  C
  C80      1.0000 0.91470  0.52220  0.34330  Biso   1.000  C
  C81      1.0000 0.38620  0.92390  0.77980  Biso   1.000  C
  C82      1.0000 0.88620  0.42390  0.77980  Biso   1.000  C
  C83      1.0000 0.61380  0.92390  0.72020  Biso   1.000  C
  C84      1.0000 0.11380  0.42390  0.72020  Biso   1.000  C
  C85      1.0000 0.61380  0.07610  0.22020  Biso   1.000  C
  C86      1.0000 0.11380  0.57610  0.22020  Biso   1.000  C
  C87      1.0000 0.38620  0.07610  0.27980  Biso   1.000  C
  C88      1.0000 0.88620  0.57610  0.27980  Biso   1.000  C
  C89      1.0000 0.38800  0.83730  0.78110  Biso   1.000  C
  C90      1.0000 0.88800  0.33730  0.78110  Biso   1.000  C
  C91      1.0000 0.61200  0.83730  0.71890  Biso   1.000  C
  C92      1.0000 0.11200  0.33730  0.71890  Biso   1.000  C
  C93      1.0000 0.61200  0.16270  0.21890  Biso   1.000  C
  C94      1.0000 0.11200  0.66270  0.21890  Biso   1.000  C
  C95      1.0000 0.38800  0.16270  0.28110  Biso   1.000  C
  C96      1.0000 0.88800  0.66270  0.28110  Biso   1.000  C
  H49      1.0000 0.40420  0.80780  0.82530  Biso   1.000  H
  H50      1.0000 0.90420  0.30780  0.82530  Biso   1.000  H
  H51      1.0000 0.59580  0.80780  0.67470  Biso   1.000  H
  H52      1.0000 0.09580  0.30780  0.67470  Biso   1.000  H
  H53      1.0000 0.59580  0.19220  0.17470  Biso   1.000  H
  H54      1.0000 0.09580  0.69220  0.17470  Biso   1.000  H
  H55      1.0000 0.40420  0.19220  0.32530  Biso   1.000  H
  H56      1.0000 0.90420  0.69220  0.32530  Biso   1.000  H
  C97      1.0000 0.36550  0.79380  0.71630  Biso   1.000  C
  C98      1.0000 0.86550  0.29380  0.71630  Biso   1.000  C
  C99      1.0000 0.63450  0.79380  0.78370  Biso   1.000  C
  C100     1.0000 0.13450  0.29380  0.78370  Biso   1.000  C
  C101     1.0000 0.63450  0.20620  0.28370  Biso   1.000  C
  C102     1.0000 0.13450  0.70620  0.28370  Biso   1.000  C
  C103     1.0000 0.36550  0.20620  0.21630  Biso   1.000  C
  C104     1.0000 0.86550  0.70620  0.21630  Biso   1.000  C
  H57      1.0000 0.36810  0.73400  0.71540  Biso   1.000  H
  H58      1.0000 0.86810  0.23400  0.71540  Biso   1.000  H
  H59      1.0000 0.63190  0.73400  0.78460  Biso   1.000  H
  H60      1.0000 0.13190  0.23400  0.78460  Biso   1.000  H
  H61      1.0000 0.63190  0.26600  0.28460  Biso   1.000  H
  H62      1.0000 0.13190  0.76600  0.28460  Biso   1.000  H
  H63      1.0000 0.36810  0.26600  0.21540  Biso   1.000  H
  H64      1.0000 0.86810  0.76600  0.21540  Biso   1.000  H
  C105     1.0000 0.33970  0.83720  0.65450  Biso   1.000  C
  C106     1.0000 0.83970  0.33720  0.65450  Biso   1.000  C
  C107     1.0000 0.66030  0.83720  0.84550  Biso   1.000  C
  C108     1.0000 0.16030  0.33720  0.84550  Biso   1.000  C
  C109     1.0000 0.66030  0.16280  0.34550  Biso   1.000  C
  C110     1.0000 0.16030  0.66280  0.34550  Biso   1.000  C
  C111     1.0000 0.33970  0.16280  0.15450  Biso   1.000  C
  C112     1.0000 0.83970  0.66280  0.15450  Biso   1.000  C
  H65      1.0000 0.32350  0.80840  0.61000  Biso   1.000  H
  H66      1.0000 0.82350  0.30840  0.61000  Biso   1.000  H
  H67      1.0000 0.67650  0.80840  0.89000  Biso   1.000  H
  H68      1.0000 0.17650  0.30840  0.89000  Biso   1.000  H
  H69      1.0000 0.67650  0.19160  0.39000  Biso   1.000  H
  H70      1.0000 0.17650  0.69160  0.39000  Biso   1.000  H
  H71      1.0000 0.32350  0.19160  0.11000  Biso   1.000  H
  H72      1.0000 0.82350  0.69160  0.11000  Biso   1.000  H
  C113     1.0000 0.33750  0.92580  0.65750  Biso   1.000  C
  C114     1.0000 0.83750  0.42580  0.65750  Biso   1.000  C
  C115     1.0000 0.66250  0.92580  0.84250  Biso   1.000  C
  C116     1.0000 0.16250  0.42580  0.84250  Biso   1.000  C
  C117     1.0000 0.66250  0.07420  0.34250  Biso   1.000  C
  C118     1.0000 0.16250  0.57420  0.34250  Biso   1.000  C
  C119     1.0000 0.33750  0.07420  0.15750  Biso   1.000  C
  C120     1.0000 0.83750  0.57420  0.15750  Biso   1.000  C
  H73      1.0000 0.31920  0.95670  0.61450  Biso   1.000  H
  H74      1.0000 0.81920  0.45670  0.61450  Biso   1.000  H
  H75      1.0000 0.68080  0.95670  0.88550  Biso   1.000  H
  H76      1.0000 0.18080  0.45670  0.88550  Biso   1.000  H
  H77      1.0000 0.68080  0.04330  0.38550  Biso   1.000  H
  H78      1.0000 0.18080  0.54330  0.38550  Biso   1.000  H
  H79      1.0000 0.31920  0.04330  0.11450  Biso   1.000  H
  H80      1.0000 0.81920  0.54330  0.11450  Biso   1.000  H
  C121     1.0000 0.29110  0.24090  0.52780  Biso   1.000  C
  C122     1.0000 0.79110  0.74090  0.52780  Biso   1.000  C
  C123     1.0000 0.70890  0.24090  0.97220  Biso   1.000  C
  C124     1.0000 0.20890  0.74090  0.97220  Biso   1.000  C
  C125     1.0000 0.70890  0.75910  0.47220  Biso   1.000  C
  C126     1.0000 0.20890  0.25910  0.47220  Biso   1.000  C
  C127     1.0000 0.29110  0.75910  0.02780  Biso   1.000  C
  C128     1.0000 0.79110  0.25910  0.02780  Biso   1.000  C
  H81      1.0000 0.29880  0.28860  0.56260  Biso   1.000  H
  H82      1.0000 0.79880  0.78860  0.56260  Biso   1.000  H
  H83      1.0000 0.70120  0.28860  0.93740  Biso   1.000  H
  H84      1.0000 0.20120  0.78860  0.93740  Biso   1.000  H
  H85      1.0000 0.70120  0.71140  0.43740  Biso   1.000  H
  H86      1.0000 0.20120  0.21140  0.43740  Biso   1.000  H
  H87      1.0000 0.29880  0.71140  0.06260  Biso   1.000  H
  H88      1.0000 0.79880  0.21140  0.06260  Biso   1.000  H
  H89      1.0000 0.35010  0.23560  0.50210  Biso   1.000  H
  H90      1.0000 0.85010  0.73560  0.50210  Biso   1.000  H
  H91      1.0000 0.64990  0.23560  0.99790  Biso   1.000  H
  H92      1.0000 0.14990  0.73560  0.99790  Biso   1.000  H
  H93      1.0000 0.64990  0.76440  0.49790  Biso   1.000  H
  H94      1.0000 0.14990  0.26440  0.49790  Biso   1.000  H
  H95      1.0000 0.35010  0.76440  0.00210  Biso   1.000  H
  H96      1.0000 0.85010  0.26440  0.00210  Biso   1.000  H
  H97      1.0000 0.20100  0.06300  0.80100  Biso   1.000  H
  H98      1.0000 0.70100  0.56300  0.80100  Biso   1.000  H
  H99      1.0000 0.79900  0.06300  0.69900  Biso   1.000  H
  H100     1.0000 0.29900  0.56300  0.69900  Biso   1.000  H
  H101     1.0000 0.79900  0.93700  0.19900  Biso   1.000  H
  H102     1.0000 0.29900  0.43700  0.19900  Biso   1.000  H
  H103     1.0000 0.20100  0.93700  0.30100  Biso   1.000  H
  H104     1.0000 0.70100  0.43700  0.30100  Biso   1.000  H
  H105     1.0000 0.14400  0.09000  0.73400  Biso   1.000  H
  H106     1.0000 0.64400  0.59000  0.73400  Biso   1.000  H
  H107     1.0000 0.85600  0.09000  0.76600  Biso   1.000  H
  H108     1.0000 0.35600  0.59000  0.76600  Biso   1.000  H
  H109     1.0000 0.85600  0.91000  0.26600  Biso   1.000  H
  H110     1.0000 0.35600  0.41000  0.26600  Biso   1.000  H
  H111     1.0000 0.14400  0.91000  0.23400  Biso   1.000  H
  H112     1.0000 0.64400  0.41000  0.23400  Biso   1.000  H
