data_image0
_cell_length_a       6.8944
_cell_length_b       7.0833
_cell_length_c       18.2036
_cell_angle_alpha    99.607
_cell_angle_beta     98.293
_cell_angle_gamma    94.038

_symmetry_space_group_name_H-M    "P 1"
_symmetry_int_tables_number       1

loop_
  _symmetry_equiv_pos_as_xyz
  'x, y, z'

loop_
  _atom_site_label
  _atom_site_occupancy
  _atom_site_fract_x
  _atom_site_fract_y
  _atom_site_fract_z
  _atom_site_thermal_displace_type
  _atom_site_B_iso_or_equiv
  _atom_site_type_symbol
  Cu1      1.0000 0.51467  0.79876  0.73066  Biso   1.000  Cu
  Cu2      1.0000 0.48533  0.20124  0.26934  Biso   1.000  Cu
  P1       1.0000 0.29068  0.61577  0.56780  Biso   1.000  P
  P2       1.0000 0.70932  0.38423  0.43220  Biso   1.000  P
  O1       1.0000 0.32026  0.75500  0.64256  Biso   1.000  O
  O2       1.0000 0.67974  0.24500  0.35744  Biso   1.000  O
  O3       1.0000 0.38521  0.43019  0.56998  Biso   1.000  O
  O4       1.0000 0.61479  0.56981  0.43002  Biso   1.000  O
  O5       1.0000 0.36512  0.72388  0.50696  Biso   1.000  O
  O6       1.0000 0.63488  0.27612  0.49304  Biso   1.000  O
  O7       1.0000 0.43580  0.19460  0.89395  Biso   1.000  O
  O8       1.0000 0.56420  0.80540  0.10605  Biso   1.000  O
  O9       1.0000 0.69300  0.39360  0.89862  Biso   1.000  O
  O10      1.0000 0.30700  0.60640  0.10138  Biso   1.000  O
  O11      1.0000 0.52540  0.25550  0.79059  Biso   1.000  O
  O12      1.0000 0.47460  0.74450  0.20941  Biso   1.000  O
  O13      1.0000 0.65032  0.51133  0.70243  Biso   1.000  O
  O14      1.0000 0.34968  0.48867  0.29757  Biso   1.000  O
  N1       1.0000 0.33840  0.70420  0.80004  Biso   1.000  N
  N2       1.0000 0.66160  0.29580  0.19996  Biso   1.000  N
  N3       1.0000 0.68740  0.87030  0.82632  Biso   1.000  N
  N4       1.0000 0.31260  0.12970  0.17368  Biso   1.000  N
  N5       1.0000 0.73820  0.95130  0.69839  Biso   1.000  N
  N6       1.0000 0.26180  0.04870  0.30161  Biso   1.000  N
  N7       1.0000 0.55260  0.28280  0.86144  Biso   1.000  N
  N8       1.0000 0.44740  0.71720  0.13856  Biso   1.000  N
  C1       1.0000 0.15640  0.61380  0.77985  Biso   1.000  C
  C2       1.0000 0.84360  0.38620  0.22015  Biso   1.000  C
  H1       1.0000 0.09440  0.60030  0.72890  Biso   1.000  H
  H2       1.0000 0.90560  0.39970  0.27110  Biso   1.000  H
  C3       1.0000 0.05530  0.53930  0.83098  Biso   1.000  C
  C4       1.0000 0.94470  0.46070  0.16902  Biso   1.000  C
  H3       1.0000 0.92670  0.47480  0.81520  Biso   1.000  H
  H4       1.0000 0.07330  0.52520  0.18480  Biso   1.000  H
  C5       1.0000 0.14520  0.56060  0.90543  Biso   1.000  C
  C6       1.0000 0.85480  0.43940  0.09457  Biso   1.000  C
  H5       1.0000 0.07860  0.51060  0.94130  Biso   1.000  H
  H6       1.0000 0.92140  0.48940  0.05870  Biso   1.000  H
  C7       1.0000 0.33370  0.65570  0.92745  Biso   1.000  C
  C8       1.0000 0.66630  0.34430  0.07255  Biso   1.000  C
  H7       1.0000 0.39720  0.67280  0.97830  Biso   1.000  H
  H8       1.0000 0.60280  0.32720  0.02170  Biso   1.000  H
  C9       1.0000 0.42640  0.72500  0.87315  Biso   1.000  C
  C10      1.0000 0.57360  0.27500  0.12685  Biso   1.000  C
  C11      1.0000 0.62750  0.82480  0.88814  Biso   1.000  C
  C12      1.0000 0.37250  0.17520  0.11186  Biso   1.000  C
  C13      1.0000 0.74800  0.87300  0.95807  Biso   1.000  C
  C14      1.0000 0.25200  0.12700  0.04193  Biso   1.000  C
  H9       1.0000 0.70530  0.83860  0.00180  Biso   1.000  H
  H10      1.0000 0.29470  0.16140  0.99820  Biso   1.000  H
  C15      1.0000 0.93370  0.97310  0.96290  Biso   1.000  C
  C16      1.0000 0.06630  0.02690  0.03710  Biso   1.000  C
  C17      1.0000 0.99110  0.02100  0.89671  Biso   1.000  C
  C18      1.0000 0.00890  0.97900  0.10329  Biso   1.000  C
  H11      1.0000 0.11540  0.08990  0.89840  Biso   1.000  H
  H12      1.0000 0.88460  0.91010  0.10160  Biso   1.000  H
  C19      1.0000 0.86340  0.96590  0.82878  Biso   1.000  C
  C20      1.0000 0.13660  0.03410  0.17122  Biso   1.000  C
  C21      1.0000 0.89640  0.00590  0.75387  Biso   1.000  C
  C22      1.0000 0.10360  0.99410  0.24613  Biso   1.000  C
  C23      1.0000 0.07050  0.09340  0.74055  Biso   1.000  C
  C24      1.0000 0.92950  0.90660  0.25945  Biso   1.000  C
  H13      1.0000 0.18020  0.12740  0.77990  Biso   1.000  H
  H14      1.0000 0.81980  0.87260  0.22010  Biso   1.000  H
  C25      1.0000 0.08240  0.13070  0.66834  Biso   1.000  C
  C26      1.0000 0.91760  0.86930  0.33166  Biso   1.000  C
  H15      1.0000 0.20090  0.18890  0.65750  Biso   1.000  H
  H16      1.0000 0.79910  0.81110  0.34250  Biso   1.000  H
  C27      1.0000 0.91850  0.08150  0.61287  Biso   1.000  C
  C28      1.0000 0.08150  0.91850  0.38713  Biso   1.000  C
  H17      1.0000 0.92170  0.10940  0.56380  Biso   1.000  H
  H18      1.0000 0.07830  0.89060  0.43620  Biso   1.000  H
  C29      1.0000 0.74950  0.99070  0.62972  Biso   1.000  C
  C30      1.0000 0.25050  0.00930  0.37028  Biso   1.000  C
  H19      1.0000 0.63820  0.95540  0.59120  Biso   1.000  H
  H20      1.0000 0.36180  0.04460  0.40880  Biso   1.000  H
  C31      1.0000 0.02840  0.56680  0.53861  Biso   1.000  C
  C32      1.0000 0.97160  0.43320  0.46139  Biso   1.000  C
  H21      1.0000 0.97130  0.50670  0.57700  Biso   1.000  H
  H22      1.0000 0.02870  0.49330  0.42300  Biso   1.000  H
  H23      1.0000 0.97030  0.68990  0.53620  Biso   1.000  H
  H24      1.0000 0.02970  0.31010  0.46380  Biso   1.000  H
  H25      1.0000 0.59000  0.47200  0.66390  Biso   1.000  H
  H26      1.0000 0.41000  0.52800  0.33610  Biso   1.000  H
  H27      1.0000 0.62800  0.44700  0.72820  Biso   1.000  H
  H28      1.0000 0.37200  0.55300  0.27180  Biso   1.000  H
  H29      1.0000 0.42600  0.67500  0.48680  Biso   1.000  H
  H30      1.0000 0.57400  0.32500  0.51320  Biso   1.000  H
