data_image0
_cell_length_a       10.796
_cell_length_b       10.684
_cell_length_c       18.639
_cell_angle_alpha    90
_cell_angle_beta     98.187
_cell_angle_gamma    90

_symmetry_space_group_name_H-M    "P 1"
_symmetry_int_tables_number       1

loop_
  _symmetry_equiv_pos_as_xyz
  'x, y, z'

loop_
  _atom_site_label
  _atom_site_occupancy
  _atom_site_fract_x
  _atom_site_fract_y
  _atom_site_fract_z
  _atom_site_thermal_displace_type
  _atom_site_B_iso_or_equiv
  _atom_site_type_symbol
  Cu1      1.0000 0.50841  0.39333  0.03668  Biso   1.000  Cu
  Cu2      1.0000 0.49159  0.39333  0.46332  Biso   1.000  Cu
  Cu3      1.0000 0.49159  0.60667  0.96332  Biso   1.000  Cu
  Cu4      1.0000 0.50841  0.60667  0.53668  Biso   1.000  Cu
  C1       1.0000 0.26710  0.51230  0.99980  Biso   1.000  C
  C2       1.0000 0.73290  0.51230  0.50020  Biso   1.000  C
  C3       1.0000 0.73290  0.48770  0.00020  Biso   1.000  C
  C4       1.0000 0.26710  0.48770  0.49980  Biso   1.000  C
  C5       1.0000 0.12750  0.51040  0.00150  Biso   1.000  C
  C6       1.0000 0.87250  0.51040  0.49850  Biso   1.000  C
  C7       1.0000 0.87250  0.48960  0.99850  Biso   1.000  C
  C8       1.0000 0.12750  0.48960  0.50150  Biso   1.000  C
  C9       1.0000 0.08100  0.47870  0.06410  Biso   1.000  C
  C10      1.0000 0.91900  0.47870  0.43590  Biso   1.000  C
  C11      1.0000 0.91900  0.52130  0.93590  Biso   1.000  C
  C12      1.0000 0.08100  0.52130  0.56410  Biso   1.000  C
  C13      1.0000 0.04660  0.53190  0.93790  Biso   1.000  C
  C14      1.0000 0.95340  0.53190  0.56210  Biso   1.000  C
  C15      1.0000 0.95340  0.46810  0.06210  Biso   1.000  C
  C16      1.0000 0.04660  0.46810  0.43790  Biso   1.000  C
  H1       1.0000 0.07910  0.55380  0.89600  Biso   1.000  H
  H2       1.0000 0.92090  0.55380  0.60400  Biso   1.000  H
  H3       1.0000 0.92090  0.44620  0.10400  Biso   1.000  H
  H4       1.0000 0.07910  0.44620  0.39600  Biso   1.000  H
  C17      1.0000 0.16530  0.47300  0.13690  Biso   1.000  C
  C18      1.0000 0.83470  0.47300  0.36310  Biso   1.000  C
  C19      1.0000 0.83470  0.52700  0.86310  Biso   1.000  C
  C20      1.0000 0.16530  0.52700  0.63690  Biso   1.000  C
  C21      1.0000 0.16750  0.35800  0.17990  Biso   1.000  C
  C22      1.0000 0.83250  0.35800  0.32010  Biso   1.000  C
  C23      1.0000 0.83250  0.64200  0.82010  Biso   1.000  C
  C24      1.0000 0.16750  0.64200  0.67990  Biso   1.000  C
  C25      1.0000 0.20340  0.36310  0.25410  Biso   1.000  C
  C26      1.0000 0.79660  0.36310  0.24590  Biso   1.000  C
  C27      1.0000 0.79660  0.63690  0.74590  Biso   1.000  C
  C28      1.0000 0.20340  0.63690  0.75410  Biso   1.000  C
  H5       1.0000 0.22370  0.43960  0.27660  Biso   1.000  H
  H6       1.0000 0.77630  0.43960  0.22340  Biso   1.000  H
  H7       1.0000 0.77630  0.56040  0.72340  Biso   1.000  H
  H8       1.0000 0.22370  0.56040  0.77660  Biso   1.000  H
  C29      1.0000 0.20920  0.25500  0.29470  Biso   1.000  C
  C30      1.0000 0.79080  0.25500  0.20530  Biso   1.000  C
  C31      1.0000 0.79080  0.74500  0.70530  Biso   1.000  C
  C32      1.0000 0.20920  0.74500  0.79470  Biso   1.000  C
  H9       1.0000 0.23380  0.25860  0.34460  Biso   1.000  H
  H10      1.0000 0.76620  0.25860  0.15540  Biso   1.000  H
  H11      1.0000 0.76620  0.74140  0.65540  Biso   1.000  H
  H12      1.0000 0.23380  0.74140  0.84460  Biso   1.000  H
  C33      1.0000 0.17850  0.14150  0.26170  Biso   1.000  C
  C34      1.0000 0.82150  0.14150  0.23830  Biso   1.000  C
  C35      1.0000 0.82150  0.85850  0.73830  Biso   1.000  C
  C36      1.0000 0.17850  0.85850  0.76170  Biso   1.000  C
  H13      1.0000 0.18020  0.06890  0.28940  Biso   1.000  H
  H14      1.0000 0.81980  0.06890  0.21060  Biso   1.000  H
  H15      1.0000 0.81980  0.93110  0.71060  Biso   1.000  H
  H16      1.0000 0.18020  0.93110  0.78940  Biso   1.000  H
  C37      1.0000 0.14510  0.13550  0.18720  Biso   1.000  C
  C38      1.0000 0.85490  0.13550  0.31280  Biso   1.000  C
  C39      1.0000 0.85490  0.86450  0.81280  Biso   1.000  C
  C40      1.0000 0.14510  0.86450  0.68720  Biso   1.000  C
  H17      1.0000 0.12850  0.05850  0.16460  Biso   1.000  H
  H18      1.0000 0.87150  0.05850  0.33540  Biso   1.000  H
  H19      1.0000 0.87150  0.94150  0.83540  Biso   1.000  H
  H20      1.0000 0.12850  0.94150  0.66460  Biso   1.000  H
  C41      1.0000 0.13660  0.24350  0.14660  Biso   1.000  C
  C42      1.0000 0.86340  0.24350  0.35340  Biso   1.000  C
  C43      1.0000 0.86340  0.75650  0.85340  Biso   1.000  C
  C44      1.0000 0.13660  0.75650  0.64660  Biso   1.000  C
  H21      1.0000 0.11010  0.24000  0.09700  Biso   1.000  H
  H22      1.0000 0.88990  0.24000  0.40300  Biso   1.000  H
  H23      1.0000 0.88990  0.76000  0.90300  Biso   1.000  H
  H24      1.0000 0.11010  0.76000  0.59700  Biso   1.000  H
  C45      1.0000 0.52500  0.61150  0.11840  Biso   1.000  C
  C46      1.0000 0.47500  0.61150  0.38160  Biso   1.000  C
  C47      1.0000 0.47500  0.38850  0.88160  Biso   1.000  C
  C48      1.0000 0.52500  0.38850  0.61840  Biso   1.000  C
  C49      1.0000 0.52020  0.68350  0.18830  Biso   1.000  C
  C50      1.0000 0.47980  0.68350  0.31170  Biso   1.000  C
  C51      1.0000 0.47980  0.31650  0.81170  Biso   1.000  C
  C52      1.0000 0.52020  0.31650  0.68830  Biso   1.000  C
  C53      1.0000 0.52660  0.81370  0.18950  Biso   1.000  C
  C54      1.0000 0.47340  0.81370  0.31050  Biso   1.000  C
  C55      1.0000 0.47340  0.18630  0.81050  Biso   1.000  C
  C56      1.0000 0.52660  0.18630  0.68950  Biso   1.000  C
  C57      1.0000 0.50000  0.87870  0.25000  Biso   1.000  C
  C58      1.0000 0.50000  0.12130  0.75000  Biso   1.000  C
  H25      1.0000 0.50000  0.96570  0.25000  Biso   1.000  H
  H26      1.0000 0.50000  0.03430  0.75000  Biso   1.000  H
  C59      1.0000 0.50000  0.61860  0.25000  Biso   1.000  C
  C60      1.0000 0.50000  0.38140  0.75000  Biso   1.000  C
  H27      1.0000 0.50000  0.53150  0.25000  Biso   1.000  H
  H28      1.0000 0.50000  0.46850  0.75000  Biso   1.000  H
  C61      1.0000 0.56500  0.89020  0.12750  Biso   1.000  C
  C62      1.0000 0.43500  0.89020  0.37250  Biso   1.000  C
  C63      1.0000 0.43500  0.10980  0.87250  Biso   1.000  C
  C64      1.0000 0.56500  0.10980  0.62750  Biso   1.000  C
  C65      1.0000 0.69310  0.87660  0.11130  Biso   1.000  C
  C66      1.0000 0.30690  0.87660  0.38870  Biso   1.000  C
  C67      1.0000 0.30690  0.12340  0.88870  Biso   1.000  C
  C68      1.0000 0.69310  0.12340  0.61130  Biso   1.000  C
  C69      1.0000 0.72240  0.93920  0.05060  Biso   1.000  C
  C70      1.0000 0.27760  0.93920  0.44940  Biso   1.000  C
  C71      1.0000 0.27760  0.06080  0.94940  Biso   1.000  C
  C72      1.0000 0.72240  0.06080  0.55060  Biso   1.000  C
  H29      1.0000 0.66250  0.98780  0.02250  Biso   1.000  H
  H30      1.0000 0.33750  0.98780  0.47750  Biso   1.000  H
  H31      1.0000 0.33750  0.01220  0.97750  Biso   1.000  H
  H32      1.0000 0.66250  0.01220  0.52250  Biso   1.000  H
  C73      1.0000 0.84170  0.92840  0.03250  Biso   1.000  C
  C74      1.0000 0.15830  0.92840  0.46750  Biso   1.000  C
  C75      1.0000 0.15830  0.07160  0.96750  Biso   1.000  C
  C76      1.0000 0.84170  0.07160  0.53250  Biso   1.000  C
  H33      1.0000 0.86220  0.97030  0.99210  Biso   1.000  H
  H34      1.0000 0.13780  0.97030  0.50790  Biso   1.000  H
  H35      1.0000 0.13780  0.02970  0.00790  Biso   1.000  H
  H36      1.0000 0.86220  0.02970  0.49210  Biso   1.000  H
  C77      1.0000 0.93010  0.85670  0.07350  Biso   1.000  C
  C78      1.0000 0.06990  0.85670  0.42650  Biso   1.000  C
  C79      1.0000 0.06990  0.14330  0.92650  Biso   1.000  C
  C80      1.0000 0.93010  0.14330  0.57350  Biso   1.000  C
  H37      1.0000 0.00980  0.84950  0.06040  Biso   1.000  H
  H38      1.0000 0.99020  0.84950  0.43960  Biso   1.000  H
  H39      1.0000 0.99020  0.15050  0.93960  Biso   1.000  H
  H40      1.0000 0.00980  0.15050  0.56040  Biso   1.000  H
  C81      1.0000 0.90140  0.79470  0.13420  Biso   1.000  C
  C82      1.0000 0.09860  0.79470  0.36580  Biso   1.000  C
  C83      1.0000 0.09860  0.20530  0.86580  Biso   1.000  C
  C84      1.0000 0.90140  0.20530  0.63420  Biso   1.000  C
  H41      1.0000 0.96140  0.74630  0.16230  Biso   1.000  H
  H42      1.0000 0.03860  0.74630  0.33770  Biso   1.000  H
  H43      1.0000 0.03860  0.25370  0.83770  Biso   1.000  H
  H44      1.0000 0.96140  0.25370  0.66230  Biso   1.000  H
  C85      1.0000 0.78270  0.80590  0.15240  Biso   1.000  C
  C86      1.0000 0.21730  0.80590  0.34760  Biso   1.000  C
  C87      1.0000 0.21730  0.19410  0.84760  Biso   1.000  C
  C88      1.0000 0.78270  0.19410  0.65240  Biso   1.000  C
  H45      1.0000 0.76290  0.76470  0.19330  Biso   1.000  H
  H46      1.0000 0.23710  0.76470  0.30670  Biso   1.000  H
  H47      1.0000 0.23710  0.23530  0.80670  Biso   1.000  H
  H48      1.0000 0.76290  0.23530  0.69330  Biso   1.000  H
  O1       1.0000 0.49030  0.22490  0.09510  Biso   1.000  O
  O2       1.0000 0.50970  0.22490  0.40490  Biso   1.000  O
  O3       1.0000 0.50970  0.77510  0.90490  Biso   1.000  O
  O4       1.0000 0.49030  0.77510  0.59510  Biso   1.000  O
  H49      1.0000 0.49300  0.24120  0.14000  Biso   1.000  H
  H50      1.0000 0.50700  0.24120  0.36000  Biso   1.000  H
  H51      1.0000 0.50700  0.75880  0.86000  Biso   1.000  H
  H52      1.0000 0.49300  0.75880  0.64000  Biso   1.000  H
  H53      1.0000 0.48900  0.14580  0.09010  Biso   1.000  H
  H54      1.0000 0.51100  0.14580  0.40990  Biso   1.000  H
  H55      1.0000 0.51100  0.85420  0.90990  Biso   1.000  H
  H56      1.0000 0.48900  0.85420  0.59010  Biso   1.000  H
  O5       1.0000 0.32660  0.42320  0.03200  Biso   1.000  O
  O6       1.0000 0.67340  0.42320  0.46800  Biso   1.000  O
  O7       1.0000 0.67340  0.57680  0.96800  Biso   1.000  O
  O8       1.0000 0.32660  0.57680  0.53200  Biso   1.000  O
  O9       1.0000 0.31050  0.59970  0.96540  Biso   1.000  O
  O10      1.0000 0.68950  0.59970  0.53460  Biso   1.000  O
  O11      1.0000 0.68950  0.40030  0.03460  Biso   1.000  O
  O12      1.0000 0.31050  0.40030  0.46540  Biso   1.000  O
  O13      1.0000 0.53410  0.49530  0.12450  Biso   1.000  O
  O14      1.0000 0.46590  0.49530  0.37550  Biso   1.000  O
  O15      1.0000 0.46590  0.50470  0.87550  Biso   1.000  O
  O16      1.0000 0.53410  0.50470  0.62450  Biso   1.000  O
  O17      1.0000 0.51250  0.67590  0.06160  Biso   1.000  O
  O18      1.0000 0.48750  0.67590  0.43840  Biso   1.000  O
  O19      1.0000 0.48750  0.32410  0.93840  Biso   1.000  O
  O20      1.0000 0.51250  0.32410  0.56160  Biso   1.000  O
  O21      1.0000 0.48770  0.96850  0.09890  Biso   1.000  O
  O22      1.0000 0.51230  0.96850  0.40110  Biso   1.000  O
  O23      1.0000 0.51230  0.03150  0.90110  Biso   1.000  O
  O24      1.0000 0.48770  0.03150  0.59890  Biso   1.000  O
  O25      1.0000 0.22070  0.56570  0.15950  Biso   1.000  O
  O26      1.0000 0.77930  0.56570  0.34050  Biso   1.000  O
  O27      1.0000 0.77930  0.43430  0.84050  Biso   1.000  O
  O28      1.0000 0.22070  0.43430  0.65950  Biso   1.000  O
  O29      1.0000 0.50000  0.24240  0.25000  Biso   1.000  O
  O30      1.0000 0.50000  0.75760  0.75000  Biso   1.000  O
  O31      1.0000 0.22190  0.83390  0.09940  Biso   1.000  O
  O32      1.0000 0.77810  0.83390  0.40060  Biso   1.000  O
  O33      1.0000 0.77810  0.16610  0.90060  Biso   1.000  O
  O34      1.0000 0.22190  0.16610  0.59940  Biso   1.000  O
  H57      1.0000 0.22380  0.76230  0.11540  Biso   1.000  H
  H58      1.0000 0.77620  0.76230  0.38460  Biso   1.000  H
  H59      1.0000 0.77620  0.23770  0.88460  Biso   1.000  H
  H60      1.0000 0.22380  0.23770  0.61540  Biso   1.000  H
  H61      1.0000 0.29080  0.86630  0.09960  Biso   1.000  H
  H62      1.0000 0.70920  0.86630  0.40040  Biso   1.000  H
  H63      1.0000 0.70920  0.13370  0.90040  Biso   1.000  H
  H64      1.0000 0.29080  0.13370  0.59960  Biso   1.000  H
