data_image0
_cell_length_a       9.573
_cell_length_b       11.732
_cell_length_c       17.83
_cell_angle_alpha    82.052
_cell_angle_beta     84.214
_cell_angle_gamma    72.382

_symmetry_space_group_name_H-M    "P 1"
_symmetry_int_tables_number       1

loop_
  _symmetry_equiv_pos_as_xyz
  'x, y, z'

loop_
  _atom_site_label
  _atom_site_occupancy
  _atom_site_fract_x
  _atom_site_fract_y
  _atom_site_fract_z
  _atom_site_thermal_displace_type
  _atom_site_B_iso_or_equiv
  _atom_site_type_symbol
  Cu1      1.0000 0.05568  0.26014  0.24782  Biso   1.000  Cu
  Cu2      1.0000 0.94432  0.73986  0.75218  Biso   1.000  Cu
  N1       1.0000 0.26550  0.21250  0.21290  Biso   1.000  N
  N2       1.0000 0.73450  0.78750  0.78710  Biso   1.000  N
  N3       1.0000 0.49480  0.10140  0.18940  Biso   1.000  N
  N4       1.0000 0.50520  0.89860  0.81060  Biso   1.000  N
  N5       1.0000 0.84170  0.32880  0.26770  Biso   1.000  N
  N6       1.0000 0.15830  0.67120  0.73230  Biso   1.000  N
  N7       1.0000 0.62900  0.46920  0.26750  Biso   1.000  N
  N8       1.0000 0.37100  0.53080  0.73250  Biso   1.000  N
  N9       1.0000 0.31190  0.99100  0.34480  Biso   1.000  N
  N10      1.0000 0.68810  0.00900  0.65520  Biso   1.000  N
  H1       1.0000 0.38660  0.94650  0.37090  Biso   1.000  H
  H2       1.0000 0.61340  0.05350  0.62910  Biso   1.000  H
  N11      1.0000 0.32230  0.19980  0.61160  Biso   1.000  N
  N12      1.0000 0.67770  0.80020  0.38840  Biso   1.000  N
  N13      1.0000 0.31720  0.68420  0.34970  Biso   1.000  N
  N14      1.0000 0.68280  0.31580  0.65030  Biso   1.000  N
  O1       1.0000 0.08100  0.12390  0.34670  Biso   1.000  O
  O2       1.0000 0.91900  0.87610  0.65330  Biso   1.000  O
  O3       1.0000 0.09670  0.38390  0.30310  Biso   1.000  O
  O4       1.0000 0.90330  0.61610  0.69690  Biso   1.000  O
  O5       1.0000 0.33620  0.21070  0.67850  Biso   1.000  O
  O6       1.0000 0.66380  0.78930  0.32150  Biso   1.000  O
  O7       1.0000 0.20670  0.25280  0.57970  Biso   1.000  O
  O8       1.0000 0.79330  0.74720  0.42030  Biso   1.000  O
  O9       1.0000 0.42720  0.13440  0.57620  Biso   1.000  O
  O10      1.0000 0.57280  0.86560  0.42380  Biso   1.000  O
  N15      1.0000 0.54270  0.85810  0.13310  Biso   1.000  N
  N16      1.0000 0.45730  0.14190  0.86690  Biso   1.000  N
  C1       1.0000 0.64370  0.92270  0.12960  Biso   1.000  C
  C2       1.0000 0.35630  0.07730  0.87040  Biso   1.000  C
  C3       1.0000 0.75370  0.91100  0.07150  Biso   1.000  C
  C4       1.0000 0.24630  0.08900  0.92850  Biso   1.000  C
  H3       1.0000 0.82270  0.95520  0.06910  Biso   1.000  H
  H4       1.0000 0.17730  0.04480  0.93090  Biso   1.000  H
  C5       1.0000 0.76260  0.83500  0.01690  Biso   1.000  C
  C6       1.0000 0.23740  0.16500  0.98310  Biso   1.000  C
  H5       1.0000 0.83780  0.82670  0.97720  Biso   1.000  H
  H6       1.0000 0.16220  0.17330  0.02280  Biso   1.000  H
  C7       1.0000 0.66200  0.77010  0.02050  Biso   1.000  C
  C8       1.0000 0.33800  0.22990  0.97950  Biso   1.000  C
  H7       1.0000 0.66770  0.71800  0.98320  Biso   1.000  H
  H8       1.0000 0.33230  0.28200  0.01680  Biso   1.000  H
  C9       1.0000 0.55200  0.78180  0.07850  Biso   1.000  C
  C10      1.0000 0.44800  0.21820  0.92150  Biso   1.000  C
  H9       1.0000 0.48260  0.73770  0.08100  Biso   1.000  H
  H10      1.0000 0.51740  0.26230  0.91900  Biso   1.000  H
  C11      1.0000 0.73670  0.27340  0.29980  Biso   1.000  C
  C12      1.0000 0.26330  0.72660  0.70020  Biso   1.000  C
  C13      1.0000 0.34050  0.28500  0.17310  Biso   1.000  C
  C14      1.0000 0.65950  0.71500  0.82690  Biso   1.000  C
  C15      1.0000 0.60030  0.36600  0.29810  Biso   1.000  C
  C16      1.0000 0.39970  0.63400  0.70190  Biso   1.000  C
  C17      1.0000 0.45900  0.62070  0.34210  Biso   1.000  C
  C18      1.0000 0.54100  0.37930  0.65790  Biso   1.000  C
  C19      1.0000 0.51570  0.58970  0.26250  Biso   1.000  C
  C20      1.0000 0.48430  0.41030  0.73750  Biso   1.000  C
  H11      1.0000 0.43350  0.58780  0.23360  Biso   1.000  H
  H12      1.0000 0.56650  0.41220  0.76640  Biso   1.000  H
  H13      1.0000 0.55940  0.65160  0.23570  Biso   1.000  H
  H14      1.0000 0.44060  0.34840  0.76430  Biso   1.000  H
  C21      1.0000 0.77460  0.44500  0.25150  Biso   1.000  C
  C22      1.0000 0.22540  0.55500  0.74850  Biso   1.000  C
  C23      1.0000 0.48850  0.21870  0.15810  Biso   1.000  C
  C24      1.0000 0.51150  0.78130  0.84190  Biso   1.000  C
  N17      1.0000 0.91530  0.56220  0.28880  Biso   1.000  N
  N18      1.0000 0.08470  0.43780  0.71120  Biso   1.000  N
  H15      1.0000 0.87600  0.63350  0.30450  Biso   1.000  H
  H16      1.0000 0.12400  0.36650  0.69550  Biso   1.000  H
  C25      1.0000 0.47040  0.33960  0.32670  Biso   1.000  C
  C26      1.0000 0.52960  0.66040  0.67330  Biso   1.000  C
  H17      1.0000 0.37830  0.40000  0.32550  Biso   1.000  H
  H18      1.0000 0.62170  0.60000  0.67450  Biso   1.000  H
  C27      1.0000 0.29830  0.41220  0.14890  Biso   1.000  C
  C28      1.0000 0.70170  0.58780  0.85110  Biso   1.000  C
  H19      1.0000 0.20110  0.46180  0.15880  Biso   1.000  H
  H20      1.0000 0.79890  0.53820  0.84120  Biso   1.000  H
  C29      1.0000 0.62690  0.99870  0.19020  Biso   1.000  C
  C30      1.0000 0.37310  0.00130  0.80980  Biso   1.000  C
  H21      1.0000 0.62650  0.94840  0.23950  Biso   1.000  H
  H22      1.0000 0.37350  0.05160  0.76050  Biso   1.000  H
  H23      1.0000 0.71360  0.02900  0.18670  Biso   1.000  H
  H24      1.0000 0.28640  0.97100  0.81330  Biso   1.000  H
  C31      1.0000 0.02690  0.48670  0.32500  Biso   1.000  C
  C32      1.0000 0.97310  0.51330  0.67500  Biso   1.000  C
  C33      1.0000 0.74420  0.15900  0.32810  Biso   1.000  C
  C34      1.0000 0.25580  0.84100  0.67190  Biso   1.000  C
  H25      1.0000 0.83550  0.09760  0.32740  Biso   1.000  H
  H26      1.0000 0.16450  0.90240  0.67260  Biso   1.000  H
  C35      1.0000 0.35880  0.10340  0.22210  Biso   1.000  C
  C36      1.0000 0.64120  0.89660  0.77790  Biso   1.000  C
  C37      1.0000 0.06580  0.52240  0.39630  Biso   1.000  C
  C38      1.0000 0.93420  0.47760  0.60370  Biso   1.000  C
  H27      1.0000 0.17290  0.48870  0.40180  Biso   1.000  H
  H28      1.0000 0.82710  0.51130  0.59820  Biso   1.000  H
  H29      1.0000 0.04090  0.61120  0.39250  Biso   1.000  H
  H30      1.0000 0.95910  0.38880  0.60750  Biso   1.000  H
  C39      1.0000 0.02950  0.05220  0.50390  Biso   1.000  C
  C40      1.0000 0.97050  0.94780  0.49610  Biso   1.000  C
  H31      1.0000 0.03030  0.05970  0.55850  Biso   1.000  H
  H32      1.0000 0.96970  0.94030  0.44150  Biso   1.000  H
  H33      1.0000 0.96220  0.12770  0.48050  Biso   1.000  H
  H34      1.0000 0.03780  0.87230  0.51950  Biso   1.000  H
  C41      1.0000 0.48100  0.22660  0.35590  Biso   1.000  C
  C42      1.0000 0.51900  0.77340  0.64410  Biso   1.000  C
  H35      1.0000 0.39380  0.20780  0.37600  Biso   1.000  H
  H36      1.0000 0.60620  0.79220  0.62400  Biso   1.000  H
  C43      1.0000 0.98540  0.47810  0.46460  Biso   1.000  C
  C44      1.0000 0.01460  0.52190  0.53540  Biso   1.000  C
  H37      1.0000 0.01630  0.38900  0.47070  Biso   1.000  H
  H38      1.0000 0.98370  0.61100  0.52930  Biso   1.000  H
  H39      1.0000 0.87870  0.50650  0.45740  Biso   1.000  H
  H40      1.0000 0.12130  0.49350  0.54260  Biso   1.000  H
  C45      1.0000 0.32330  0.99650  0.26240  Biso   1.000  C
  C46      1.0000 0.67670  0.00350  0.73760  Biso   1.000  C
  H41      1.0000 0.22900  0.99420  0.24540  Biso   1.000  H
  H42      1.0000 0.77100  0.00580  0.75460  Biso   1.000  H
  H43      1.0000 0.40010  0.92380  0.24760  Biso   1.000  H
  H44      1.0000 0.59990  0.07620  0.75240  Biso   1.000  H
  C47      1.0000 0.54850  0.38710  0.09400  Biso   1.000  C
  C48      1.0000 0.45150  0.61290  0.90600  Biso   1.000  C
  H45      1.0000 0.61610  0.42340  0.06520  Biso   1.000  H
  H46      1.0000 0.38390  0.57660  0.93480  Biso   1.000  H
  C49      1.0000 0.18490  0.03790  0.46700  Biso   1.000  C
  C50      1.0000 0.81510  0.96210  0.53300  Biso   1.000  C
  H47      1.0000 0.22490  0.09800  0.48390  Biso   1.000  H
  H48      1.0000 0.77510  0.90200  0.51610  Biso   1.000  H
  H49      1.0000 0.24920  0.95680  0.48420  Biso   1.000  H
  H50      1.0000 0.75080  0.04320  0.51580  Biso   1.000  H
  C51      1.0000 0.18740  0.05380  0.38200  Biso   1.000  C
  C52      1.0000 0.81260  0.94620  0.61800  Biso   1.000  C
  C53      1.0000 0.59380  0.26800  0.11750  Biso   1.000  C
  C54      1.0000 0.40620  0.73200  0.88250  Biso   1.000  C
  H51      1.0000 0.69170  0.22020  0.10710  Biso   1.000  H
  H52      1.0000 0.30830  0.77980  0.89290  Biso   1.000  H
  C55      1.0000 0.61690  0.13220  0.35840  Biso   1.000  C
  C56      1.0000 0.38310  0.86780  0.64160  Biso   1.000  C
  H53      1.0000 0.62000  0.05290  0.38030  Biso   1.000  H
  H54      1.0000 0.38000  0.94710  0.61970  Biso   1.000  H
  C57      1.0000 0.40460  0.45930  0.11060  Biso   1.000  C
  C58      1.0000 0.59540  0.54070  0.88940  Biso   1.000  C
  H55      1.0000 0.37980  0.54340  0.09480  Biso   1.000  H
  H56      1.0000 0.62020  0.45660  0.90520  Biso   1.000  H
  C59      1.0000 0.55180  0.59510  0.39710  Biso   1.000  C
  C60      1.0000 0.44820  0.40490  0.60290  Biso   1.000  C
  H57      1.0000 0.65270  0.55340  0.38830  Biso   1.000  H
  H58      1.0000 0.34730  0.44660  0.61170  Biso   1.000  H
  C61      1.0000 0.49700  0.63130  0.46730  Biso   1.000  C
  C62      1.0000 0.50300  0.36870  0.53270  Biso   1.000  C
  H59      1.0000 0.56010  0.61420  0.50770  Biso   1.000  H
  H60      1.0000 0.43990  0.38580  0.49230  Biso   1.000  H
  C63      1.0000 0.26600  0.71500  0.42170  Biso   1.000  C
  C64      1.0000 0.73400  0.28500  0.57830  Biso   1.000  C
  H61      1.0000 0.16500  0.75540  0.43040  Biso   1.000  H
  H62      1.0000 0.83500  0.24460  0.56960  Biso   1.000  H
  C65      1.0000 0.35200  0.69130  0.47910  Biso   1.000  C
  C66      1.0000 0.64800  0.30870  0.52090  Biso   1.000  C
  H63      1.0000 0.31290  0.71550  0.52750  Biso   1.000  H
  H64      1.0000 0.68710  0.28450  0.47250  Biso   1.000  H
  C67      1.0000 0.85410  0.53520  0.22560  Biso   1.000  C
  C68      1.0000 0.14590  0.46480  0.77440  Biso   1.000  C
  H65      1.0000 0.93360  0.50340  0.18720  Biso   1.000  H
  H66      1.0000 0.06640  0.49660  0.81280  Biso   1.000  H
  H67      1.0000 0.78570  0.60970  0.20170  Biso   1.000  H
  H68      1.0000 0.21430  0.39030  0.79830  Biso   1.000  H
  O11      1.0000 0.13800  0.73700  0.22060  Biso   1.000  O
  O12      1.0000 0.86200  0.26300  0.77940  Biso   1.000  O
  C69      1.0000 0.01000  0.83800  0.25400  Biso   1.000  C
  C70      1.0000 0.99000  0.16200  0.74600  Biso   1.000  C
  O13      1.0000 0.98760  0.29880  0.10790  Biso   1.000  O
  O14      1.0000 0.01240  0.70120  0.89210  Biso   1.000  O
  O15      1.0000 0.01320  0.14270  0.18360  Biso   1.000  O
  O16      1.0000 0.98680  0.85730  0.81640  Biso   1.000  O
  O17      1.0000 0.94800  0.14980  0.07160  Biso   1.000  O
  O18      1.0000 0.05200  0.85020  0.92840  Biso   1.000  O
  N19      1.0000 0.98320  0.19560  0.12460  Biso   1.000  N
  N20      1.0000 0.01680  0.80440  0.87540  Biso   1.000  N
  O19      1.0000 0.93000  0.41000  0.98700  Biso   1.000  O
  O20      1.0000 0.07000  0.59000  0.01300  Biso   1.000  O
  C71      1.0000 0.77700  0.11700  0.93400  Biso   1.000  C
  C72      1.0000 0.22300  0.88300  0.06600  Biso   1.000  C
  O21      1.0000 0.80100  0.23600  0.91400  Biso   1.000  O
  O22      1.0000 0.19900  0.76400  0.08600  Biso   1.000  O
