data_image0
_cell_length_a       16.1181
_cell_length_b       24.7209
_cell_length_c       16.1565
_cell_angle_alpha    90
_cell_angle_beta     112.267
_cell_angle_gamma    90

_symmetry_space_group_name_H-M    "P 1"
_symmetry_int_tables_number       1

loop_
  _symmetry_equiv_pos_as_xyz
  'x, y, z'

loop_
  _atom_site_label
  _atom_site_occupancy
  _atom_site_fract_x
  _atom_site_fract_y
  _atom_site_fract_z
  _atom_site_thermal_displace_type
  _atom_site_B_iso_or_equiv
  _atom_site_type_symbol
  Cu1      1.0000 0.32503  0.24107  0.40347  Biso   1.000  Cu
  Cu2      1.0000 0.17497  0.74107  0.09653  Biso   1.000  Cu
  Cu3      1.0000 0.67497  0.75893  0.59653  Biso   1.000  Cu
  Cu4      1.0000 0.82503  0.25893  0.90347  Biso   1.000  Cu
  Cu5      1.0000 0.22780  0.23862  0.15829  Biso   1.000  Cu
  Cu6      1.0000 0.27220  0.73862  0.34171  Biso   1.000  Cu
  Cu7      1.0000 0.77220  0.76138  0.84171  Biso   1.000  Cu
  Cu8      1.0000 0.72780  0.26138  0.65829  Biso   1.000  Cu
  Fe1      1.0000 0.87391  0.51357  0.64114  Biso   1.000  Fe
  Fe2      1.0000 0.62609  0.01357  0.85886  Biso   1.000  Fe
  Fe3      1.0000 0.12609  0.48643  0.35886  Biso   1.000  Fe
  Fe4      1.0000 0.37391  0.98643  0.14114  Biso   1.000  Fe
  Fe5      1.0000 0.75197  0.00130  0.32395  Biso   1.000  Fe
  Fe6      1.0000 0.74803  0.50130  0.17605  Biso   1.000  Fe
  Fe7      1.0000 0.24803  0.99870  0.67605  Biso   1.000  Fe
  Fe8      1.0000 0.25197  0.49870  0.82395  Biso   1.000  Fe
  Cl1      1.0000 0.27313  0.28828  0.49993  Biso   1.000  Cl
  Cl2      1.0000 0.22687  0.78828  0.00007  Biso   1.000  Cl
  Cl3      1.0000 0.72687  0.71172  0.50007  Biso   1.000  Cl
  Cl4      1.0000 0.77313  0.21172  0.99993  Biso   1.000  Cl
  Cl5      1.0000 0.36442  0.19772  0.29276  Biso   1.000  Cl
  Cl6      1.0000 0.13558  0.69772  0.20724  Biso   1.000  Cl
  Cl7      1.0000 0.63558  0.80228  0.70724  Biso   1.000  Cl
  Cl8      1.0000 0.86442  0.30228  0.79276  Biso   1.000  Cl
  Cl9      1.0000 0.16880  0.28656  0.24521  Biso   1.000  Cl
  Cl10     1.0000 0.33120  0.78656  0.25479  Biso   1.000  Cl
  Cl11     1.0000 0.83120  0.71344  0.75479  Biso   1.000  Cl
  Cl12     1.0000 0.66880  0.21344  0.74521  Biso   1.000  Cl
  Cl13     1.0000 0.26453  0.19885  0.04567  Biso   1.000  Cl
  Cl14     1.0000 0.23547  0.69885  0.45433  Biso   1.000  Cl
  Cl15     1.0000 0.73547  0.80115  0.95433  Biso   1.000  Cl
  Cl16     1.0000 0.76453  0.30115  0.54567  Biso   1.000  Cl
  N1       1.0000 0.39810  0.30486  0.39650  Biso   1.000  N
  N2       1.0000 0.10190  0.80486  0.10350  Biso   1.000  N
  N3       1.0000 0.60190  0.69514  0.60350  Biso   1.000  N
  N4       1.0000 0.89810  0.19514  0.89650  Biso   1.000  N
  N5       1.0000 0.49770  0.49514  0.39460  Biso   1.000  N
  N6       1.0000 0.00230  0.99514  0.10540  Biso   1.000  N
  N7       1.0000 0.50230  0.50486  0.60540  Biso   1.000  N
  N8       1.0000 0.99770  0.00486  0.89460  Biso   1.000  N
  N9       1.0000 0.35740  0.67809  0.35020  Biso   1.000  N
  N10      1.0000 0.14260  0.17809  0.14980  Biso   1.000  N
  N11      1.0000 0.64260  0.32191  0.64980  Biso   1.000  N
  N12      1.0000 0.85740  0.82191  0.85020  Biso   1.000  N
  N13      1.0000 0.24470  0.17857  0.39680  Biso   1.000  N
  N14      1.0000 0.25530  0.67857  0.10320  Biso   1.000  N
  N15      1.0000 0.75530  0.82143  0.60320  Biso   1.000  N
  N16      1.0000 0.74470  0.32143  0.89680  Biso   1.000  N
  N17      1.0000 0.10460  0.99534  0.33980  Biso   1.000  N
  N18      1.0000 0.39540  0.49534  0.16020  Biso   1.000  N
  N19      1.0000 0.89540  0.00466  0.66020  Biso   1.000  N
  N20      1.0000 0.60460  0.50466  0.83980  Biso   1.000  N
  N21      1.0000 0.20310  0.80461  0.34850  Biso   1.000  N
  N22      1.0000 0.29690  0.30461  0.15150  Biso   1.000  N
  N23      1.0000 0.79690  0.19539  0.65150  Biso   1.000  N
  N24      1.0000 0.70310  0.69539  0.84850  Biso   1.000  N
  O1       1.0000 0.44220  0.20060  0.51900  Biso   1.000  O
  O2       1.0000 0.05780  0.70060  0.98100  Biso   1.000  O
  O3       1.0000 0.55780  0.79940  0.48100  Biso   1.000  O
  O4       1.0000 0.94220  0.29940  0.01900  Biso   1.000  O
  C1       1.0000 0.35830  0.35428  0.37950  Biso   1.000  C
  C2       1.0000 0.14170  0.85428  0.12050  Biso   1.000  C
  C3       1.0000 0.64170  0.64572  0.62050  Biso   1.000  C
  C4       1.0000 0.85830  0.14572  0.87950  Biso   1.000  C
  C5       1.0000 0.40580  0.40062  0.38200  Biso   1.000  C
  C6       1.0000 0.09420  0.90062  0.11800  Biso   1.000  C
  C7       1.0000 0.59420  0.59938  0.61800  Biso   1.000  C
  C8       1.0000 0.90580  0.09938  0.88200  Biso   1.000  C
  C9       1.0000 0.49800  0.39885  0.40540  Biso   1.000  C
  C10      1.0000 0.00200  0.89885  0.09460  Biso   1.000  C
  C11      1.0000 0.50200  0.60115  0.59460  Biso   1.000  C
  C12      1.0000 0.99800  0.10115  0.90540  Biso   1.000  C
  C13      1.0000 0.53770  0.34808  0.41940  Biso   1.000  C
  C14      1.0000 0.96230  0.84808  0.08060  Biso   1.000  C
  C15      1.0000 0.46230  0.65192  0.58060  Biso   1.000  C
  C16      1.0000 0.03770  0.15192  0.91940  Biso   1.000  C
  C17      1.0000 0.48630  0.30262  0.41470  Biso   1.000  C
  C18      1.0000 0.01370  0.80262  0.08530  Biso   1.000  C
  C19      1.0000 0.51370  0.69738  0.58530  Biso   1.000  C
  C20      1.0000 0.98630  0.19738  0.91470  Biso   1.000  C
  C21      1.0000 0.54880  0.45041  0.41800  Biso   1.000  C
  C22      1.0000 0.95120  0.95041  0.08200  Biso   1.000  C
  C23      1.0000 0.45120  0.54959  0.58200  Biso   1.000  C
  C24      1.0000 0.04880  0.04959  0.91800  Biso   1.000  C
  C25      1.0000 0.64230  0.45274  0.45620  Biso   1.000  C
  C26      1.0000 0.85770  0.95274  0.04380  Biso   1.000  C
  C27      1.0000 0.35770  0.54726  0.54380  Biso   1.000  C
  C28      1.0000 0.14230  0.04726  0.95620  Biso   1.000  C
  C29      1.0000 0.68470  0.50326  0.47150  Biso   1.000  C
  C30      1.0000 0.81530  0.00326  0.02850  Biso   1.000  C
  C31      1.0000 0.31530  0.49674  0.52850  Biso   1.000  C
  C32      1.0000 0.18470  0.99674  0.97150  Biso   1.000  C
  C33      1.0000 0.63140  0.54899  0.44590  Biso   1.000  C
  C34      1.0000 0.86860  0.04899  0.05410  Biso   1.000  C
  C35      1.0000 0.36860  0.45101  0.55410  Biso   1.000  C
  C36      1.0000 0.13140  0.95101  0.94590  Biso   1.000  C
  C37      1.0000 0.53830  0.54356  0.40810  Biso   1.000  C
  C38      1.0000 0.96170  0.04356  0.09190  Biso   1.000  C
  C39      1.0000 0.46170  0.45644  0.59190  Biso   1.000  C
  C40      1.0000 0.03830  0.95644  0.90810  Biso   1.000  C
  C41      1.0000 0.47730  0.59076  0.38390  Biso   1.000  C
  C42      1.0000 0.02270  0.09076  0.11610  Biso   1.000  C
  C43      1.0000 0.52270  0.40924  0.61610  Biso   1.000  C
  C44      1.0000 0.97730  0.90924  0.88390  Biso   1.000  C
  C45      1.0000 0.38550  0.58262  0.36120  Biso   1.000  C
  C46      1.0000 0.11450  0.08262  0.13880  Biso   1.000  C
  C47      1.0000 0.61450  0.41738  0.63880  Biso   1.000  C
  C48      1.0000 0.88550  0.91738  0.86120  Biso   1.000  C
  C49      1.0000 0.32860  0.62670  0.34550  Biso   1.000  C
  C50      1.0000 0.17140  0.12670  0.15450  Biso   1.000  C
  C51      1.0000 0.67140  0.37330  0.65450  Biso   1.000  C
  C52      1.0000 0.82860  0.87330  0.84550  Biso   1.000  C
  C53      1.0000 0.44470  0.68596  0.36850  Biso   1.000  C
  C54      1.0000 0.05530  0.18596  0.13150  Biso   1.000  C
  C55      1.0000 0.55530  0.31404  0.63150  Biso   1.000  C
  C56      1.0000 0.94470  0.81404  0.86850  Biso   1.000  C
  C57      1.0000 0.50580  0.64422  0.38560  Biso   1.000  C
  C58      1.0000 0.99420  0.14422  0.11440  Biso   1.000  C
  C59      1.0000 0.49420  0.35578  0.61440  Biso   1.000  C
  C60      1.0000 0.00580  0.85578  0.88560  Biso   1.000  C
  C61      1.0000 0.78330  0.50739  0.50990  Biso   1.000  C
  C62      1.0000 0.71670  0.00739  0.99010  Biso   1.000  C
  C63      1.0000 0.21670  0.49261  0.49010  Biso   1.000  C
  C64      1.0000 0.28330  0.99261  0.00990  Biso   1.000  C
  C65      1.0000 0.84550  0.46330  0.53270  Biso   1.000  C
  C66      1.0000 0.65450  0.96330  0.96730  Biso   1.000  C
  C67      1.0000 0.15450  0.53670  0.46730  Biso   1.000  C
  C68      1.0000 0.34550  0.03670  0.03270  Biso   1.000  C
  C69      1.0000 0.93260  0.48510  0.55800  Biso   1.000  C
  C70      1.0000 0.56740  0.98510  0.94200  Biso   1.000  C
  C71      1.0000 0.06740  0.51490  0.44200  Biso   1.000  C
  C72      1.0000 0.43260  0.01490  0.05800  Biso   1.000  C
  C73      1.0000 0.92590  0.54220  0.55240  Biso   1.000  C
  C74      1.0000 0.57410  0.04220  0.94760  Biso   1.000  C
  C75      1.0000 0.07410  0.45780  0.44760  Biso   1.000  C
  C76      1.0000 0.42590  0.95780  0.05240  Biso   1.000  C
  C77      1.0000 0.83370  0.55630  0.52300  Biso   1.000  C
  C78      1.0000 0.66630  0.05630  0.97700  Biso   1.000  C
  C79      1.0000 0.16630  0.44370  0.47700  Biso   1.000  C
  C80      1.0000 0.33370  0.94370  0.02300  Biso   1.000  C
  C81      1.0000 0.95320  0.54840  0.75960  Biso   1.000  C
  C82      1.0000 0.54680  0.04840  0.74040  Biso   1.000  C
  C83      1.0000 0.04680  0.45160  0.24040  Biso   1.000  C
  C84      1.0000 0.45320  0.95160  0.25960  Biso   1.000  C
  C85      1.0000 0.86190  0.56140  0.73950  Biso   1.000  C
  C86      1.0000 0.63810  0.06140  0.76050  Biso   1.000  C
  C87      1.0000 0.13810  0.43860  0.26050  Biso   1.000  C
  C88      1.0000 0.36190  0.93860  0.23950  Biso   1.000  C
  C89      1.0000 0.81390  0.51310  0.73410  Biso   1.000  C
  C90      1.0000 0.68610  0.01310  0.76590  Biso   1.000  C
  C91      1.0000 0.18610  0.48690  0.26590  Biso   1.000  C
  C92      1.0000 0.31390  0.98690  0.23410  Biso   1.000  C
  C93      1.0000 0.87590  0.46940  0.74970  Biso   1.000  C
  C94      1.0000 0.62410  0.96940  0.75030  Biso   1.000  C
  C95      1.0000 0.12410  0.53060  0.25030  Biso   1.000  C
  C96      1.0000 0.37590  0.03060  0.24970  Biso   1.000  C
  C97      1.0000 0.96130  0.49130  0.76550  Biso   1.000  C
  C98      1.0000 0.53870  0.99130  0.73450  Biso   1.000  C
  C99      1.0000 0.03870  0.50870  0.23450  Biso   1.000  C
  C100     1.0000 0.46130  0.00870  0.26550  Biso   1.000  C
  C101     1.0000 0.15700  0.18560  0.37870  Biso   1.000  C
  C102     1.0000 0.34300  0.68560  0.12130  Biso   1.000  C
  C103     1.0000 0.84300  0.81440  0.62130  Biso   1.000  C
  C104     1.0000 0.65700  0.31440  0.87870  Biso   1.000  C
  C105     1.0000 0.09650  0.14372  0.35770  Biso   1.000  C
  C106     1.0000 0.40350  0.64372  0.14230  Biso   1.000  C
  C107     1.0000 0.90350  0.85628  0.64230  Biso   1.000  C
  C108     1.0000 0.59650  0.35628  0.85770  Biso   1.000  C
  C109     1.0000 0.12570  0.09074  0.35580  Biso   1.000  C
  C110     1.0000 0.37430  0.59074  0.14420  Biso   1.000  C
  C111     1.0000 0.87430  0.90926  0.64420  Biso   1.000  C
  C112     1.0000 0.62570  0.40926  0.85580  Biso   1.000  C
  C113     1.0000 0.21800  0.08367  0.37790  Biso   1.000  C
  C114     1.0000 0.28200  0.58367  0.12210  Biso   1.000  C
  C115     1.0000 0.78200  0.91633  0.62210  Biso   1.000  C
  C116     1.0000 0.71800  0.41633  0.87790  Biso   1.000  C
  C117     1.0000 0.27350  0.12737  0.39730  Biso   1.000  C
  C118     1.0000 0.22650  0.62737  0.10270  Biso   1.000  C
  C119     1.0000 0.72650  0.87263  0.60270  Biso   1.000  C
  C120     1.0000 0.77350  0.37263  0.89730  Biso   1.000  C
  C121     1.0000 0.06510  0.04358  0.33110  Biso   1.000  C
  C122     1.0000 0.43490  0.54358  0.16890  Biso   1.000  C
  C123     1.0000 0.93490  0.95642  0.66890  Biso   1.000  C
  C124     1.0000 0.56510  0.45642  0.83110  Biso   1.000  C
  C125     1.0000 0.97150  0.04906  0.29880  Biso   1.000  C
  C126     1.0000 0.52850  0.54906  0.20120  Biso   1.000  C
  C127     1.0000 0.02850  0.95094  0.70120  Biso   1.000  C
  C128     1.0000 0.47150  0.45094  0.79880  Biso   1.000  C
  C129     1.0000 0.91790  0.00314  0.27740  Biso   1.000  C
  C130     1.0000 0.58210  0.50314  0.22260  Biso   1.000  C
  C131     1.0000 0.08210  0.99686  0.72260  Biso   1.000  C
  C132     1.0000 0.41790  0.49686  0.77740  Biso   1.000  C
  C133     1.0000 0.96070  0.95295  0.28930  Biso   1.000  C
  C134     1.0000 0.53930  0.45295  0.21070  Biso   1.000  C
  C135     1.0000 0.03930  0.04705  0.71070  Biso   1.000  C
  C136     1.0000 0.46070  0.54705  0.78930  Biso   1.000  C
  C137     1.0000 0.05370  0.95093  0.32060  Biso   1.000  C
  C138     1.0000 0.44630  0.45093  0.17940  Biso   1.000  C
  C139     1.0000 0.94630  0.04907  0.67940  Biso   1.000  C
  C140     1.0000 0.55370  0.54907  0.82060  Biso   1.000  C
  C141     1.0000 0.10420  0.89949  0.33420  Biso   1.000  C
  C142     1.0000 0.39580  0.39949  0.16580  Biso   1.000  C
  C143     1.0000 0.89580  0.10051  0.66580  Biso   1.000  C
  C144     1.0000 0.60420  0.60051  0.83420  Biso   1.000  C
  C145     1.0000 0.19800  0.90003  0.36380  Biso   1.000  C
  C146     1.0000 0.30200  0.40003  0.13620  Biso   1.000  C
  C147     1.0000 0.80200  0.09997  0.63620  Biso   1.000  C
  C148     1.0000 0.69800  0.59997  0.86380  Biso   1.000  C
  C149     1.0000 0.24450  0.85280  0.36890  Biso   1.000  C
  C150     1.0000 0.25550  0.35280  0.13110  Biso   1.000  C
  C151     1.0000 0.75550  0.14720  0.63110  Biso   1.000  C
  C152     1.0000 0.74450  0.64720  0.86890  Biso   1.000  C
  C153     1.0000 0.11350  0.80290  0.32480  Biso   1.000  C
  C154     1.0000 0.38650  0.30290  0.17520  Biso   1.000  C
  C155     1.0000 0.88650  0.19710  0.67520  Biso   1.000  C
  C156     1.0000 0.61350  0.69710  0.82480  Biso   1.000  C
  C157     1.0000 0.06240  0.84843  0.31690  Biso   1.000  C
  C158     1.0000 0.43760  0.34843  0.18310  Biso   1.000  C
  C159     1.0000 0.93760  0.15157  0.68310  Biso   1.000  C
  C160     1.0000 0.56240  0.65157  0.81690  Biso   1.000  C
  C161     1.0000 0.81930  0.00780  0.24180  Biso   1.000  C
  C162     1.0000 0.68070  0.50780  0.25820  Biso   1.000  C
  C163     1.0000 0.18070  0.99220  0.75820  Biso   1.000  C
  C164     1.0000 0.31930  0.49220  0.74180  Biso   1.000  C
  C165     1.0000 0.75730  0.96350  0.21490  Biso   1.000  C
  C166     1.0000 0.74270  0.46350  0.28510  Biso   1.000  C
  C167     1.0000 0.24270  0.03650  0.78510  Biso   1.000  C
  C168     1.0000 0.25730  0.53650  0.71490  Biso   1.000  C
  C169     1.0000 0.67010  0.98480  0.19510  Biso   1.000  C
  C170     1.0000 0.82990  0.48480  0.30490  Biso   1.000  C
  C171     1.0000 0.32990  0.01520  0.80490  Biso   1.000  C
  C172     1.0000 0.17010  0.51520  0.69510  Biso   1.000  C
  C173     1.0000 0.76890  0.05580  0.23700  Biso   1.000  C
  C174     1.0000 0.73110  0.55580  0.26300  Biso   1.000  C
  C175     1.0000 0.23110  0.94420  0.76300  Biso   1.000  C
  C176     1.0000 0.26890  0.44420  0.73700  Biso   1.000  C
  C177     1.0000 0.67740  0.04130  0.20840  Biso   1.000  C
  C178     1.0000 0.82260  0.54130  0.29160  Biso   1.000  C
  C179     1.0000 0.32260  0.95870  0.79160  Biso   1.000  C
  C180     1.0000 0.17740  0.45870  0.70840  Biso   1.000  C
  C181     1.0000 0.71870  0.03000  0.42610  Biso   1.000  C
  C182     1.0000 0.78130  0.53000  0.07390  Biso   1.000  C
  C183     1.0000 0.28130  0.97000  0.57390  Biso   1.000  C
  C184     1.0000 0.21870  0.47000  0.92610  Biso   1.000  C
  C185     1.0000 0.69450  0.97590  0.41060  Biso   1.000  C
  C186     1.0000 0.80550  0.47590  0.08940  Biso   1.000  C
  C187     1.0000 0.30550  0.02410  0.58940  Biso   1.000  C
  C188     1.0000 0.19450  0.52410  0.91060  Biso   1.000  C
  C189     1.0000 0.77150  0.94490  0.42260  Biso   1.000  C
  C190     1.0000 0.72850  0.44490  0.07740  Biso   1.000  C
  C191     1.0000 0.22850  0.05510  0.57740  Biso   1.000  C
  C192     1.0000 0.27150  0.55510  0.92260  Biso   1.000  C
  C193     1.0000 0.84440  0.97950  0.44480  Biso   1.000  C
  C194     1.0000 0.65560  0.47950  0.05520  Biso   1.000  C
  C195     1.0000 0.15560  0.02050  0.55520  Biso   1.000  C
  C196     1.0000 0.34440  0.52050  0.94480  Biso   1.000  C
  C197     1.0000 0.81320  0.03210  0.44920  Biso   1.000  C
  C198     1.0000 0.68680  0.53210  0.05080  Biso   1.000  C
  C199     1.0000 0.18680  0.96790  0.55080  Biso   1.000  C
  C200     1.0000 0.31320  0.46790  0.94920  Biso   1.000  C
  C201     1.0000 0.43060  0.18220  0.59790  Biso   1.000  C
  C202     1.0000 0.06940  0.68220  0.90210  Biso   1.000  C
  C203     1.0000 0.56940  0.81780  0.40210  Biso   1.000  C
  C204     1.0000 0.93060  0.31780  0.09790  Biso   1.000  C
  H1       1.0000 0.29560  0.35680  0.36540  Biso   1.000  H
  H2       1.0000 0.20440  0.85680  0.13460  Biso   1.000  H
  H3       1.0000 0.70440  0.64320  0.63460  Biso   1.000  H
  H4       1.0000 0.79560  0.14320  0.86540  Biso   1.000  H
  H5       1.0000 0.37530  0.43430  0.36770  Biso   1.000  H
  H6       1.0000 0.12470  0.93430  0.13230  Biso   1.000  H
  H7       1.0000 0.62470  0.56570  0.63230  Biso   1.000  H
  H8       1.0000 0.87530  0.06570  0.86770  Biso   1.000  H
  H9       1.0000 0.60010  0.34460  0.43210  Biso   1.000  H
  H10      1.0000 0.89990  0.84460  0.06790  Biso   1.000  H
  H11      1.0000 0.39990  0.65540  0.56790  Biso   1.000  H
  H12      1.0000 0.10010  0.15540  0.93210  Biso   1.000  H
  H13      1.0000 0.51470  0.26820  0.42500  Biso   1.000  H
  H14      1.0000 0.98530  0.76820  0.07500  Biso   1.000  H
  H15      1.0000 0.48530  0.73180  0.57500  Biso   1.000  H
  H16      1.0000 0.01470  0.23180  0.92500  Biso   1.000  H
  H17      1.0000 0.67670  0.42040  0.47170  Biso   1.000  H
  H18      1.0000 0.82330  0.92040  0.02830  Biso   1.000  H
  H19      1.0000 0.32330  0.57960  0.52830  Biso   1.000  H
  H20      1.0000 0.17670  0.07960  0.97170  Biso   1.000  H
  H21      1.0000 0.65800  0.58390  0.45410  Biso   1.000  H
  H22      1.0000 0.84200  0.08390  0.04590  Biso   1.000  H
  H23      1.0000 0.34200  0.41610  0.54590  Biso   1.000  H
  H24      1.0000 0.15800  0.91610  0.95410  Biso   1.000  H
  H25      1.0000 0.36220  0.54700  0.35660  Biso   1.000  H
  H26      1.0000 0.13780  0.04700  0.14340  Biso   1.000  H
  H27      1.0000 0.63780  0.45300  0.64340  Biso   1.000  H
  H28      1.0000 0.86220  0.95300  0.85660  Biso   1.000  H
  H29      1.0000 0.26650  0.62040  0.33070  Biso   1.000  H
  H30      1.0000 0.23350  0.12040  0.16930  Biso   1.000  H
  H31      1.0000 0.73350  0.37960  0.66930  Biso   1.000  H
  H32      1.0000 0.76650  0.87960  0.83070  Biso   1.000  H
  H33      1.0000 0.46560  0.72200  0.36980  Biso   1.000  H
  H34      1.0000 0.03440  0.22200  0.13020  Biso   1.000  H
  H35      1.0000 0.53440  0.27800  0.63020  Biso   1.000  H
  H36      1.0000 0.96560  0.77800  0.86980  Biso   1.000  H
  H37      1.0000 0.56720  0.65190  0.39840  Biso   1.000  H
  H38      1.0000 0.93280  0.15190  0.10160  Biso   1.000  H
  H39      1.0000 0.43280  0.34810  0.60160  Biso   1.000  H
  H40      1.0000 0.06720  0.84810  0.89840  Biso   1.000  H
  H41      1.0000 0.83080  0.42600  0.53080  Biso   1.000  H
  H42      1.0000 0.66920  0.92600  0.96920  Biso   1.000  H
  H43      1.0000 0.16920  0.57400  0.46920  Biso   1.000  H
  H44      1.0000 0.33080  0.07400  0.03080  Biso   1.000  H
  H45      1.0000 0.98660  0.46480  0.57570  Biso   1.000  H
  H46      1.0000 0.51340  0.96480  0.92430  Biso   1.000  H
  H47      1.0000 0.01340  0.53520  0.42430  Biso   1.000  H
  H48      1.0000 0.48660  0.03520  0.07570  Biso   1.000  H
  H49      1.0000 0.97450  0.56680  0.56560  Biso   1.000  H
  H50      1.0000 0.52550  0.06680  0.93440  Biso   1.000  H
  H51      1.0000 0.02550  0.43320  0.43440  Biso   1.000  H
  H52      1.0000 0.47450  0.93320  0.06560  Biso   1.000  H
  H53      1.0000 0.80990  0.59190  0.51360  Biso   1.000  H
  H54      1.0000 0.69010  0.09190  0.98640  Biso   1.000  H
  H55      1.0000 0.19010  0.40810  0.48640  Biso   1.000  H
  H56      1.0000 0.30990  0.90810  0.01360  Biso   1.000  H
  H57      1.0000 0.00040  0.57340  0.76800  Biso   1.000  H
  H58      1.0000 0.49960  0.07340  0.73200  Biso   1.000  H
  H59      1.0000 0.99960  0.42660  0.23200  Biso   1.000  H
  H60      1.0000 0.50040  0.92660  0.26800  Biso   1.000  H
  H61      1.0000 0.83740  0.59690  0.73140  Biso   1.000  H
  H62      1.0000 0.66260  0.09690  0.76860  Biso   1.000  H
  H63      1.0000 0.16260  0.40310  0.26860  Biso   1.000  H
  H64      1.0000 0.33740  0.90310  0.23140  Biso   1.000  H
  H65      1.0000 0.75150  0.51010  0.72160  Biso   1.000  H
  H66      1.0000 0.74850  0.01010  0.77840  Biso   1.000  H
  H67      1.0000 0.24850  0.48990  0.27840  Biso   1.000  H
  H68      1.0000 0.25150  0.98990  0.22160  Biso   1.000  H
  H69      1.0000 0.86210  0.43210  0.74950  Biso   1.000  H
  H70      1.0000 0.63790  0.93210  0.75050  Biso   1.000  H
  H71      1.0000 0.13790  0.56790  0.25050  Biso   1.000  H
  H72      1.0000 0.36210  0.06790  0.24950  Biso   1.000  H
  H73      1.0000 0.01510  0.47130  0.77840  Biso   1.000  H
  H74      1.0000 0.48490  0.97130  0.72160  Biso   1.000  H
  H75      1.0000 0.98490  0.52870  0.22160  Biso   1.000  H
  H76      1.0000 0.51510  0.02870  0.27840  Biso   1.000  H
  H77      1.0000 0.13570  0.22130  0.38040  Biso   1.000  H
  H78      1.0000 0.36430  0.72130  0.11960  Biso   1.000  H
  H79      1.0000 0.86430  0.77870  0.61960  Biso   1.000  H
  H80      1.0000 0.63570  0.27870  0.88040  Biso   1.000  H
  H81      1.0000 0.03490  0.15080  0.34450  Biso   1.000  H
  H82      1.0000 0.46510  0.65080  0.15550  Biso   1.000  H
  H83      1.0000 0.96510  0.84920  0.65550  Biso   1.000  H
  H84      1.0000 0.53490  0.34920  0.84450  Biso   1.000  H
  H85      1.0000 0.24180  0.04840  0.37930  Biso   1.000  H
  H86      1.0000 0.25820  0.54840  0.12070  Biso   1.000  H
  H87      1.0000 0.75820  0.95160  0.62070  Biso   1.000  H
  H88      1.0000 0.74180  0.45160  0.87930  Biso   1.000  H
  H89      1.0000 0.33570  0.12150  0.41190  Biso   1.000  H
  H90      1.0000 0.16430  0.62150  0.08810  Biso   1.000  H
  H91      1.0000 0.66430  0.87850  0.58810  Biso   1.000  H
  H92      1.0000 0.83570  0.37850  0.91190  Biso   1.000  H
  H93      1.0000 0.94500  0.08400  0.29160  Biso   1.000  H
  H94      1.0000 0.55500  0.58400  0.20840  Biso   1.000  H
  H95      1.0000 0.05500  0.91600  0.70840  Biso   1.000  H
  H96      1.0000 0.44500  0.41600  0.79160  Biso   1.000  H
  H97      1.0000 0.92660  0.92050  0.27610  Biso   1.000  H
  H98      1.0000 0.57340  0.42050  0.22390  Biso   1.000  H
  H99      1.0000 0.07340  0.07950  0.72390  Biso   1.000  H
  H100     1.0000 0.42660  0.57950  0.77610  Biso   1.000  H
  H101     1.0000 0.22950  0.93330  0.38030  Biso   1.000  H
  H102     1.0000 0.27050  0.43330  0.11970  Biso   1.000  H
  H103     1.0000 0.77050  0.06670  0.61970  Biso   1.000  H
  H104     1.0000 0.72950  0.56670  0.88030  Biso   1.000  H
  H105     1.0000 0.30790  0.85420  0.38760  Biso   1.000  H
  H106     1.0000 0.19210  0.35420  0.11240  Biso   1.000  H
  H107     1.0000 0.69210  0.14580  0.61240  Biso   1.000  H
  H108     1.0000 0.80790  0.64580  0.88760  Biso   1.000  H
  H109     1.0000 0.08440  0.76870  0.31310  Biso   1.000  H
  H110     1.0000 0.41560  0.26870  0.18690  Biso   1.000  H
  H111     1.0000 0.91560  0.23130  0.68690  Biso   1.000  H
  H112     1.0000 0.58440  0.73130  0.81310  Biso   1.000  H
  H113     1.0000 0.99930  0.84550  0.30000  Biso   1.000  H
  H114     1.0000 0.50070  0.34550  0.20000  Biso   1.000  H
  H115     1.0000 0.00070  0.15450  0.70000  Biso   1.000  H
  H116     1.0000 0.49930  0.65450  0.80000  Biso   1.000  H
  H117     1.0000 0.77190  0.92660  0.21130  Biso   1.000  H
  H118     1.0000 0.72810  0.42660  0.28870  Biso   1.000  H
  H119     1.0000 0.22810  0.07340  0.78870  Biso   1.000  H
  H120     1.0000 0.27190  0.57340  0.71130  Biso   1.000  H
  H121     1.0000 0.61610  0.96440  0.17680  Biso   1.000  H
  H122     1.0000 0.88390  0.46440  0.32320  Biso   1.000  H
  H123     1.0000 0.38390  0.03560  0.82320  Biso   1.000  H
  H124     1.0000 0.11610  0.53560  0.67680  Biso   1.000  H
  H125     1.0000 0.79260  0.09120  0.25140  Biso   1.000  H
  H126     1.0000 0.70740  0.59120  0.24860  Biso   1.000  H
  H127     1.0000 0.20740  0.90880  0.74860  Biso   1.000  H
  H128     1.0000 0.29260  0.40880  0.75140  Biso   1.000  H
  H129     1.0000 0.62920  0.06540  0.20120  Biso   1.000  H
  H130     1.0000 0.87080  0.56540  0.29880  Biso   1.000  H
  H131     1.0000 0.37080  0.93460  0.79880  Biso   1.000  H
  H132     1.0000 0.12920  0.43460  0.70120  Biso   1.000  H
  H133     1.0000 0.68020  0.05960  0.42350  Biso   1.000  H
  H134     1.0000 0.81980  0.55960  0.07650  Biso   1.000  H
  H135     1.0000 0.31980  0.94040  0.57650  Biso   1.000  H
  H136     1.0000 0.18020  0.44040  0.92350  Biso   1.000  H
  H137     1.0000 0.63540  0.96210  0.39380  Biso   1.000  H
  H138     1.0000 0.86460  0.46210  0.10620  Biso   1.000  H
  H139     1.0000 0.36460  0.03790  0.60620  Biso   1.000  H
  H140     1.0000 0.13540  0.53790  0.89380  Biso   1.000  H
  H141     1.0000 0.77300  0.90680  0.41560  Biso   1.000  H
  H142     1.0000 0.72700  0.40680  0.08440  Biso   1.000  H
  H143     1.0000 0.22700  0.09320  0.58440  Biso   1.000  H
  H144     1.0000 0.27300  0.59320  0.91560  Biso   1.000  H
  H145     1.0000 0.90480  0.96940  0.45710  Biso   1.000  H
  H146     1.0000 0.59520  0.46940  0.04290  Biso   1.000  H
  H147     1.0000 0.09520  0.03060  0.54290  Biso   1.000  H
  H148     1.0000 0.40480  0.53060  0.95710  Biso   1.000  H
  H149     1.0000 0.84900  0.06390  0.46420  Biso   1.000  H
  H150     1.0000 0.65100  0.56390  0.03580  Biso   1.000  H
  H151     1.0000 0.15100  0.93610  0.53580  Biso   1.000  H
  H152     1.0000 0.34900  0.43610  0.96420  Biso   1.000  H
  H153     1.0000 0.48500  0.16680  0.63790  Biso   1.000  H
  H154     1.0000 0.01500  0.66680  0.86210  Biso   1.000  H
  H155     1.0000 0.51500  0.83320  0.36210  Biso   1.000  H
  H156     1.0000 0.98500  0.33320  0.13790  Biso   1.000  H
  H157     1.0000 0.41450  0.21200  0.62600  Biso   1.000  H
  H158     1.0000 0.08550  0.71200  0.87400  Biso   1.000  H
  H159     1.0000 0.58550  0.78800  0.37400  Biso   1.000  H
  H160     1.0000 0.91450  0.28800  0.12600  Biso   1.000  H
  H161     1.0000 0.38440  0.15580  0.58220  Biso   1.000  H
  H162     1.0000 0.11560  0.65580  0.91780  Biso   1.000  H
  H163     1.0000 0.61560  0.84420  0.41780  Biso   1.000  H
  H164     1.0000 0.88440  0.34420  0.08220  Biso   1.000  H
  H165     1.0000 0.47630  0.17300  0.50570  Biso   1.000  H
  H166     1.0000 0.02370  0.67300  0.99430  Biso   1.000  H
  H167     1.0000 0.52370  0.82700  0.49430  Biso   1.000  H
  H168     1.0000 0.97630  0.32700  0.00570  Biso   1.000  H
  O5       1.0000 0.46970  0.15590  0.15670  Biso   1.000  O
  O6       1.0000 0.03030  0.65590  0.34330  Biso   1.000  O
  O7       1.0000 0.53030  0.84410  0.84330  Biso   1.000  O
  O8       1.0000 0.96970  0.34410  0.65670  Biso   1.000  O
  C205     1.0000 0.49940  0.16490  0.08990  Biso   1.000  C
  C206     1.0000 0.00060  0.66490  0.41010  Biso   1.000  C
  C207     1.0000 0.50060  0.83510  0.91010  Biso   1.000  C
  C208     1.0000 0.99940  0.33510  0.58990  Biso   1.000  C
  H169     1.0000 0.41040  0.16830  0.12460  Biso   1.000  H
  H170     1.0000 0.08960  0.66830  0.37540  Biso   1.000  H
  H171     1.0000 0.58960  0.83170  0.87540  Biso   1.000  H
  H172     1.0000 0.91040  0.33170  0.62460  Biso   1.000  H
  H173     1.0000 0.56060  0.15470  0.10900  Biso   1.000  H
  H174     1.0000 0.93940  0.65470  0.39100  Biso   1.000  H
  H175     1.0000 0.43940  0.84530  0.89100  Biso   1.000  H
  H176     1.0000 0.06060  0.34530  0.60900  Biso   1.000  H
  H177     1.0000 0.49350  0.20230  0.07490  Biso   1.000  H
  H178     1.0000 0.00650  0.70230  0.42510  Biso   1.000  H
  H179     1.0000 0.50650  0.79770  0.92510  Biso   1.000  H
  H180     1.0000 0.99350  0.29770  0.57490  Biso   1.000  H
  H181     1.0000 0.46480  0.14420  0.03890  Biso   1.000  H
  H182     1.0000 0.03520  0.64420  0.46110  Biso   1.000  H
  H183     1.0000 0.53520  0.85580  0.96110  Biso   1.000  H
  H184     1.0000 0.96480  0.35580  0.53890  Biso   1.000  H
  O9       1.0000 0.57310  0.13850  0.33270  Biso   1.000  O
  O10      1.0000 0.92690  0.63850  0.16730  Biso   1.000  O
  O11      1.0000 0.42690  0.86150  0.66730  Biso   1.000  O
  O12      1.0000 0.07310  0.36150  0.83270  Biso   1.000  O
  C209     1.0000 0.64090  0.17790  0.34870  Biso   1.000  C
  C210     1.0000 0.85910  0.67790  0.15130  Biso   1.000  C
  C211     1.0000 0.35910  0.82210  0.65130  Biso   1.000  C
  C212     1.0000 0.14090  0.32210  0.84870  Biso   1.000  C
  H185     1.0000 0.53690  0.14460  0.27150  Biso   1.000  H
  H186     1.0000 0.96310  0.64460  0.22850  Biso   1.000  H
  H187     1.0000 0.46310  0.85540  0.72850  Biso   1.000  H
  H188     1.0000 0.03690  0.35540  0.77150  Biso   1.000  H
  H189     1.0000 0.68100  0.17590  0.40880  Biso   1.000  H
  H190     1.0000 0.81900  0.67590  0.09120  Biso   1.000  H
  H191     1.0000 0.31900  0.82410  0.59120  Biso   1.000  H
  H192     1.0000 0.18100  0.32410  0.90880  Biso   1.000  H
  H193     1.0000 0.67150  0.17260  0.30970  Biso   1.000  H
  H194     1.0000 0.82850  0.67260  0.19030  Biso   1.000  H
  H195     1.0000 0.32850  0.82740  0.69030  Biso   1.000  H
  H196     1.0000 0.17150  0.32740  0.80970  Biso   1.000  H
  H197     1.0000 0.61310  0.21300  0.33770  Biso   1.000  H
  H198     1.0000 0.88690  0.71300  0.16230  Biso   1.000  H
  H199     1.0000 0.38690  0.78700  0.66230  Biso   1.000  H
  H200     1.0000 0.11310  0.28700  0.83770  Biso   1.000  H
  O13      1.0000 0.53820  0.12303  0.48160  Biso   1.000  O
  O14      1.0000 0.96180  0.62303  0.01840  Biso   1.000  O
  O15      1.0000 0.46180  0.87697  0.51840  Biso   1.000  O
  O16      1.0000 0.03820  0.37697  0.98160  Biso   1.000  O
  C213     1.0000 0.52790  0.06760  0.49830  Biso   1.000  C
  C214     1.0000 0.97210  0.56760  0.00170  Biso   1.000  C
  C215     1.0000 0.47210  0.93240  0.50170  Biso   1.000  C
  C216     1.0000 0.02790  0.43240  0.99830  Biso   1.000  C
  H201     1.0000 0.57040  0.05800  0.55560  Biso   1.000  H
  H202     1.0000 0.92960  0.55800  0.94440  Biso   1.000  H
  H203     1.0000 0.42960  0.94200  0.44440  Biso   1.000  H
  H204     1.0000 0.07040  0.44200  0.05560  Biso   1.000  H
  H205     1.0000 0.53730  0.04610  0.45390  Biso   1.000  H
  H206     1.0000 0.96270  0.54610  0.04610  Biso   1.000  H
  H207     1.0000 0.46270  0.95390  0.54610  Biso   1.000  H
  H208     1.0000 0.03730  0.45390  0.95390  Biso   1.000  H
  H209     1.0000 0.46910  0.06160  0.49660  Biso   1.000  H
  H210     1.0000 0.03090  0.56160  0.00340  Biso   1.000  H
  H211     1.0000 0.53090  0.93840  0.50340  Biso   1.000  H
  H212     1.0000 0.96910  0.43840  0.99660  Biso   1.000  H
  H213     1.0000 0.55060  0.12840  0.42920  Biso   1.000  H
  H214     1.0000 0.94940  0.62840  0.07080  Biso   1.000  H
  H215     1.0000 0.44940  0.87160  0.57080  Biso   1.000  H
  H216     1.0000 0.05060  0.37160  0.92920  Biso   1.000  H
