data_image0
_cell_length_a       7.475
_cell_length_b       18.878
_cell_length_c       10.717
_cell_angle_alpha    90
_cell_angle_beta     106.99
_cell_angle_gamma    90

_symmetry_space_group_name_H-M    "P 1"
_symmetry_int_tables_number       1

loop_
  _symmetry_equiv_pos_as_xyz
  'x, y, z'

loop_
  _atom_site_label
  _atom_site_occupancy
  _atom_site_fract_x
  _atom_site_fract_y
  _atom_site_fract_z
  _atom_site_thermal_displace_type
  _atom_site_B_iso_or_equiv
  _atom_site_type_symbol
  Cu1      1.0000 0.17909  0.46639  0.59234  Biso   1.000  Cu
  Cu2      1.0000 0.82091  0.96639  0.90766  Biso   1.000  Cu
  Cu3      1.0000 0.82091  0.53361  0.40766  Biso   1.000  Cu
  Cu4      1.0000 0.17909  0.03361  0.09234  Biso   1.000  Cu
  Cl1      1.0000 0.13370  0.95789  0.90410  Biso   1.000  Cl
  Cl2      1.0000 0.86630  0.45789  0.59590  Biso   1.000  Cl
  Cl3      1.0000 0.86630  0.04211  0.09590  Biso   1.000  Cl
  Cl4      1.0000 0.13370  0.54211  0.40410  Biso   1.000  Cl
  S1       1.0000 0.36230  0.52206  0.77370  Biso   1.000  S
  S2       1.0000 0.63770  0.02206  0.72630  Biso   1.000  S
  S3       1.0000 0.63770  0.47794  0.22630  Biso   1.000  S
  S4       1.0000 0.36230  0.97794  0.27370  Biso   1.000  S
  S5       1.0000 0.72960  0.85551  0.95270  Biso   1.000  S
  S6       1.0000 0.27040  0.35551  0.54730  Biso   1.000  S
  S7       1.0000 0.27040  0.14449  0.04730  Biso   1.000  S
  S8       1.0000 0.72960  0.64449  0.45270  Biso   1.000  S
  C1       1.0000 0.68210  0.60500  0.83430  Biso   1.000  C
  C2       1.0000 0.31790  0.10500  0.66570  Biso   1.000  C
  C3       1.0000 0.31790  0.39500  0.16570  Biso   1.000  C
  C4       1.0000 0.68210  0.89500  0.33430  Biso   1.000  C
  C5       1.0000 0.71330  0.67590  0.81230  Biso   1.000  C
  C6       1.0000 0.28670  0.17590  0.68770  Biso   1.000  C
  C7       1.0000 0.28670  0.32410  0.18770  Biso   1.000  C
  C8       1.0000 0.71330  0.82410  0.31230  Biso   1.000  C
  C9       1.0000 0.83050  0.71810  0.90950  Biso   1.000  C
  C10      1.0000 0.16950  0.21810  0.59050  Biso   1.000  C
  C11      1.0000 0.16950  0.28190  0.09050  Biso   1.000  C
  C12      1.0000 0.83050  0.78190  0.40950  Biso   1.000  C
  C13      1.0000 0.91490  0.68740  0.02920  Biso   1.000  C
  C14      1.0000 0.08510  0.18740  0.47080  Biso   1.000  C
  C15      1.0000 0.08510  0.31260  0.97080  Biso   1.000  C
  C16      1.0000 0.91490  0.81260  0.52920  Biso   1.000  C
  C17      1.0000 0.88940  0.61690  0.05150  Biso   1.000  C
  C18      1.0000 0.11060  0.11690  0.44850  Biso   1.000  C
  C19      1.0000 0.11060  0.38310  0.94850  Biso   1.000  C
  C20      1.0000 0.88940  0.88310  0.55150  Biso   1.000  C
  C21      1.0000 0.77180  0.57600  0.95360  Biso   1.000  C
  C22      1.0000 0.22820  0.07600  0.54640  Biso   1.000  C
  C23      1.0000 0.22820  0.42400  0.04640  Biso   1.000  C
  C24      1.0000 0.77180  0.92400  0.45360  Biso   1.000  C
  C25      1.0000 0.55320  0.56150  0.72660  Biso   1.000  C
  C26      1.0000 0.44680  0.06150  0.77340  Biso   1.000  C
  C27      1.0000 0.44680  0.43850  0.27340  Biso   1.000  C
  C28      1.0000 0.55320  0.93850  0.22660  Biso   1.000  C
  C29      1.0000 0.24700  0.59540  0.82740  Biso   1.000  C
  C30      1.0000 0.75300  0.09540  0.67260  Biso   1.000  C
  C31      1.0000 0.75300  0.40460  0.17260  Biso   1.000  C
  C32      1.0000 0.24700  0.90460  0.32740  Biso   1.000  C
  C33      1.0000 0.17900  0.64300  0.72900  Biso   1.000  C
  C34      1.0000 0.82100  0.14300  0.77100  Biso   1.000  C
  C35      1.0000 0.82100  0.35700  0.27100  Biso   1.000  C
  C36      1.0000 0.17900  0.85700  0.22900  Biso   1.000  C
  C37      1.0000 0.86190  0.79380  0.88370  Biso   1.000  C
  C38      1.0000 0.13810  0.29380  0.61630  Biso   1.000  C
  C39      1.0000 0.13810  0.20620  0.11630  Biso   1.000  C
  C40      1.0000 0.86190  0.70620  0.38370  Biso   1.000  C
  C41      1.0000 0.49160  0.83260  0.86090  Biso   1.000  C
  C42      1.0000 0.50840  0.33260  0.63910  Biso   1.000  C
  C43      1.0000 0.50840  0.16740  0.13910  Biso   1.000  C
  C44      1.0000 0.49160  0.66740  0.36090  Biso   1.000  C
  C45      1.0000 0.44200  0.84400  0.71500  Biso   1.000  C
  C46      1.0000 0.55800  0.34400  0.78500  Biso   1.000  C
  C47      1.0000 0.55800  0.15600  0.28500  Biso   1.000  C
  C48      1.0000 0.44200  0.65600  0.21500  Biso   1.000  C
  H1       1.0000 0.64470  0.69240  0.72200  Biso   1.000  H
  H2       1.0000 0.35530  0.19240  0.77800  Biso   1.000  H
  H3       1.0000 0.35530  0.30760  0.27800  Biso   1.000  H
  H4       1.0000 0.64470  0.80760  0.22200  Biso   1.000  H
  H5       1.0000 0.99240  0.71220  0.09230  Biso   1.000  H
  H6       1.0000 0.00760  0.21220  0.40770  Biso   1.000  H
  H7       1.0000 0.00760  0.28780  0.90770  Biso   1.000  H
  H8       1.0000 0.99240  0.78780  0.59230  Biso   1.000  H
  H9       1.0000 0.96020  0.59930  0.13910  Biso   1.000  H
  H10      1.0000 0.03980  0.09930  0.36090  Biso   1.000  H
  H11      1.0000 0.03980  0.40070  0.86090  Biso   1.000  H
  H12      1.0000 0.96020  0.90070  0.63910  Biso   1.000  H
  H13      1.0000 0.76340  0.52760  0.97410  Biso   1.000  H
  H14      1.0000 0.23660  0.02760  0.52590  Biso   1.000  H
  H15      1.0000 0.23660  0.47240  0.02590  Biso   1.000  H
  H16      1.0000 0.76340  0.97240  0.47410  Biso   1.000  H
  H17      1.0000 0.49370  0.59620  0.64210  Biso   1.000  H
  H18      1.0000 0.50630  0.09620  0.85790  Biso   1.000  H
  H19      1.0000 0.50630  0.40380  0.35790  Biso   1.000  H
  H20      1.0000 0.49370  0.90380  0.14210  Biso   1.000  H
  H21      1.0000 0.63420  0.51900  0.69910  Biso   1.000  H
  H22      1.0000 0.36580  0.01900  0.80090  Biso   1.000  H
  H23      1.0000 0.36580  0.48100  0.30090  Biso   1.000  H
  H24      1.0000 0.63420  0.98100  0.19910  Biso   1.000  H
  H25      1.0000 0.34620  0.62340  0.90940  Biso   1.000  H
  H26      1.0000 0.65380  0.12340  0.59060  Biso   1.000  H
  H27      1.0000 0.65380  0.37660  0.09060  Biso   1.000  H
  H28      1.0000 0.34620  0.87660  0.40940  Biso   1.000  H
  H29      1.0000 0.12840  0.57600  0.85980  Biso   1.000  H
  H30      1.0000 0.87160  0.07600  0.64020  Biso   1.000  H
  H31      1.0000 0.87160  0.42400  0.14020  Biso   1.000  H
  H32      1.0000 0.12840  0.92400  0.35980  Biso   1.000  H
  H33      1.0000 0.11990  0.68960  0.76420  Biso   1.000  H
  H34      1.0000 0.88010  0.18960  0.73580  Biso   1.000  H
  H35      1.0000 0.88010  0.31040  0.23580  Biso   1.000  H
  H36      1.0000 0.11990  0.81040  0.26420  Biso   1.000  H
  H37      1.0000 0.06940  0.61770  0.64940  Biso   1.000  H
  H38      1.0000 0.93060  0.11770  0.85060  Biso   1.000  H
  H39      1.0000 0.93060  0.38230  0.35060  Biso   1.000  H
  H40      1.0000 0.06940  0.88230  0.14940  Biso   1.000  H
  H41      1.0000 0.29380  0.66050  0.69010  Biso   1.000  H
  H42      1.0000 0.70620  0.16050  0.80990  Biso   1.000  H
  H43      1.0000 0.70620  0.33950  0.30990  Biso   1.000  H
  H44      1.0000 0.29380  0.83950  0.19010  Biso   1.000  H
  H45      1.0000 1.00000  0.80530  0.92760  Biso   1.000  H
  H46      1.0000 0.00000  0.30530  0.57240  Biso   1.000  H
  H47      1.0000 0.00000  0.19470  0.07240  Biso   1.000  H
  H48      1.0000 0.00000  0.69470  0.42760  Biso   1.000  H
  H49      1.0000 0.83390  0.81120  0.77920  Biso   1.000  H
  H50      1.0000 0.16610  0.31120  0.72080  Biso   1.000  H
  H51      1.0000 0.16610  0.18880  0.22080  Biso   1.000  H
  H52      1.0000 0.83390  0.68880  0.27920  Biso   1.000  H
  H53      1.0000 0.39510  0.86570  0.89690  Biso   1.000  H
  H54      1.0000 0.60490  0.36570  0.60310  Biso   1.000  H
  H55      1.0000 0.60490  0.13430  0.10310  Biso   1.000  H
  H56      1.0000 0.39510  0.63430  0.39690  Biso   1.000  H
  H57      1.0000 0.46770  0.77670  0.87790  Biso   1.000  H
  H58      1.0000 0.53230  0.27670  0.62210  Biso   1.000  H
  H59      1.0000 0.53230  0.22330  0.12210  Biso   1.000  H
  H60      1.0000 0.46770  0.72330  0.37790  Biso   1.000  H
  H61      1.0000 0.29530  0.83020  0.66680  Biso   1.000  H
  H62      1.0000 0.70470  0.33020  0.83320  Biso   1.000  H
  H63      1.0000 0.70470  0.16980  0.33320  Biso   1.000  H
  H64      1.0000 0.29530  0.66980  0.16680  Biso   1.000  H
  H65      1.0000 0.53350  0.81180  0.67310  Biso   1.000  H
  H66      1.0000 0.46650  0.31180  0.82690  Biso   1.000  H
  H67      1.0000 0.46650  0.18820  0.32690  Biso   1.000  H
  H68      1.0000 0.53350  0.68820  0.17310  Biso   1.000  H
  H69      1.0000 0.46260  0.90100  0.69240  Biso   1.000  H
  H70      1.0000 0.53740  0.40100  0.80760  Biso   1.000  H
  H71      1.0000 0.53740  0.09900  0.30760  Biso   1.000  H
  H72      1.0000 0.46260  0.59900  0.19240  Biso   1.000  H
