data_image0
_cell_length_a       7.6779
_cell_length_b       15.6053
_cell_length_c       9.6101
_cell_angle_alpha    90
_cell_angle_beta     101.924
_cell_angle_gamma    90

_symmetry_space_group_name_H-M    "P 1"
_symmetry_int_tables_number       1

loop_
  _symmetry_equiv_pos_as_xyz
  'x, y, z'

loop_
  _atom_site_label
  _atom_site_occupancy
  _atom_site_fract_x
  _atom_site_fract_y
  _atom_site_fract_z
  _atom_site_thermal_displace_type
  _atom_site_B_iso_or_equiv
  _atom_site_type_symbol
  Cu1      1.0000 0.00000  0.50000  0.00000  Biso   1.000  Cu
  Cu2      1.0000 0.50000  0.00000  0.50000  Biso   1.000  Cu
  O1       1.0000 0.21220  0.42179  0.05657  Biso   1.000  O
  O2       1.0000 0.28780  0.92179  0.44343  Biso   1.000  O
  O3       1.0000 0.78780  0.57821  0.94343  Biso   1.000  O
  O4       1.0000 0.71220  0.07821  0.55657  Biso   1.000  O
  O5       1.0000 0.82540  0.43067  0.07367  Biso   1.000  O
  O6       1.0000 0.67460  0.93067  0.42633  Biso   1.000  O
  O7       1.0000 0.17460  0.56933  0.92633  Biso   1.000  O
  O8       1.0000 0.32540  0.06933  0.57367  Biso   1.000  O
  O9       1.0000 0.09310  0.55007  0.23320  Biso   1.000  O
  O10      1.0000 0.40690  0.05007  0.26680  Biso   1.000  O
  O11      1.0000 0.90690  0.44993  0.76680  Biso   1.000  O
  O12      1.0000 0.59310  0.94993  0.73320  Biso   1.000  O
  N1       1.0000 0.53870  0.34855  0.32080  Biso   1.000  N
  N2       1.0000 0.96130  0.84855  0.17920  Biso   1.000  N
  N3       1.0000 0.46130  0.65145  0.67920  Biso   1.000  N
  N4       1.0000 0.03870  0.15145  0.82080  Biso   1.000  N
  C1       1.0000 0.52330  0.41965  0.08430  Biso   1.000  C
  C2       1.0000 0.97670  0.91965  0.41570  Biso   1.000  C
  C3       1.0000 0.47670  0.58035  0.91570  Biso   1.000  C
  C4       1.0000 0.02330  0.08035  0.58430  Biso   1.000  C
  C5       1.0000 0.66890  0.45986  0.04550  Biso   1.000  C
  C6       1.0000 0.83110  0.95986  0.45450  Biso   1.000  C
  C7       1.0000 0.33110  0.54014  0.95450  Biso   1.000  C
  C8       1.0000 0.16890  0.04014  0.54550  Biso   1.000  C
  C9       1.0000 0.35420  0.45540  0.03720  Biso   1.000  C
  C10      1.0000 0.14580  0.95540  0.46280  Biso   1.000  C
  C11      1.0000 0.64580  0.54460  0.96280  Biso   1.000  C
  C12      1.0000 0.85420  0.04460  0.53720  Biso   1.000  C
  C13      1.0000 0.54850  0.33739  0.16590  Biso   1.000  C
  C14      1.0000 0.95150  0.83739  0.33410  Biso   1.000  C
  C15      1.0000 0.45150  0.66261  0.83410  Biso   1.000  C
  C16      1.0000 0.04850  0.16261  0.66590  Biso   1.000  C
  H1       1.0000 0.66580  0.31280  0.16060  Biso   1.000  H
  H2       1.0000 0.83420  0.81280  0.33940  Biso   1.000  H
  H3       1.0000 0.33420  0.68720  0.83940  Biso   1.000  H
  H4       1.0000 0.16580  0.18720  0.66060  Biso   1.000  H
  H5       1.0000 0.45580  0.29610  0.12100  Biso   1.000  H
  H6       1.0000 0.04420  0.79610  0.37900  Biso   1.000  H
  H7       1.0000 0.54420  0.70390  0.87900  Biso   1.000  H
  H8       1.0000 0.95580  0.20390  0.62100  Biso   1.000  H
  C17      1.0000 0.59110  0.26722  0.40210  Biso   1.000  C
  C18      1.0000 0.90890  0.76722  0.09790  Biso   1.000  C
  C19      1.0000 0.40890  0.73278  0.59790  Biso   1.000  C
  C20      1.0000 0.09110  0.23278  0.90210  Biso   1.000  C
  H9       1.0000 0.72070  0.26050  0.41970  Biso   1.000  H
  H10      1.0000 0.77930  0.76050  0.08030  Biso   1.000  H
  H11      1.0000 0.27930  0.73950  0.58030  Biso   1.000  H
  H12      1.0000 0.22070  0.23950  0.91970  Biso   1.000  H
  H13      1.0000 0.53430  0.21840  0.34660  Biso   1.000  H
  H14      1.0000 0.96570  0.71840  0.15340  Biso   1.000  H
  H15      1.0000 0.46570  0.78160  0.65340  Biso   1.000  H
  H16      1.0000 0.03430  0.28160  0.84660  Biso   1.000  H
  H17      1.0000 0.55250  0.26970  0.49300  Biso   1.000  H
  H18      1.0000 0.94750  0.76970  0.00700  Biso   1.000  H
  H19      1.0000 0.44750  0.73030  0.50700  Biso   1.000  H
  H20      1.0000 0.05250  0.23030  0.99300  Biso   1.000  H
  C21      1.0000 0.64950  0.42070  0.39100  Biso   1.000  C
  C22      1.0000 0.85050  0.92070  0.10900  Biso   1.000  C
  C23      1.0000 0.35050  0.57930  0.60900  Biso   1.000  C
  C24      1.0000 0.14950  0.07930  0.89100  Biso   1.000  C
  H21      1.0000 0.64220  0.42320  0.49150  Biso   1.000  H
  H22      1.0000 0.85780  0.92320  0.00850  Biso   1.000  H
  H23      1.0000 0.35780  0.57680  0.50850  Biso   1.000  H
  H24      1.0000 0.14220  0.07680  0.99150  Biso   1.000  H
  H25      1.0000 0.60580  0.47470  0.34430  Biso   1.000  H
  H26      1.0000 0.89420  0.97470  0.15570  Biso   1.000  H
  H27      1.0000 0.39420  0.52530  0.65570  Biso   1.000  H
  H28      1.0000 0.10580  0.02530  0.84430  Biso   1.000  H
  H29      1.0000 0.77360  0.41180  0.38340  Biso   1.000  H
  H30      1.0000 0.72640  0.91180  0.11660  Biso   1.000  H
  H31      1.0000 0.22640  0.58820  0.61660  Biso   1.000  H
  H32      1.0000 0.27360  0.08820  0.88340  Biso   1.000  H
  H33      1.0000 0.43000  0.36100  0.32400  Biso   1.000  H
  H34      1.0000 0.07000  0.86100  0.17600  Biso   1.000  H
  H35      1.0000 0.57000  0.63900  0.67600  Biso   1.000  H
  H36      1.0000 0.93000  0.13900  0.82400  Biso   1.000  H
  H37      1.0000 0.17400  0.58100  0.24300  Biso   1.000  H
  H38      1.0000 0.32600  0.08100  0.25700  Biso   1.000  H
  H39      1.0000 0.82600  0.41900  0.75700  Biso   1.000  H
  H40      1.0000 0.67400  0.91900  0.74300  Biso   1.000  H
  H41      1.0000 0.00700  0.57000  0.26700  Biso   1.000  H
  H42      1.0000 0.49300  0.07000  0.23300  Biso   1.000  H
  H43      1.0000 0.99300  0.43000  0.73300  Biso   1.000  H
  H44      1.0000 0.50700  0.93000  0.76700  Biso   1.000  H
  O13      1.0000 0.80140  0.60268  0.63100  Biso   1.000  O
  O14      1.0000 0.69860  0.10268  0.86900  Biso   1.000  O
  O15      1.0000 0.19860  0.39732  0.36900  Biso   1.000  O
  O16      1.0000 0.30140  0.89732  0.13100  Biso   1.000  O
  H45      1.0000 0.83700  0.55900  0.68000  Biso   1.000  H
  H46      1.0000 0.66300  0.05900  0.82000  Biso   1.000  H
  H47      1.0000 0.16300  0.44100  0.32000  Biso   1.000  H
  H48      1.0000 0.33700  0.94100  0.18000  Biso   1.000  H
  H49      1.0000 0.86800  0.64200  0.66900  Biso   1.000  H
  H50      1.0000 0.63200  0.14200  0.83100  Biso   1.000  H
  H51      1.0000 0.13200  0.35800  0.33100  Biso   1.000  H
  H52      1.0000 0.36800  0.85800  0.16900  Biso   1.000  H
  O17      1.0000 0.85310  0.61991  0.35720  Biso   1.000  O
  O18      1.0000 0.64690  0.11991  0.14280  Biso   1.000  O
  O19      1.0000 0.14690  0.38009  0.64280  Biso   1.000  O
  O20      1.0000 0.35310  0.88009  0.85720  Biso   1.000  O
  H53      1.0000 0.74800  0.62700  0.31200  Biso   1.000  H
  H54      1.0000 0.75200  0.12700  0.18800  Biso   1.000  H
  H55      1.0000 0.25200  0.37300  0.68800  Biso   1.000  H
  H56      1.0000 0.24800  0.87300  0.81200  Biso   1.000  H
  H57      1.0000 0.84700  0.60400  0.43400  Biso   1.000  H
  H58      1.0000 0.65300  0.10400  0.06600  Biso   1.000  H
  H59      1.0000 0.15300  0.39600  0.56600  Biso   1.000  H
  H60      1.0000 0.34700  0.89600  0.93400  Biso   1.000  H
  O21      1.0000 0.47430  0.61775  0.25800  Biso   1.000  O
  O22      1.0000 0.02570  0.11775  0.24200  Biso   1.000  O
  O23      1.0000 0.52570  0.38225  0.74200  Biso   1.000  O
  O24      1.0000 0.97430  0.88225  0.75800  Biso   1.000  O
  N5       1.0000 0.42940  0.69324  0.23240  Biso   1.000  N
  N6       1.0000 0.07060  0.19324  0.26760  Biso   1.000  N
  N7       1.0000 0.57060  0.30676  0.76760  Biso   1.000  N
  N8       1.0000 0.92940  0.80676  0.73240  Biso   1.000  N
  O25      1.0000 0.27450  0.71370  0.23700  Biso   1.000  O
  O26      1.0000 0.22550  0.21370  0.26300  Biso   1.000  O
  O27      1.0000 0.72550  0.28630  0.76300  Biso   1.000  O
  O28      1.0000 0.77450  0.78630  0.73700  Biso   1.000  O
  O29      1.0000 0.53180  0.74790  0.20570  Biso   1.000  O
  O30      1.0000 0.96820  0.24790  0.29430  Biso   1.000  O
  O31      1.0000 0.46820  0.25210  0.79430  Biso   1.000  O
  O32      1.0000 0.03180  0.75210  0.70570  Biso   1.000  O
