data_image0
_cell_length_a       9.7712
_cell_length_b       10.7343
_cell_length_c       15.4568
_cell_angle_alpha    90
_cell_angle_beta     98.136
_cell_angle_gamma    90

_symmetry_space_group_name_H-M    "P 1"
_symmetry_int_tables_number       1

loop_
  _symmetry_equiv_pos_as_xyz
  'x, y, z'

loop_
  _atom_site_label
  _atom_site_occupancy
  _atom_site_fract_x
  _atom_site_fract_y
  _atom_site_fract_z
  _atom_site_thermal_displace_type
  _atom_site_B_iso_or_equiv
  _atom_site_type_symbol
  Cu1      1.0000 0.63731  0.00727  0.99762  Biso   1.000  Cu
  Cu2      1.0000 0.86269  0.50727  0.50238  Biso   1.000  Cu
  Cu3      1.0000 0.36269  0.99273  0.00238  Biso   1.000  Cu
  Cu4      1.0000 0.13731  0.49273  0.49762  Biso   1.000  Cu
  S1       1.0000 0.59020  0.07900  0.41172  Biso   1.000  S
  S2       1.0000 0.90980  0.57900  0.08828  Biso   1.000  S
  S3       1.0000 0.40980  0.92100  0.58828  Biso   1.000  S
  S4       1.0000 0.09020  0.42100  0.91172  Biso   1.000  S
  S5       1.0000 0.69230  0.37960  0.80673  Biso   1.000  S
  S6       1.0000 0.80770  0.87960  0.69327  Biso   1.000  S
  S7       1.0000 0.30770  0.62040  0.19327  Biso   1.000  S
  S8       1.0000 0.19230  0.12040  0.30673  Biso   1.000  S
  O1       1.0000 0.63800  0.09230  0.11090  Biso   1.000  O
  O2       1.0000 0.86200  0.59230  0.38910  Biso   1.000  O
  O3       1.0000 0.36200  0.90770  0.88910  Biso   1.000  O
  O4       1.0000 0.13800  0.40770  0.61090  Biso   1.000  O
  O5       1.0000 0.40990  0.07570  0.11700  Biso   1.000  O
  O6       1.0000 0.09010  0.57570  0.38300  Biso   1.000  O
  O7       1.0000 0.59010  0.92430  0.88300  Biso   1.000  O
  O8       1.0000 0.90990  0.42430  0.61700  Biso   1.000  O
  O9       1.0000 0.59870  0.17010  0.93910  Biso   1.000  O
  O10      1.0000 0.90130  0.67010  0.56090  Biso   1.000  O
  O11      1.0000 0.40130  0.82990  0.06090  Biso   1.000  O
  O12      1.0000 0.09870  0.32990  0.43910  Biso   1.000  O
  O13      1.0000 0.37380  0.15470  0.94340  Biso   1.000  O
  O14      1.0000 0.12620  0.65470  0.55660  Biso   1.000  O
  O15      1.0000 0.62620  0.84530  0.05660  Biso   1.000  O
  O16      1.0000 0.87380  0.34530  0.44340  Biso   1.000  O
  C1       1.0000 0.53170  0.10690  0.14790  Biso   1.000  C
  C2       1.0000 0.96830  0.60690  0.35210  Biso   1.000  C
  C3       1.0000 0.46830  0.89310  0.85210  Biso   1.000  C
  C4       1.0000 0.03170  0.39310  0.64790  Biso   1.000  C
  C5       1.0000 0.55580  0.15980  0.23950  Biso   1.000  C
  C6       1.0000 0.94420  0.65980  0.26050  Biso   1.000  C
  C7       1.0000 0.44420  0.84020  0.76050  Biso   1.000  C
  C8       1.0000 0.05580  0.34020  0.73950  Biso   1.000  C
  H1       1.0000 0.62420  0.22580  0.24260  Biso   1.000  H
  H2       1.0000 0.87580  0.72580  0.25740  Biso   1.000  H
  H3       1.0000 0.37580  0.77420  0.75740  Biso   1.000  H
  H4       1.0000 0.12420  0.27420  0.74260  Biso   1.000  H
  H5       1.0000 0.47050  0.19510  0.25390  Biso   1.000  H
  H6       1.0000 0.02950  0.69510  0.24610  Biso   1.000  H
  H7       1.0000 0.52950  0.80490  0.74610  Biso   1.000  H
  H8       1.0000 0.97050  0.30490  0.75390  Biso   1.000  H
  C9       1.0000 0.60590  0.05820  0.30450  Biso   1.000  C
  C10      1.0000 0.89410  0.55820  0.19550  Biso   1.000  C
  C11      1.0000 0.39410  0.94180  0.69550  Biso   1.000  C
  C12      1.0000 0.10590  0.44180  0.80450  Biso   1.000  C
  C13      1.0000 0.68170  0.94310  0.28680  Biso   1.000  C
  C14      1.0000 0.81830  0.44310  0.21320  Biso   1.000  C
  C15      1.0000 0.31830  0.05690  0.71320  Biso   1.000  C
  C16      1.0000 0.18170  0.55690  0.78680  Biso   1.000  C
  H9       1.0000 0.70910  0.91680  0.23450  Biso   1.000  H
  H10      1.0000 0.79090  0.41680  0.26550  Biso   1.000  H
  H11      1.0000 0.29090  0.08320  0.76550  Biso   1.000  H
  H12      1.0000 0.20910  0.58320  0.73450  Biso   1.000  H
  C17      1.0000 0.70290  0.88010  0.37360  Biso   1.000  C
  C18      1.0000 0.79710  0.38010  0.12640  Biso   1.000  C
  C19      1.0000 0.29710  0.11990  0.62640  Biso   1.000  C
  C20      1.0000 0.20290  0.61990  0.87360  Biso   1.000  C
  H13      1.0000 0.74360  0.80170  0.38110  Biso   1.000  H
  H14      1.0000 0.75640  0.30170  0.11890  Biso   1.000  H
  H15      1.0000 0.25640  0.19830  0.61890  Biso   1.000  H
  H16      1.0000 0.24360  0.69830  0.88110  Biso   1.000  H
  C21      1.0000 0.66040  0.94210  0.44070  Biso   1.000  C
  C22      1.0000 0.83960  0.44210  0.05930  Biso   1.000  C
  C23      1.0000 0.33960  0.05790  0.55930  Biso   1.000  C
  C24      1.0000 0.16040  0.55790  0.94070  Biso   1.000  C
  H17      1.0000 0.66950  0.91130  0.49750  Biso   1.000  H
  H18      1.0000 0.83050  0.41130  0.00250  Biso   1.000  H
  H19      1.0000 0.33050  0.08870  0.50250  Biso   1.000  H
  H20      1.0000 0.16950  0.58870  0.99750  Biso   1.000  H
  C25      1.0000 0.47730  0.20800  0.92360  Biso   1.000  C
  C26      1.0000 0.02270  0.70800  0.57640  Biso   1.000  C
  C27      1.0000 0.52270  0.79200  0.07640  Biso   1.000  C
  C28      1.0000 0.97730  0.29200  0.42360  Biso   1.000  C
  C29      1.0000 0.44540  0.32950  0.87410  Biso   1.000  C
  C30      1.0000 0.05460  0.82950  0.62590  Biso   1.000  C
  C31      1.0000 0.55460  0.67050  0.12590  Biso   1.000  C
  C32      1.0000 0.94540  0.17050  0.37410  Biso   1.000  C
  H21      1.0000 0.39860  0.30810  0.81640  Biso   1.000  H
  H22      1.0000 0.10140  0.80810  0.68360  Biso   1.000  H
  H23      1.0000 0.60140  0.69190  0.18360  Biso   1.000  H
  H24      1.0000 0.89860  0.19190  0.31640  Biso   1.000  H
  H25      1.0000 0.37940  0.37480  0.90340  Biso   1.000  H
  H26      1.0000 0.12060  0.87480  0.59660  Biso   1.000  H
  H27      1.0000 0.62060  0.62520  0.09660  Biso   1.000  H
  H28      1.0000 0.87940  0.12520  0.40340  Biso   1.000  H
  C33      1.0000 0.55870  0.41730  0.86200  Biso   1.000  C
  C34      1.0000 0.94130  0.91730  0.63800  Biso   1.000  C
  C35      1.0000 0.44130  0.58270  0.13800  Biso   1.000  C
  C36      1.0000 0.05870  0.08270  0.36200  Biso   1.000  C
  C37      1.0000 0.56790  0.54200  0.88870  Biso   1.000  C
  C38      1.0000 0.93210  0.04200  0.61130  Biso   1.000  C
  C39      1.0000 0.43210  0.45800  0.11130  Biso   1.000  C
  C40      1.0000 0.06790  0.95800  0.38870  Biso   1.000  C
  H29      1.0000 0.50680  0.58070  0.92120  Biso   1.000  H
  H30      1.0000 0.99320  0.08070  0.57880  Biso   1.000  H
  H31      1.0000 0.49320  0.41930  0.07880  Biso   1.000  H
  H32      1.0000 0.00680  0.91930  0.42120  Biso   1.000  H
  C41      1.0000 0.68260  0.60160  0.85970  Biso   1.000  C
  C42      1.0000 0.81740  0.10160  0.64030  Biso   1.000  C
  C43      1.0000 0.31740  0.39840  0.14030  Biso   1.000  C
  C44      1.0000 0.18260  0.89840  0.35970  Biso   1.000  C
  H33      1.0000 0.70590  0.68450  0.87150  Biso   1.000  H
  H34      1.0000 0.79410  0.18450  0.62850  Biso   1.000  H
  H35      1.0000 0.29410  0.31550  0.12850  Biso   1.000  H
  H36      1.0000 0.20590  0.81550  0.37150  Biso   1.000  H
  C45      1.0000 0.75390  0.52600  0.81350  Biso   1.000  C
  C46      1.0000 0.74610  0.02600  0.68650  Biso   1.000  C
  C47      1.0000 0.24610  0.47400  0.18650  Biso   1.000  C
  C48      1.0000 0.25390  0.97400  0.31350  Biso   1.000  C
  H37      1.0000 0.82960  0.55180  0.78780  Biso   1.000  H
  H38      1.0000 0.67040  0.05180  0.71220  Biso   1.000  H
  H39      1.0000 0.17040  0.44820  0.21220  Biso   1.000  H
  H40      1.0000 0.32960  0.94820  0.28780  Biso   1.000  H
  N1       1.0000 0.86630  0.00420  0.00020  Biso   1.000  N
  N2       1.0000 0.63370  0.50420  0.49980  Biso   1.000  N
  N3       1.0000 0.13370  0.99580  0.99980  Biso   1.000  N
  N4       1.0000 0.36630  0.49580  0.50020  Biso   1.000  N
  C49      1.0000 0.90400  0.99320  0.91240  Biso   1.000  C
  C50      1.0000 0.59600  0.49320  0.58760  Biso   1.000  C
  C51      1.0000 0.09600  0.00680  0.08760  Biso   1.000  C
  C52      1.0000 0.40400  0.50680  0.41240  Biso   1.000  C
  C53      1.0000 0.93870  0.11540  0.04130  Biso   1.000  C
  C54      1.0000 0.56130  0.61540  0.45870  Biso   1.000  C
  C55      1.0000 0.06130  0.88460  0.95870  Biso   1.000  C
  C56      1.0000 0.43870  0.38460  0.54130  Biso   1.000  C
  C57      1.0000 0.92830  0.90090  0.04980  Biso   1.000  C
  C58      1.0000 0.57170  0.40090  0.45020  Biso   1.000  C
  C59      1.0000 0.07170  0.09910  0.95020  Biso   1.000  C
  C60      1.0000 0.42830  0.59910  0.54980  Biso   1.000  C
  C61      1.0000 0.91340  0.10920  0.95250  Biso   1.000  C
  C62      1.0000 0.58660  0.60920  0.54750  Biso   1.000  C
  C63      1.0000 0.08660  0.89080  0.04750  Biso   1.000  C
  C64      1.0000 0.41340  0.39080  0.45250  Biso   1.000  C
  C65      1.0000 0.94040  0.00320  0.08920  Biso   1.000  C
  C66      1.0000 0.55960  0.50320  0.41080  Biso   1.000  C
  C67      1.0000 0.05960  0.99680  0.91080  Biso   1.000  C
  C68      1.0000 0.44040  0.49680  0.58920  Biso   1.000  C
  C69      1.0000 0.90780  0.89080  0.95870  Biso   1.000  C
  C70      1.0000 0.59220  0.39080  0.54130  Biso   1.000  C
  C71      1.0000 0.09220  0.10920  0.04130  Biso   1.000  C
  C72      1.0000 0.40780  0.60920  0.45870  Biso   1.000  C
  H41      1.0000 0.86040  0.06050  0.87640  Biso   1.000  H
  H42      1.0000 0.63960  0.56050  0.62360  Biso   1.000  H
  H43      1.0000 0.13960  0.93950  0.12360  Biso   1.000  H
  H44      1.0000 0.36040  0.43950  0.37640  Biso   1.000  H
  H45      1.0000 0.86720  0.91530  0.88670  Biso   1.000  H
  H46      1.0000 0.63280  0.41530  0.61330  Biso   1.000  H
  H47      1.0000 0.13280  0.08470  0.11330  Biso   1.000  H
  H48      1.0000 0.36720  0.58470  0.38670  Biso   1.000  H
  H49      1.0000 0.91810  0.12270  0.10000  Biso   1.000  H
  H50      1.0000 0.58190  0.62270  0.40000  Biso   1.000  H
  H51      1.0000 0.08190  0.87730  0.90000  Biso   1.000  H
  H52      1.0000 0.41810  0.37730  0.60000  Biso   1.000  H
  H53      1.0000 0.90120  0.18870  0.00860  Biso   1.000  H
  H54      1.0000 0.59880  0.68870  0.49140  Biso   1.000  H
  H55      1.0000 0.09880  0.81130  0.99140  Biso   1.000  H
  H56      1.0000 0.40120  0.31130  0.50860  Biso   1.000  H
  H57      1.0000 0.88550  0.82280  0.02690  Biso   1.000  H
  H58      1.0000 0.61450  0.32280  0.47310  Biso   1.000  H
  H59      1.0000 0.11450  0.17720  0.97310  Biso   1.000  H
  H60      1.0000 0.38550  0.67720  0.52690  Biso   1.000  H
  H61      1.0000 0.91360  0.90710  0.11040  Biso   1.000  H
  H62      1.0000 0.58640  0.40710  0.38960  Biso   1.000  H
  H63      1.0000 0.08640  0.09290  0.88960  Biso   1.000  H
  H64      1.0000 0.41360  0.59290  0.61040  Biso   1.000  H
  H65      1.0000 0.89330  0.18750  0.98070  Biso   1.000  H
  H66      1.0000 0.60670  0.68750  0.51930  Biso   1.000  H
  H67      1.0000 0.10670  0.81250  0.01930  Biso   1.000  H
  H68      1.0000 0.39330  0.31250  0.48070  Biso   1.000  H
  H69      1.0000 0.86480  0.11150  0.89320  Biso   1.000  H
  H70      1.0000 0.63520  0.61150  0.60680  Biso   1.000  H
  H71      1.0000 0.13520  0.88850  0.10680  Biso   1.000  H
  H72      1.0000 0.36480  0.38850  0.39320  Biso   1.000  H
  H73      1.0000 0.91660  0.92800  0.11870  Biso   1.000  H
  H74      1.0000 0.58340  0.42800  0.38130  Biso   1.000  H
  H75      1.0000 0.08340  0.07200  0.88130  Biso   1.000  H
  H76      1.0000 0.41660  0.57200  0.61870  Biso   1.000  H
  H77      1.0000 0.91280  0.07430  0.12100  Biso   1.000  H
  H78      1.0000 0.58720  0.57430  0.37900  Biso   1.000  H
  H79      1.0000 0.08720  0.92570  0.87900  Biso   1.000  H
  H80      1.0000 0.41280  0.42570  0.62100  Biso   1.000  H
  H81      1.0000 0.86170  0.88640  0.89920  Biso   1.000  H
  H82      1.0000 0.63830  0.38640  0.60080  Biso   1.000  H
  H83      1.0000 0.13830  0.11360  0.10080  Biso   1.000  H
  H84      1.0000 0.36170  0.61360  0.39920  Biso   1.000  H
  H85      1.0000 0.87830  0.81860  0.99000  Biso   1.000  H
  H86      1.0000 0.62170  0.31860  0.51000  Biso   1.000  H
  H87      1.0000 0.12170  0.18140  0.01000  Biso   1.000  H
  H88      1.0000 0.37830  0.68140  0.49000  Biso   1.000  H
