data_image0
_cell_length_a       8.091
_cell_length_b       12.5845
_cell_length_c       17.1893
_cell_angle_alpha    90
_cell_angle_beta     90
_cell_angle_gamma    90

_symmetry_space_group_name_H-M    "P 1"
_symmetry_int_tables_number       1

loop_
  _symmetry_equiv_pos_as_xyz
  'x, y, z'

loop_
  _atom_site_label
  _atom_site_occupancy
  _atom_site_fract_x
  _atom_site_fract_y
  _atom_site_fract_z
  _atom_site_thermal_displace_type
  _atom_site_B_iso_or_equiv
  _atom_site_type_symbol
  Cu1      1.0000 0.50000  0.50000  0.50000  Biso   1.000  Cu
  Cu2      1.0000 0.00000  0.50000  0.00000  Biso   1.000  Cu
  Cu3      1.0000 0.50000  0.00000  0.00000  Biso   1.000  Cu
  Cu4      1.0000 0.00000  0.00000  0.50000  Biso   1.000  Cu
  O1       1.0000 0.70120  0.46478  0.56547  Biso   1.000  O
  O2       1.0000 0.79880  0.53522  0.06547  Biso   1.000  O
  O3       1.0000 0.29880  0.96478  0.93453  Biso   1.000  O
  O4       1.0000 0.20120  0.03522  0.43453  Biso   1.000  O
  O5       1.0000 0.29880  0.53522  0.43453  Biso   1.000  O
  O6       1.0000 0.20120  0.46478  0.93453  Biso   1.000  O
  O7       1.0000 0.70120  0.03522  0.06547  Biso   1.000  O
  O8       1.0000 0.79880  0.96478  0.56547  Biso   1.000  O
  O9       1.0000 0.27900  0.47470  0.58223  Biso   1.000  O
  O10      1.0000 0.22100  0.52530  0.08223  Biso   1.000  O
  O11      1.0000 0.72100  0.97470  0.91777  Biso   1.000  O
  O12      1.0000 0.77900  0.02530  0.41777  Biso   1.000  O
  O13      1.0000 0.72100  0.52530  0.41777  Biso   1.000  O
  O14      1.0000 0.77900  0.47470  0.91777  Biso   1.000  O
  O15      1.0000 0.27900  0.02530  0.08223  Biso   1.000  O
  O16      1.0000 0.22100  0.97470  0.58223  Biso   1.000  O
  C1       1.0000 0.98890  0.46390  0.58005  Biso   1.000  C
  C2       1.0000 0.51110  0.53610  0.08005  Biso   1.000  C
  C3       1.0000 0.01110  0.96390  0.91995  Biso   1.000  C
  C4       1.0000 0.48890  0.03610  0.41995  Biso   1.000  C
  C5       1.0000 0.01110  0.53610  0.41995  Biso   1.000  C
  C6       1.0000 0.48890  0.46390  0.91995  Biso   1.000  C
  C7       1.0000 0.98890  0.03610  0.08005  Biso   1.000  C
  C8       1.0000 0.51110  0.96390  0.58005  Biso   1.000  C
  C9       1.0000 0.84230  0.47923  0.53835  Biso   1.000  C
  C10      1.0000 0.65770  0.52077  0.03835  Biso   1.000  C
  C11      1.0000 0.15770  0.97923  0.96165  Biso   1.000  C
  C12      1.0000 0.34230  0.02077  0.46165  Biso   1.000  C
  C13      1.0000 0.15770  0.52077  0.46165  Biso   1.000  C
  C14      1.0000 0.34230  0.47923  0.96165  Biso   1.000  C
  C15      1.0000 0.84230  0.02077  0.03835  Biso   1.000  C
  C16      1.0000 0.65770  0.97923  0.53835  Biso   1.000  C
  C17      1.0000 0.14680  0.48417  0.54750  Biso   1.000  C
  C18      1.0000 0.35320  0.51583  0.04750  Biso   1.000  C
  C19      1.0000 0.85320  0.98417  0.95250  Biso   1.000  C
  C20      1.0000 0.64680  0.01583  0.45250  Biso   1.000  C
  C21      1.0000 0.85320  0.51583  0.45250  Biso   1.000  C
  C22      1.0000 0.64680  0.48417  0.95250  Biso   1.000  C
  C23      1.0000 0.14680  0.01583  0.04750  Biso   1.000  C
  C24      1.0000 0.35320  0.98417  0.54750  Biso   1.000  C
  C25      1.0000 0.07280  0.51080  0.73651  Biso   1.000  C
  C26      1.0000 0.42720  0.48920  0.23651  Biso   1.000  C
  C27      1.0000 0.92720  0.01080  0.76349  Biso   1.000  C
  C28      1.0000 0.57280  0.98920  0.26349  Biso   1.000  C
  C29      1.0000 0.92720  0.48920  0.26349  Biso   1.000  C
  C30      1.0000 0.57280  0.51080  0.76349  Biso   1.000  C
  C31      1.0000 0.07280  0.98920  0.23651  Biso   1.000  C
  C32      1.0000 0.42720  0.01080  0.73651  Biso   1.000  C
  H1       1.0000 0.18570  0.52170  0.71750  Biso   1.000  H
  H2       1.0000 0.31430  0.47830  0.21750  Biso   1.000  H
  H3       1.0000 0.81430  0.02170  0.78250  Biso   1.000  H
  H4       1.0000 0.68570  0.97830  0.28250  Biso   1.000  H
  H5       1.0000 0.81430  0.47830  0.28250  Biso   1.000  H
  H6       1.0000 0.68570  0.52170  0.78250  Biso   1.000  H
  H7       1.0000 0.18570  0.97830  0.21750  Biso   1.000  H
  H8       1.0000 0.31430  0.02170  0.71750  Biso   1.000  H
  H9       1.0000 0.07640  0.48400  0.79000  Biso   1.000  H
  H10      1.0000 0.42360  0.51600  0.29000  Biso   1.000  H
  H11      1.0000 0.92360  0.98400  0.71000  Biso   1.000  H
  H12      1.0000 0.57640  0.01600  0.21000  Biso   1.000  H
  H13      1.0000 0.92360  0.51600  0.21000  Biso   1.000  H
  H14      1.0000 0.57640  0.48400  0.71000  Biso   1.000  H
  H15      1.0000 0.07640  0.01600  0.29000  Biso   1.000  H
  H16      1.0000 0.42360  0.98400  0.79000  Biso   1.000  H
  H17      1.0000 0.01270  0.57840  0.73530  Biso   1.000  H
  H18      1.0000 0.48730  0.42160  0.23530  Biso   1.000  H
  H19      1.0000 0.98730  0.07840  0.76470  Biso   1.000  H
  H20      1.0000 0.51270  0.92160  0.26470  Biso   1.000  H
  H21      1.0000 0.98730  0.42160  0.26470  Biso   1.000  H
  H22      1.0000 0.51270  0.57840  0.76470  Biso   1.000  H
  H23      1.0000 0.01270  0.92160  0.23530  Biso   1.000  H
  H24      1.0000 0.48730  0.07840  0.73530  Biso   1.000  H
  O17      1.0000 0.48850  0.35317  0.46602  Biso   1.000  O
  O18      1.0000 0.01150  0.64683  0.96602  Biso   1.000  O
  O19      1.0000 0.51150  0.85317  0.03398  Biso   1.000  O
  O20      1.0000 0.98850  0.14683  0.53398  Biso   1.000  O
  O21      1.0000 0.51150  0.64683  0.53398  Biso   1.000  O
  O22      1.0000 0.98850  0.35317  0.03398  Biso   1.000  O
  O23      1.0000 0.48850  0.14683  0.96602  Biso   1.000  O
  O24      1.0000 0.01150  0.85317  0.46602  Biso   1.000  O
  H25      1.0000 0.53200  0.31700  0.49800  Biso   1.000  H
  H26      1.0000 0.96800  0.68300  0.99800  Biso   1.000  H
  H27      1.0000 0.46800  0.81700  0.00200  Biso   1.000  H
  H28      1.0000 0.03200  0.18300  0.50200  Biso   1.000  H
  H29      1.0000 0.46800  0.68300  0.50200  Biso   1.000  H
  H30      1.0000 0.03200  0.31700  0.00200  Biso   1.000  H
  H31      1.0000 0.53200  0.18300  0.99800  Biso   1.000  H
  H32      1.0000 0.96800  0.81700  0.49800  Biso   1.000  H
  H33      1.0000 0.40000  0.33700  0.46700  Biso   1.000  H
  H34      1.0000 0.10000  0.66300  0.96700  Biso   1.000  H
  H35      1.0000 0.60000  0.83700  0.03300  Biso   1.000  H
  H36      1.0000 0.90000  0.16300  0.53300  Biso   1.000  H
  H37      1.0000 0.60000  0.66300  0.53300  Biso   1.000  H
  H38      1.0000 0.90000  0.33700  0.03300  Biso   1.000  H
  H39      1.0000 0.40000  0.16300  0.96700  Biso   1.000  H
  H40      1.0000 0.10000  0.83700  0.46700  Biso   1.000  H
  C33      1.0000 0.10510  0.30330  0.67979  Biso   1.000  C
  C34      1.0000 0.39490  0.69670  0.17979  Biso   1.000  C
  C35      1.0000 0.89490  0.80330  0.82021  Biso   1.000  C
  C36      1.0000 0.60510  0.19670  0.32021  Biso   1.000  C
  C37      1.0000 0.89490  0.69670  0.32021  Biso   1.000  C
  C38      1.0000 0.60510  0.30330  0.82021  Biso   1.000  C
  C39      1.0000 0.10510  0.19670  0.17979  Biso   1.000  C
  C40      1.0000 0.39490  0.80330  0.67979  Biso   1.000  C
  H41      1.0000 0.06180  0.24640  0.64660  Biso   1.000  H
  H42      1.0000 0.43820  0.75360  0.14660  Biso   1.000  H
  H43      1.0000 0.93820  0.74640  0.85340  Biso   1.000  H
  H44      1.0000 0.56180  0.25360  0.35340  Biso   1.000  H
  H45      1.0000 0.93820  0.75360  0.35340  Biso   1.000  H
  H46      1.0000 0.56180  0.24640  0.85340  Biso   1.000  H
  H47      1.0000 0.06180  0.25360  0.14660  Biso   1.000  H
  H48      1.0000 0.43820  0.74640  0.64660  Biso   1.000  H
  H49      1.0000 0.11240  0.27800  0.73360  Biso   1.000  H
  H50      1.0000 0.38760  0.72200  0.23360  Biso   1.000  H
  H51      1.0000 0.88760  0.77800  0.76640  Biso   1.000  H
  H52      1.0000 0.61240  0.22200  0.26640  Biso   1.000  H
  H53      1.0000 0.88760  0.72200  0.26640  Biso   1.000  H
  H54      1.0000 0.61240  0.27800  0.76640  Biso   1.000  H
  H55      1.0000 0.11240  0.22200  0.23360  Biso   1.000  H
  H56      1.0000 0.38760  0.77800  0.73360  Biso   1.000  H
  H57      1.0000 0.21520  0.32400  0.66160  Biso   1.000  H
  H58      1.0000 0.28480  0.67600  0.16160  Biso   1.000  H
  H59      1.0000 0.78480  0.82400  0.83840  Biso   1.000  H
  H60      1.0000 0.71520  0.17600  0.33840  Biso   1.000  H
  H61      1.0000 0.78480  0.67600  0.33840  Biso   1.000  H
  H62      1.0000 0.71520  0.32400  0.83840  Biso   1.000  H
  H63      1.0000 0.21520  0.17600  0.16160  Biso   1.000  H
  H64      1.0000 0.28480  0.82400  0.66160  Biso   1.000  H
  S1       1.0000 0.96930  0.41585  0.67540  Biso   1.000  S
  S2       1.0000 0.53070  0.58415  0.17540  Biso   1.000  S
  S3       1.0000 0.03070  0.91585  0.82460  Biso   1.000  S
  S4       1.0000 0.46930  0.08415  0.32460  Biso   1.000  S
  S5       1.0000 0.03070  0.58415  0.32460  Biso   1.000  S
  S6       1.0000 0.46930  0.41585  0.82460  Biso   1.000  S
  S7       1.0000 0.96930  0.08415  0.17540  Biso   1.000  S
  S8       1.0000 0.53070  0.91585  0.67540  Biso   1.000  S
  N1       1.0000 0.12900  0.28774  0.38261  Biso   1.000  N
  N2       1.0000 0.37100  0.71226  0.88261  Biso   1.000  N
  N3       1.0000 0.87100  0.78774  0.11739  Biso   1.000  N
  N4       1.0000 0.62900  0.21226  0.61739  Biso   1.000  N
  N5       1.0000 0.87100  0.71226  0.61739  Biso   1.000  N
  N6       1.0000 0.62900  0.28774  0.11739  Biso   1.000  N
  N7       1.0000 0.12900  0.21226  0.88261  Biso   1.000  N
  N8       1.0000 0.37100  0.78774  0.38261  Biso   1.000  N
  O25      1.0000 0.17590  0.28311  0.45393  Biso   1.000  O
  O26      1.0000 0.32410  0.71689  0.95393  Biso   1.000  O
  O27      1.0000 0.82410  0.78311  0.04607  Biso   1.000  O
  O28      1.0000 0.67590  0.21689  0.54607  Biso   1.000  O
  O29      1.0000 0.82410  0.71689  0.54607  Biso   1.000  O
  O30      1.0000 0.67590  0.28311  0.04607  Biso   1.000  O
  O31      1.0000 0.17590  0.21689  0.95393  Biso   1.000  O
  O32      1.0000 0.32410  0.78311  0.45393  Biso   1.000  O
  O33      1.0000 0.22490  0.32565  0.33338  Biso   1.000  O
  O34      1.0000 0.27510  0.67435  0.83338  Biso   1.000  O
  O35      1.0000 0.77510  0.82565  0.16662  Biso   1.000  O
  O36      1.0000 0.72490  0.17435  0.66662  Biso   1.000  O
  O37      1.0000 0.77510  0.67435  0.66662  Biso   1.000  O
  O38      1.0000 0.72490  0.32565  0.16662  Biso   1.000  O
  O39      1.0000 0.22490  0.17435  0.83338  Biso   1.000  O
  O40      1.0000 0.27510  0.82565  0.33338  Biso   1.000  O
  O41      1.0000 0.98960  0.25500  0.36517  Biso   1.000  O
  O42      1.0000 0.51040  0.74500  0.86517  Biso   1.000  O
  O43      1.0000 0.01040  0.75500  0.13483  Biso   1.000  O
  O44      1.0000 0.48960  0.24500  0.63483  Biso   1.000  O
  O45      1.0000 0.01040  0.74500  0.63483  Biso   1.000  O
  O46      1.0000 0.48960  0.25500  0.13483  Biso   1.000  O
  O47      1.0000 0.98960  0.24500  0.86517  Biso   1.000  O
  O48      1.0000 0.51040  0.75500  0.36517  Biso   1.000  O
