data_image0
_cell_length_a       8.863
_cell_length_b       9.421
_cell_length_c       12.165
_cell_angle_alpha    91.4
_cell_angle_beta     107.13
_cell_angle_gamma    95.91

_symmetry_space_group_name_H-M    "P 1"
_symmetry_int_tables_number       1

loop_
  _symmetry_equiv_pos_as_xyz
  'x, y, z'

loop_
  _atom_site_label
  _atom_site_occupancy
  _atom_site_fract_x
  _atom_site_fract_y
  _atom_site_fract_z
  _atom_site_thermal_displace_type
  _atom_site_B_iso_or_equiv
  _atom_site_type_symbol
  Cu1      1.0000 0.48799  0.75412  0.75795  Biso   1.000  Cu
  Cu2      1.0000 0.51201  0.24588  0.24205  Biso   1.000  Cu
  O1       1.0000 0.60910  0.03778  0.31915  Biso   1.000  O
  O2       1.0000 0.39090  0.96222  0.68085  Biso   1.000  O
  O3       1.0000 0.34496  0.66235  0.60872  Biso   1.000  O
  O4       1.0000 0.65504  0.33765  0.39128  Biso   1.000  O
  O5       1.0000 0.87520  0.83300  0.56752  Biso   1.000  O
  O6       1.0000 0.12480  0.16700  0.43248  Biso   1.000  O
  O7       1.0000 0.22742  0.76663  0.37169  Biso   1.000  O
  O8       1.0000 0.77258  0.23337  0.62831  Biso   1.000  O
  O9       1.0000 0.40641  0.45655  0.27110  Biso   1.000  O
  O10      1.0000 0.59359  0.54345  0.72890  Biso   1.000  O
  O11      1.0000 0.63406  0.83223  0.67122  Biso   1.000  O
  O12      1.0000 0.36594  0.16777  0.32878  Biso   1.000  O
  O13      1.0000 0.11000  0.55460  0.28792  Biso   1.000  O
  O14      1.0000 0.89000  0.44540  0.71208  Biso   1.000  O
  N1       1.0000 0.61520  0.85640  0.90690  Biso   1.000  N
  N2       1.0000 0.38480  0.14360  0.09310  Biso   1.000  N
  N3       1.0000 0.37660  0.65710  0.86058  Biso   1.000  N
  N4       1.0000 0.62340  0.34290  0.13942  Biso   1.000  N
  C1       1.0000 0.57660  0.90730  0.58596  Biso   1.000  C
  C2       1.0000 0.42340  0.09270  0.41404  Biso   1.000  C
  C3       1.0000 0.62900  0.91770  0.48955  Biso   1.000  C
  C4       1.0000 0.37100  0.08230  0.51045  Biso   1.000  C
  C5       1.0000 0.56170  0.01310  0.40374  Biso   1.000  C
  C6       1.0000 0.43830  0.98690  0.59626  Biso   1.000  C
  C7       1.0000 0.75260  0.83210  0.47146  Biso   1.000  C
  C8       1.0000 0.24740  0.16790  0.52854  Biso   1.000  C
  C9       1.0000 0.00220  0.75040  0.56130  Biso   1.000  C
  C10      1.0000 0.99780  0.24960  0.43870  Biso   1.000  C
  H1       1.0000 0.95750  0.66170  0.51790  Biso   1.000  H
  H2       1.0000 0.04250  0.33830  0.48210  Biso   1.000  H
  H3       1.0000 0.06330  0.73140  0.63780  Biso   1.000  H
  H4       1.0000 0.93670  0.26860  0.36220  Biso   1.000  H
  H5       1.0000 0.06980  0.80360  0.52430  Biso   1.000  H
  H6       1.0000 0.93020  0.19640  0.47570  Biso   1.000  H
  C11      1.0000 0.41180  0.58880  0.55140  Biso   1.000  C
  C12      1.0000 0.58820  0.41120  0.44860  Biso   1.000  C
  C13      1.0000 0.36080  0.56520  0.43269  Biso   1.000  C
  C14      1.0000 0.63920  0.43480  0.56731  Biso   1.000  C
  C15      1.0000 0.44260  0.47850  0.37692  Biso   1.000  C
  C16      1.0000 0.55740  0.52150  0.62308  Biso   1.000  C
  C17      1.0000 0.22010  0.62440  0.35759  Biso   1.000  C
  C18      1.0000 0.77990  0.37560  0.64241  Biso   1.000  C
  C19      1.0000 0.09360  0.82830  0.29720  Biso   1.000  C
  C20      1.0000 0.90640  0.17170  0.70280  Biso   1.000  C
  H7       1.0000 0.08930  0.81020  0.21820  Biso   1.000  H
  H8       1.0000 0.91070  0.18980  0.78180  Biso   1.000  H
  H9       1.0000 0.10600  0.92950  0.31450  Biso   1.000  H
  H10      1.0000 0.89400  0.07050  0.68550  Biso   1.000  H
  H11      1.0000 0.99700  0.78600  0.30940  Biso   1.000  H
  H12      1.0000 0.00300  0.21400  0.69060  Biso   1.000  H
  C21      1.0000 0.73140  0.96350  0.91960  Biso   1.000  C
  C22      1.0000 0.26860  0.03650  0.08040  Biso   1.000  C
  H13      1.0000 0.76000  0.99200  0.85510  Biso   1.000  H
  H14      1.0000 0.24000  0.00800  0.14490  Biso   1.000  H
  C23      1.0000 0.81100  0.03390  0.02590  Biso   1.000  C
  C24      1.0000 0.18900  0.96610  0.97410  Biso   1.000  C
  H15      1.0000 0.89070  0.10890  0.03270  Biso   1.000  H
  H16      1.0000 0.10930  0.89110  0.96730  Biso   1.000  H
  C25      1.0000 0.76840  0.98900  0.12140  Biso   1.000  C
  C26      1.0000 0.23160  0.01100  0.87860  Biso   1.000  C
  H17      1.0000 0.82010  0.03380  0.19360  Biso   1.000  H
  H18      1.0000 0.17990  0.96620  0.80640  Biso   1.000  H
  C27      1.0000 0.64870  0.87760  0.10919  Biso   1.000  C
  C28      1.0000 0.35130  0.12240  0.89081  Biso   1.000  C
  H19      1.0000 0.61980  0.84600  0.17280  Biso   1.000  H
  H20      1.0000 0.38020  0.15400  0.82720  Biso   1.000  H
  C29      1.0000 0.57260  0.81390  0.99965  Biso   1.000  C
  C30      1.0000 0.42740  0.18610  0.00035  Biso   1.000  C
  C31      1.0000 0.44090  0.69690  0.97426  Biso   1.000  C
  C32      1.0000 0.55910  0.30310  0.02574  Biso   1.000  C
  C33      1.0000 0.38580  0.62940  0.05725  Biso   1.000  C
  C34      1.0000 0.61420  0.37060  0.94275  Biso   1.000  C
  H21      1.0000 0.43060  0.65780  0.13480  Biso   1.000  H
  H22      1.0000 0.56940  0.34220  0.86520  Biso   1.000  H
  C35      1.0000 0.26240  0.51880  0.02300  Biso   1.000  C
  C36      1.0000 0.73760  0.48120  0.97700  Biso   1.000  C
  H23      1.0000 0.22350  0.47230  0.07730  Biso   1.000  H
  H24      1.0000 0.77650  0.52770  0.92270  Biso   1.000  H
  C37      1.0000 0.19820  0.47860  0.90700  Biso   1.000  C
  C38      1.0000 0.80180  0.52140  0.09300  Biso   1.000  C
  H25      1.0000 0.11590  0.40450  0.88240  Biso   1.000  H
  H26      1.0000 0.88410  0.59550  0.11760  Biso   1.000  H
  C39      1.0000 0.25850  0.55050  0.82760  Biso   1.000  C
  C40      1.0000 0.74150  0.44950  0.17240  Biso   1.000  C
  H27      1.0000 0.21530  0.52370  0.74960  Biso   1.000  H
  H28      1.0000 0.78470  0.47630  0.25040  Biso   1.000  H
  O15      1.0000 0.74460  0.77000  0.38168  Biso   1.000  O
  O16      1.0000 0.25540  0.23000  0.61832  Biso   1.000  O
  O17      1.0000 0.07410  0.26730  0.18413  Biso   1.000  O
  O18      1.0000 0.92590  0.73270  0.81587  Biso   1.000  O
  H29      1.0000 0.08600  0.34800  0.20800  Biso   1.000  H
  H30      1.0000 0.91400  0.65200  0.79200  Biso   1.000  H
  H31      1.0000 0.14500  0.23500  0.23600  Biso   1.000  H
  H32      1.0000 0.85500  0.76500  0.76400  Biso   1.000  H
