data_image0
_cell_length_a       10.1315
_cell_length_b       11.856
_cell_length_c       19.097
_cell_angle_alpha    90
_cell_angle_beta     109.464
_cell_angle_gamma    90

_symmetry_space_group_name_H-M    "P 1"
_symmetry_int_tables_number       1

loop_
  _symmetry_equiv_pos_as_xyz
  'x, y, z'

loop_
  _atom_site_label
  _atom_site_occupancy
  _atom_site_fract_x
  _atom_site_fract_y
  _atom_site_fract_z
  _atom_site_thermal_displace_type
  _atom_site_B_iso_or_equiv
  _atom_site_type_symbol
  Cu1      1.0000 0.58964  0.57115  0.40259  Biso   1.000  Cu
  Cu2      1.0000 0.41036  0.07115  0.09741  Biso   1.000  Cu
  Cu3      1.0000 0.41036  0.42885  0.59741  Biso   1.000  Cu
  Cu4      1.0000 0.58964  0.92885  0.90259  Biso   1.000  Cu
  Cu5      1.0000 0.88676  0.61944  0.54290  Biso   1.000  Cu
  Cu6      1.0000 0.11324  0.11944  0.95710  Biso   1.000  Cu
  Cu7      1.0000 0.11324  0.38056  0.45710  Biso   1.000  Cu
  Cu8      1.0000 0.88676  0.88056  0.04290  Biso   1.000  Cu
  Cu9      1.0000 0.74057  0.35962  0.52415  Biso   1.000  Cu
  Cu10     1.0000 0.25943  0.85962  0.97585  Biso   1.000  Cu
  Cu11     1.0000 0.25943  0.64038  0.47585  Biso   1.000  Cu
  Cu12     1.0000 0.74057  0.14038  0.02415  Biso   1.000  Cu
  O1       1.0000 0.76060  0.50590  0.47730  Biso   1.000  O
  O2       1.0000 0.23940  0.00590  0.02270  Biso   1.000  O
  O3       1.0000 0.23940  0.49410  0.52270  Biso   1.000  O
  O4       1.0000 0.76060  0.99410  0.97730  Biso   1.000  O
  O5       1.0000 0.42670  0.63310  0.32290  Biso   1.000  O
  O6       1.0000 0.57330  0.13310  0.17710  Biso   1.000  O
  O7       1.0000 0.57330  0.36690  0.67710  Biso   1.000  O
  O8       1.0000 0.42670  0.86690  0.82290  Biso   1.000  O
  O9       1.0000 0.52680  0.54940  0.24950  Biso   1.000  O
  O10      1.0000 0.47320  0.04940  0.25050  Biso   1.000  O
  O11      1.0000 0.47320  0.45060  0.75050  Biso   1.000  O
  O12      1.0000 0.52680  0.95060  0.74950  Biso   1.000  O
  O13      1.0000 0.99440  0.76800  0.11400  Biso   1.000  O
  O14      1.0000 0.00560  0.26800  0.38600  Biso   1.000  O
  O15      1.0000 0.00560  0.23200  0.88600  Biso   1.000  O
  O16      1.0000 0.99440  0.73200  0.61400  Biso   1.000  O
  O17      1.0000 0.17190  0.79460  0.06790  Biso   1.000  O
  O18      1.0000 0.82810  0.29460  0.43210  Biso   1.000  O
  O19      1.0000 0.82810  0.20540  0.93210  Biso   1.000  O
  O20      1.0000 0.17190  0.70540  0.56790  Biso   1.000  O
  N1       1.0000 0.68610  0.71290  0.40870  Biso   1.000  N
  N2       1.0000 0.31390  0.21290  0.09130  Biso   1.000  N
  N3       1.0000 0.31390  0.28710  0.59130  Biso   1.000  N
  N4       1.0000 0.68610  0.78710  0.90870  Biso   1.000  N
  N5       1.0000 0.80560  0.73190  0.46950  Biso   1.000  N
  N6       1.0000 0.19440  0.23190  0.03050  Biso   1.000  N
  N7       1.0000 0.19440  0.26810  0.53050  Biso   1.000  N
  N8       1.0000 0.80560  0.76810  0.96950  Biso   1.000  N
  N9       1.0000 0.97340  0.49600  0.60940  Biso   1.000  N
  N10      1.0000 0.02660  0.99600  0.89060  Biso   1.000  N
  N11      1.0000 0.02660  0.50400  0.39060  Biso   1.000  N
  N12      1.0000 0.97340  0.00400  0.10940  Biso   1.000  N
  N13      1.0000 0.92340  0.39060  0.59900  Biso   1.000  N
  N14      1.0000 0.07660  0.89060  0.90100  Biso   1.000  N
  N15      1.0000 0.07660  0.60940  0.40100  Biso   1.000  N
  N16      1.0000 0.92340  0.10940  0.09900  Biso   1.000  N
  N17      1.0000 0.54160  0.35280  0.45940  Biso   1.000  N
  N18      1.0000 0.45840  0.85280  0.04060  Biso   1.000  N
  N19      1.0000 0.45840  0.64720  0.54060  Biso   1.000  N
  N20      1.0000 0.54160  0.14720  0.95940  Biso   1.000  N
  N21      1.0000 0.48840  0.43500  0.40810  Biso   1.000  N
  N22      1.0000 0.51160  0.93500  0.09190  Biso   1.000  N
  N23      1.0000 0.51160  0.56500  0.59190  Biso   1.000  N
  N24      1.0000 0.48840  0.06500  0.90810  Biso   1.000  N
  N25      1.0000 0.72790  0.20790  0.56580  Biso   1.000  N
  N26      1.0000 0.27210  0.70790  0.93420  Biso   1.000  N
  N27      1.0000 0.27210  0.79210  0.43420  Biso   1.000  N
  N28      1.0000 0.72790  0.29210  0.06580  Biso   1.000  N
  N29      1.0000 0.68540  0.18400  0.62350  Biso   1.000  N
  N30      1.0000 0.31460  0.68400  0.87650  Biso   1.000  N
  N31      1.0000 0.31460  0.81600  0.37650  Biso   1.000  N
  N32      1.0000 0.68540  0.31600  0.12350  Biso   1.000  N
  H1       1.0000 0.66240  0.23470  0.64950  Biso   1.000  H
  H2       1.0000 0.33760  0.73470  0.85050  Biso   1.000  H
  H3       1.0000 0.33760  0.76530  0.35050  Biso   1.000  H
  H4       1.0000 0.66240  0.26530  0.14950  Biso   1.000  H
  C1       1.0000 0.65880  0.80660  0.36890  Biso   1.000  C
  C2       1.0000 0.34120  0.30660  0.13110  Biso   1.000  C
  C3       1.0000 0.34120  0.19340  0.63110  Biso   1.000  C
  C4       1.0000 0.65880  0.69340  0.86890  Biso   1.000  C
  H5       1.0000 0.58410  0.81640  0.32500  Biso   1.000  H
  H6       1.0000 0.41590  0.31640  0.17500  Biso   1.000  H
  H7       1.0000 0.41590  0.18360  0.67500  Biso   1.000  H
  H8       1.0000 0.58410  0.68360  0.82500  Biso   1.000  H
  C5       1.0000 0.75650  0.88680  0.40170  Biso   1.000  C
  C6       1.0000 0.24350  0.38680  0.09830  Biso   1.000  C
  C7       1.0000 0.24350  0.11320  0.59830  Biso   1.000  C
  C8       1.0000 0.75650  0.61320  0.90170  Biso   1.000  C
  H9       1.0000 0.76000  0.96060  0.38590  Biso   1.000  H
  H10      1.0000 0.24000  0.46060  0.11410  Biso   1.000  H
  H11      1.0000 0.24000  0.03940  0.61410  Biso   1.000  H
  H12      1.0000 0.76000  0.53940  0.88590  Biso   1.000  H
  C9       1.0000 0.84570  0.83700  0.46140  Biso   1.000  C
  C10      1.0000 0.15430  0.33700  0.03860  Biso   1.000  C
  C11      1.0000 0.15430  0.16300  0.53860  Biso   1.000  C
  C12      1.0000 0.84570  0.66300  0.96140  Biso   1.000  C
  H13      1.0000 0.92590  0.87110  0.49340  Biso   1.000  H
  H14      1.0000 0.07410  0.37110  0.00660  Biso   1.000  H
  H15      1.0000 0.07410  0.12890  0.50660  Biso   1.000  H
  H16      1.0000 0.92590  0.62890  0.99340  Biso   1.000  H
  C13      1.0000 0.09720  0.48960  0.66620  Biso   1.000  C
  C14      1.0000 0.90280  0.98960  0.83380  Biso   1.000  C
  C15      1.0000 0.90280  0.51040  0.33380  Biso   1.000  C
  C16      1.0000 0.09720  0.01040  0.16620  Biso   1.000  C
  H17      1.0000 0.15620  0.55030  0.68560  Biso   1.000  H
  H18      1.0000 0.84380  0.05030  0.81440  Biso   1.000  H
  H19      1.0000 0.84380  0.44970  0.31440  Biso   1.000  H
  H20      1.0000 0.15620  0.94970  0.18560  Biso   1.000  H
  C17      1.0000 0.12210  0.38140  0.69070  Biso   1.000  C
  C18      1.0000 0.87790  0.88140  0.80930  Biso   1.000  C
  C19      1.0000 0.87790  0.61860  0.30930  Biso   1.000  C
  C20      1.0000 0.12210  0.11860  0.19070  Biso   1.000  C
  H21      1.0000 0.20030  0.35420  0.72810  Biso   1.000  H
  H22      1.0000 0.79970  0.85420  0.77190  Biso   1.000  H
  H23      1.0000 0.79970  0.64580  0.27190  Biso   1.000  H
  H24      1.0000 0.20030  0.14580  0.22810  Biso   1.000  H
  C21      1.0000 0.00930  0.32130  0.64920  Biso   1.000  C
  C22      1.0000 0.99070  0.82130  0.85080  Biso   1.000  C
  C23      1.0000 0.99070  0.67870  0.35080  Biso   1.000  C
  C24      1.0000 0.00930  0.17870  0.14920  Biso   1.000  C
  H25      1.0000 0.99410  0.24490  0.65470  Biso   1.000  H
  H26      1.0000 0.00590  0.74490  0.84530  Biso   1.000  H
  H27      1.0000 0.00590  0.75510  0.34530  Biso   1.000  H
  H28      1.0000 0.99410  0.25510  0.15470  Biso   1.000  H
  C25      1.0000 0.45150  0.26970  0.44820  Biso   1.000  C
  C26      1.0000 0.54850  0.76970  0.05180  Biso   1.000  C
  C27      1.0000 0.54850  0.73030  0.55180  Biso   1.000  C
  C28      1.0000 0.45150  0.23030  0.94820  Biso   1.000  C
  H29      1.0000 0.46460  0.20280  0.47510  Biso   1.000  H
  H30      1.0000 0.53540  0.70280  0.02490  Biso   1.000  H
  H31      1.0000 0.53540  0.79720  0.52490  Biso   1.000  H
  H32      1.0000 0.46460  0.29720  0.97510  Biso   1.000  H
  C29      1.0000 0.33130  0.29930  0.38810  Biso   1.000  C
  C30      1.0000 0.66870  0.79930  0.11190  Biso   1.000  C
  C31      1.0000 0.66870  0.70070  0.61190  Biso   1.000  C
  C32      1.0000 0.33130  0.20070  0.88810  Biso   1.000  C
  H33      1.0000 0.25090  0.25640  0.36690  Biso   1.000  H
  H34      1.0000 0.74910  0.75640  0.13310  Biso   1.000  H
  H35      1.0000 0.74910  0.74360  0.63310  Biso   1.000  H
  H36      1.0000 0.25090  0.24360  0.86690  Biso   1.000  H
  C33      1.0000 0.35890  0.40390  0.36810  Biso   1.000  C
  C34      1.0000 0.64110  0.90390  0.13190  Biso   1.000  C
  C35      1.0000 0.64110  0.59610  0.63190  Biso   1.000  C
  C36      1.0000 0.35890  0.09610  0.86810  Biso   1.000  C
  H37      1.0000 0.29630  0.44780  0.33160  Biso   1.000  H
  H38      1.0000 0.70370  0.94780  0.16840  Biso   1.000  H
  H39      1.0000 0.70370  0.55220  0.66840  Biso   1.000  H
  H40      1.0000 0.29630  0.05220  0.83160  Biso   1.000  H
  C37      1.0000 0.75450  0.10940  0.54320  Biso   1.000  C
  C38      1.0000 0.24550  0.60940  0.95680  Biso   1.000  C
  C39      1.0000 0.24550  0.89060  0.45680  Biso   1.000  C
  C40      1.0000 0.75450  0.39060  0.04320  Biso   1.000  C
  H41      1.0000 0.78730  0.09890  0.50360  Biso   1.000  H
  H42      1.0000 0.21270  0.59890  0.99640  Biso   1.000  H
  H43      1.0000 0.21270  0.90110  0.49640  Biso   1.000  H
  H44      1.0000 0.78730  0.40110  0.00360  Biso   1.000  H
  C41      1.0000 0.72920  0.02500  0.58350  Biso   1.000  C
  C42      1.0000 0.27080  0.52500  0.91650  Biso   1.000  C
  C43      1.0000 0.27080  0.97500  0.41650  Biso   1.000  C
  C44      1.0000 0.72920  0.47500  0.08350  Biso   1.000  C
  H45      1.0000 0.74140  0.94830  0.57740  Biso   1.000  H
  H46      1.0000 0.25860  0.44830  0.92260  Biso   1.000  H
  H47      1.0000 0.25860  0.05170  0.42260  Biso   1.000  H
  H48      1.0000 0.74140  0.55170  0.07740  Biso   1.000  H
  C45      1.0000 0.68090  0.07480  0.63650  Biso   1.000  C
  C46      1.0000 0.31910  0.57480  0.86350  Biso   1.000  C
  C47      1.0000 0.31910  0.92520  0.36350  Biso   1.000  C
  C48      1.0000 0.68090  0.42520  0.13650  Biso   1.000  C
  H49      1.0000 0.65210  0.03950  0.67250  Biso   1.000  H
  H50      1.0000 0.34790  0.53950  0.82750  Biso   1.000  H
  H51      1.0000 0.34790  0.96050  0.32750  Biso   1.000  H
  H52      1.0000 0.65210  0.46050  0.17250  Biso   1.000  H
  C49      1.0000 0.44060  0.61190  0.25910  Biso   1.000  C
  C50      1.0000 0.55940  0.11190  0.24090  Biso   1.000  C
  C51      1.0000 0.55940  0.38810  0.74090  Biso   1.000  C
  C52      1.0000 0.44060  0.88810  0.75910  Biso   1.000  C
  C53      1.0000 0.34360  0.67680  0.19280  Biso   1.000  C
  C54      1.0000 0.65640  0.17680  0.30720  Biso   1.000  C
  C55      1.0000 0.65640  0.32320  0.80720  Biso   1.000  C
  C56      1.0000 0.34360  0.82320  0.69280  Biso   1.000  C
  H53      1.0000 0.38230  0.71710  0.16260  Biso   1.000  H
  H54      1.0000 0.61770  0.21710  0.33740  Biso   1.000  H
  H55      1.0000 0.61770  0.28290  0.83740  Biso   1.000  H
  H56      1.0000 0.38230  0.78290  0.66260  Biso   1.000  H
  C57      1.0000 0.20620  0.67740  0.17690  Biso   1.000  C
  C58      1.0000 0.79380  0.17740  0.32310  Biso   1.000  C
  C59      1.0000 0.79380  0.32260  0.82310  Biso   1.000  C
  C60      1.0000 0.20620  0.82260  0.67690  Biso   1.000  C
  C61      1.0000 0.12370  0.75540  0.11210  Biso   1.000  C
  C62      1.0000 0.87630  0.25540  0.38790  Biso   1.000  C
  C63      1.0000 0.87630  0.24460  0.88790  Biso   1.000  C
  C64      1.0000 0.12370  0.74460  0.61210  Biso   1.000  C
  C65      1.0000 0.12150  0.60380  0.21310  Biso   1.000  C
  C66      1.0000 0.87850  0.10380  0.28690  Biso   1.000  C
  C67      1.0000 0.87850  0.39620  0.78690  Biso   1.000  C
  C68      1.0000 0.12150  0.89620  0.71310  Biso   1.000  C
  H57      1.0000 0.02950  0.63510  0.20260  Biso   1.000  H
  H58      1.0000 0.97050  0.13510  0.29740  Biso   1.000  H
  H59      1.0000 0.97050  0.36490  0.79740  Biso   1.000  H
  H60      1.0000 0.02950  0.86490  0.70260  Biso   1.000  H
  H61      1.0000 0.16810  0.60170  0.26590  Biso   1.000  H
  H62      1.0000 0.83190  0.10170  0.23410  Biso   1.000  H
  H63      1.0000 0.83190  0.39830  0.73410  Biso   1.000  H
  H64      1.0000 0.16810  0.89830  0.76590  Biso   1.000  H
  H65      1.0000 0.11410  0.52860  0.19350  Biso   1.000  H
  H66      1.0000 0.88590  0.02860  0.30650  Biso   1.000  H
  H67      1.0000 0.88590  0.47140  0.80650  Biso   1.000  H
  H68      1.0000 0.11410  0.97140  0.69350  Biso   1.000  H
  H69      1.0000 0.80060  0.48870  0.45340  Biso   1.000  H
  H70      1.0000 0.19940  0.98870  0.04660  Biso   1.000  H
  H71      1.0000 0.19940  0.51130  0.54660  Biso   1.000  H
  H72      1.0000 0.80060  0.01130  0.95340  Biso   1.000  H
