data_image0
_cell_length_a       10.1122
_cell_length_b       11.7268
_cell_length_c       18.1481
_cell_angle_alpha    90
_cell_angle_beta     107.034
_cell_angle_gamma    90

_symmetry_space_group_name_H-M    "P 1"
_symmetry_int_tables_number       1

loop_
  _symmetry_equiv_pos_as_xyz
  'x, y, z'

loop_
  _atom_site_label
  _atom_site_occupancy
  _atom_site_fract_x
  _atom_site_fract_y
  _atom_site_fract_z
  _atom_site_thermal_displace_type
  _atom_site_B_iso_or_equiv
  _atom_site_type_symbol
  Cu1      1.0000 0.59723  0.58167  0.40117  Biso   1.000  Cu
  Cu2      1.0000 0.40277  0.08167  0.09883  Biso   1.000  Cu
  Cu3      1.0000 0.40277  0.41833  0.59883  Biso   1.000  Cu
  Cu4      1.0000 0.59723  0.91833  0.90117  Biso   1.000  Cu
  Cu5      1.0000 0.73111  0.36100  0.52304  Biso   1.000  Cu
  Cu6      1.0000 0.26889  0.86100  0.97696  Biso   1.000  Cu
  Cu7      1.0000 0.26889  0.63900  0.47696  Biso   1.000  Cu
  Cu8      1.0000 0.73111  0.13900  0.02304  Biso   1.000  Cu
  Cu9      1.0000 0.88340  0.62270  0.54750  Biso   1.000  Cu
  Cu10     1.0000 0.11660  0.12270  0.95250  Biso   1.000  Cu
  Cu11     1.0000 0.11660  0.37730  0.45250  Biso   1.000  Cu
  Cu12     1.0000 0.88340  0.87730  0.04750  Biso   1.000  Cu
  O1       1.0000 0.75830  0.51200  0.47695  Biso   1.000  O
  O2       1.0000 0.24170  0.01200  0.02305  Biso   1.000  O
  O3       1.0000 0.24170  0.48800  0.52305  Biso   1.000  O
  O4       1.0000 0.75830  0.98800  0.97695  Biso   1.000  O
  O5       1.0000 0.43860  0.65040  0.32366  Biso   1.000  O
  O6       1.0000 0.56140  0.15040  0.17634  Biso   1.000  O
  O7       1.0000 0.56140  0.34960  0.67634  Biso   1.000  O
  O8       1.0000 0.43860  0.84960  0.82366  Biso   1.000  O
  O9       1.0000 0.54090  0.57100  0.24420  Biso   1.000  O
  O10      1.0000 0.45910  0.07100  0.25580  Biso   1.000  O
  O11      1.0000 0.45910  0.42900  0.75580  Biso   1.000  O
  O12      1.0000 0.54090  0.92900  0.74420  Biso   1.000  O
  O13      1.0000 0.99240  0.76730  0.12329  Biso   1.000  O
  O14      1.0000 0.00760  0.26730  0.37671  Biso   1.000  O
  O15      1.0000 0.00760  0.23270  0.87671  Biso   1.000  O
  O16      1.0000 0.99240  0.73270  0.62329  Biso   1.000  O
  O17      1.0000 0.15610  0.80640  0.06839  Biso   1.000  O
  O18      1.0000 0.84390  0.30640  0.43161  Biso   1.000  O
  O19      1.0000 0.84390  0.19360  0.93161  Biso   1.000  O
  O20      1.0000 0.15610  0.69360  0.56839  Biso   1.000  O
  N1       1.0000 0.48990  0.44530  0.40440  Biso   1.000  N
  N2       1.0000 0.51010  0.94530  0.09560  Biso   1.000  N
  N3       1.0000 0.51010  0.55470  0.59560  Biso   1.000  N
  N4       1.0000 0.48990  0.05470  0.90440  Biso   1.000  N
  N5       1.0000 0.54090  0.35880  0.45520  Biso   1.000  N
  N6       1.0000 0.45910  0.85880  0.04480  Biso   1.000  N
  N7       1.0000 0.45910  0.64120  0.54480  Biso   1.000  N
  N8       1.0000 0.54090  0.14120  0.95520  Biso   1.000  N
  N9       1.0000 0.89820  0.39080  0.60600  Biso   1.000  N
  N10      1.0000 0.10180  0.89080  0.89400  Biso   1.000  N
  N11      1.0000 0.10180  0.60920  0.39400  Biso   1.000  N
  N12      1.0000 0.89820  0.10920  0.10600  Biso   1.000  N
  N13      1.0000 0.95680  0.49690  0.61700  Biso   1.000  N
  N14      1.0000 0.04320  0.99690  0.88300  Biso   1.000  N
  N15      1.0000 0.04320  0.50310  0.38300  Biso   1.000  N
  N16      1.0000 0.95680  0.00310  0.11700  Biso   1.000  N
  N17      1.0000 0.81910  0.73760  0.46790  Biso   1.000  N
  N18      1.0000 0.18090  0.23760  0.03210  Biso   1.000  N
  N19      1.0000 0.18090  0.26240  0.53210  Biso   1.000  N
  N20      1.0000 0.81910  0.76240  0.96790  Biso   1.000  N
  N21      1.0000 0.70380  0.72080  0.40800  Biso   1.000  N
  N22      1.0000 0.29620  0.22080  0.09200  Biso   1.000  N
  N23      1.0000 0.29620  0.27920  0.59200  Biso   1.000  N
  N24      1.0000 0.70380  0.77920  0.90800  Biso   1.000  N
  N25      1.0000 0.71630  0.20050  0.55790  Biso   1.000  N
  N26      1.0000 0.28370  0.70050  0.94210  Biso   1.000  N
  N27      1.0000 0.28370  0.79950  0.44210  Biso   1.000  N
  N28      1.0000 0.71630  0.29950  0.05790  Biso   1.000  N
  N29      1.0000 0.66580  0.16890  0.61590  Biso   1.000  N
  N30      1.0000 0.33420  0.66890  0.88410  Biso   1.000  N
  N31      1.0000 0.33420  0.83110  0.38410  Biso   1.000  N
  N32      1.0000 0.66580  0.33110  0.11590  Biso   1.000  N
  H1       1.0000 0.63510  0.21570  0.64350  Biso   1.000  H
  H2       1.0000 0.36490  0.71570  0.85650  Biso   1.000  H
  H3       1.0000 0.36490  0.78430  0.35650  Biso   1.000  H
  H4       1.0000 0.63510  0.28430  0.14350  Biso   1.000  H
  C1       1.0000 0.36620  0.41470  0.36160  Biso   1.000  C
  C2       1.0000 0.63380  0.91470  0.13840  Biso   1.000  C
  C3       1.0000 0.63380  0.58530  0.63840  Biso   1.000  C
  C4       1.0000 0.36620  0.08530  0.86160  Biso   1.000  C
  H5       1.0000 0.30940  0.45880  0.32240  Biso   1.000  H
  H6       1.0000 0.69060  0.95880  0.17760  Biso   1.000  H
  H7       1.0000 0.69060  0.54120  0.67760  Biso   1.000  H
  H8       1.0000 0.30940  0.04120  0.82240  Biso   1.000  H
  C5       1.0000 0.33220  0.30830  0.38260  Biso   1.000  C
  C6       1.0000 0.66780  0.80830  0.11740  Biso   1.000  C
  C7       1.0000 0.66780  0.69170  0.61740  Biso   1.000  C
  C8       1.0000 0.33220  0.19170  0.88260  Biso   1.000  C
  H9       1.0000 0.25120  0.26730  0.36170  Biso   1.000  H
  H10      1.0000 0.74880  0.76730  0.13830  Biso   1.000  H
  H11      1.0000 0.74880  0.73270  0.63830  Biso   1.000  H
  H12      1.0000 0.25120  0.23270  0.86170  Biso   1.000  H
  C9       1.0000 0.44600  0.27680  0.44190  Biso   1.000  C
  C10      1.0000 0.55400  0.77680  0.05810  Biso   1.000  C
  C11      1.0000 0.55400  0.72320  0.55810  Biso   1.000  C
  C12      1.0000 0.44600  0.22320  0.94190  Biso   1.000  C
  H13      1.0000 0.45520  0.20830  0.46860  Biso   1.000  H
  H14      1.0000 0.54480  0.70830  0.03140  Biso   1.000  H
  H15      1.0000 0.54480  0.79170  0.53140  Biso   1.000  H
  H16      1.0000 0.45520  0.29170  0.96860  Biso   1.000  H
  C13      1.0000 0.97420  0.32240  0.66100  Biso   1.000  C
  C14      1.0000 0.02580  0.82240  0.83900  Biso   1.000  C
  C15      1.0000 0.02580  0.67760  0.33900  Biso   1.000  C
  C16      1.0000 0.97420  0.17760  0.16100  Biso   1.000  C
  H17      1.0000 0.95740  0.24510  0.66580  Biso   1.000  H
  H18      1.0000 0.04260  0.74510  0.83420  Biso   1.000  H
  H19      1.0000 0.04260  0.75490  0.33420  Biso   1.000  H
  H20      1.0000 0.95740  0.25490  0.16580  Biso   1.000  H
  C17      1.0000 0.08000  0.38250  0.70910  Biso   1.000  C
  C18      1.0000 0.92000  0.88250  0.79090  Biso   1.000  C
  C19      1.0000 0.92000  0.61750  0.29090  Biso   1.000  C
  C20      1.0000 0.08000  0.11750  0.20910  Biso   1.000  C
  H21      1.0000 0.14750  0.35580  0.75230  Biso   1.000  H
  H22      1.0000 0.85250  0.85580  0.74770  Biso   1.000  H
  H23      1.0000 0.85250  0.64420  0.24770  Biso   1.000  H
  H24      1.0000 0.14750  0.14420  0.25230  Biso   1.000  H
  C21      1.0000 0.06500  0.49060  0.67990  Biso   1.000  C
  C22      1.0000 0.93500  0.99060  0.82010  Biso   1.000  C
  C23      1.0000 0.93500  0.50940  0.32010  Biso   1.000  C
  C24      1.0000 0.06500  0.00940  0.17990  Biso   1.000  C
  H25      1.0000 0.12250  0.55150  0.70110  Biso   1.000  H
  H26      1.0000 0.87750  0.05150  0.79890  Biso   1.000  H
  H27      1.0000 0.87750  0.44850  0.29890  Biso   1.000  H
  H28      1.0000 0.12250  0.94850  0.20110  Biso   1.000  H
  C25      1.0000 0.87470  0.83700  0.45730  Biso   1.000  C
  C26      1.0000 0.12530  0.33700  0.04270  Biso   1.000  C
  C27      1.0000 0.12530  0.16300  0.54270  Biso   1.000  C
  C28      1.0000 0.87470  0.66300  0.95730  Biso   1.000  C
  H29      1.0000 0.95550  0.86780  0.48990  Biso   1.000  H
  H30      1.0000 0.04450  0.36780  0.01010  Biso   1.000  H
  H31      1.0000 0.04450  0.13220  0.51010  Biso   1.000  H
  H32      1.0000 0.95550  0.63220  0.98990  Biso   1.000  H
  C29      1.0000 0.79510  0.88670  0.39110  Biso   1.000  C
  C30      1.0000 0.20490  0.38670  0.10890  Biso   1.000  C
  C31      1.0000 0.20490  0.11330  0.60890  Biso   1.000  C
  C32      1.0000 0.79510  0.61330  0.89110  Biso   1.000  C
  H33      1.0000 0.80950  0.95650  0.37040  Biso   1.000  H
  H34      1.0000 0.19050  0.45650  0.12960  Biso   1.000  H
  H35      1.0000 0.19050  0.04350  0.62960  Biso   1.000  H
  H36      1.0000 0.80950  0.54350  0.87040  Biso   1.000  H
  C33      1.0000 0.68910  0.81080  0.36190  Biso   1.000  C
  C34      1.0000 0.31090  0.31080  0.13810  Biso   1.000  C
  C35      1.0000 0.31090  0.18920  0.63810  Biso   1.000  C
  C36      1.0000 0.68910  0.68920  0.86190  Biso   1.000  C
  H37      1.0000 0.61760  0.82090  0.31650  Biso   1.000  H
  H38      1.0000 0.38240  0.32090  0.18350  Biso   1.000  H
  H39      1.0000 0.38240  0.17910  0.68350  Biso   1.000  H
  H40      1.0000 0.61760  0.67910  0.81650  Biso   1.000  H
  C37      1.0000 0.74990  0.10410  0.53080  Biso   1.000  C
  C38      1.0000 0.25010  0.60410  0.96920  Biso   1.000  C
  C39      1.0000 0.25010  0.89590  0.46920  Biso   1.000  C
  C40      1.0000 0.74990  0.39590  0.03080  Biso   1.000  C
  H41      1.0000 0.78710  0.09920  0.48970  Biso   1.000  H
  H42      1.0000 0.21290  0.59920  0.01030  Biso   1.000  H
  H43      1.0000 0.21290  0.90080  0.51030  Biso   1.000  H
  H44      1.0000 0.78710  0.40080  0.98970  Biso   1.000  H
  C41      1.0000 0.72310  0.01200  0.57080  Biso   1.000  C
  C42      1.0000 0.27690  0.51200  0.92920  Biso   1.000  C
  C43      1.0000 0.27690  0.98800  0.42920  Biso   1.000  C
  C44      1.0000 0.72310  0.48800  0.07080  Biso   1.000  C
  H45      1.0000 0.73840  0.93550  0.56250  Biso   1.000  H
  H46      1.0000 0.26160  0.43550  0.93750  Biso   1.000  H
  H47      1.0000 0.26160  0.06450  0.43750  Biso   1.000  H
  H48      1.0000 0.73840  0.56450  0.06250  Biso   1.000  H
  C45      1.0000 0.66950  0.05660  0.62500  Biso   1.000  C
  C46      1.0000 0.33050  0.55660  0.87500  Biso   1.000  C
  C47      1.0000 0.33050  0.94340  0.37500  Biso   1.000  C
  C48      1.0000 0.66950  0.44340  0.12500  Biso   1.000  C
  H49      1.0000 0.64080  0.01600  0.66160  Biso   1.000  H
  H50      1.0000 0.35920  0.51600  0.83840  Biso   1.000  H
  H51      1.0000 0.35920  0.98400  0.33840  Biso   1.000  H
  H52      1.0000 0.64080  0.48400  0.16160  Biso   1.000  H
  C49      1.0000 0.45050  0.63030  0.25580  Biso   1.000  C
  C50      1.0000 0.54950  0.13030  0.24420  Biso   1.000  C
  C51      1.0000 0.54950  0.36970  0.74420  Biso   1.000  C
  C52      1.0000 0.45050  0.86970  0.75580  Biso   1.000  C
  C53      1.0000 0.34730  0.68790  0.19060  Biso   1.000  C
  C54      1.0000 0.65270  0.18790  0.30940  Biso   1.000  C
  C55      1.0000 0.65270  0.31210  0.80940  Biso   1.000  C
  C56      1.0000 0.34730  0.81210  0.69060  Biso   1.000  C
  H53      1.0000 0.37830  0.71610  0.15070  Biso   1.000  H
  H54      1.0000 0.62170  0.21610  0.34930  Biso   1.000  H
  H55      1.0000 0.62170  0.28390  0.84930  Biso   1.000  H
  H56      1.0000 0.37830  0.78390  0.65070  Biso   1.000  H
  C57      1.0000 0.21650  0.70190  0.18520  Biso   1.000  C
  C58      1.0000 0.78350  0.20190  0.31480  Biso   1.000  C
  C59      1.0000 0.78350  0.29810  0.81480  Biso   1.000  C
  C60      1.0000 0.21650  0.79810  0.68520  Biso   1.000  C
  H57      1.0000 0.18470  0.67270  0.22450  Biso   1.000  H
  H58      1.0000 0.81530  0.17270  0.27550  Biso   1.000  H
  H59      1.0000 0.81530  0.32730  0.77550  Biso   1.000  H
  H60      1.0000 0.18470  0.82730  0.72450  Biso   1.000  H
  C61      1.0000 0.11480  0.76160  0.12020  Biso   1.000  C
  C62      1.0000 0.88520  0.26160  0.37980  Biso   1.000  C
  C63      1.0000 0.88520  0.23840  0.87980  Biso   1.000  C
  C64      1.0000 0.11480  0.73840  0.62020  Biso   1.000  C
  H61      1.0000 0.80060  0.49420  0.45440  Biso   1.000  H
  H62      1.0000 0.19940  0.99420  0.04560  Biso   1.000  H
  H63      1.0000 0.19940  0.50580  0.54560  Biso   1.000  H
  H64      1.0000 0.80060  0.00580  0.95440  Biso   1.000  H
