data_image0
_cell_length_a       8.3901
_cell_length_b       9.3943
_cell_length_c       11.4284
_cell_angle_alpha    108.329
_cell_angle_beta     99.316
_cell_angle_gamma    112.138

_symmetry_space_group_name_H-M    "P 1"
_symmetry_int_tables_number       1

loop_
  _symmetry_equiv_pos_as_xyz
  'x, y, z'

loop_
  _atom_site_label
  _atom_site_occupancy
  _atom_site_fract_x
  _atom_site_fract_y
  _atom_site_fract_z
  _atom_site_thermal_displace_type
  _atom_site_B_iso_or_equiv
  _atom_site_type_symbol
  Cu1      1.0000 0.46305  0.59232  0.23890  Biso   1.000  Cu
  Cu2      1.0000 0.53695  0.40768  0.76110  Biso   1.000  Cu
  O1       1.0000 0.47600  0.81490  0.28540  Biso   1.000  O
  O2       1.0000 0.52400  0.18510  0.71460  Biso   1.000  O
  O3       1.0000 0.43250  0.36330  0.16640  Biso   1.000  O
  O4       1.0000 0.56750  0.63670  0.83360  Biso   1.000  O
  O5       1.0000 0.56900  0.37010  0.35310  Biso   1.000  O
  O6       1.0000 0.43100  0.62990  0.64690  Biso   1.000  O
  O7       1.0000 0.34140  0.74480  0.07650  Biso   1.000  O
  O8       1.0000 0.65860  0.25520  0.92350  Biso   1.000  O
  N1       1.0000 0.69100  0.67250  0.19540  Biso   1.000  N
  N2       1.0000 0.30900  0.32750  0.80460  Biso   1.000  N
  N3       1.0000 0.73750  0.57530  0.10790  Biso   1.000  N
  N4       1.0000 0.26250  0.42470  0.89210  Biso   1.000  N
  H1       1.0000 0.67200  0.46860  0.06340  Biso   1.000  H
  H2       1.0000 0.32800  0.53140  0.93660  Biso   1.000  H
  N5       1.0000 0.22790  0.51030  0.27300  Biso   1.000  N
  N6       1.0000 0.77210  0.48970  0.72700  Biso   1.000  N
  N7       1.0000 0.16870  0.61320  0.34000  Biso   1.000  N
  N8       1.0000 0.83130  0.38680  0.66000  Biso   1.000  N
  H3       1.0000 0.22600  0.72140  0.37110  Biso   1.000  H
  H4       1.0000 0.77400  0.27860  0.62890  Biso   1.000  H
  C1       1.0000 0.46270  0.03070  0.23380  Biso   1.000  C
  C2       1.0000 0.53730  0.96930  0.76620  Biso   1.000  C
  H5       1.0000 0.53430  0.10020  0.32000  Biso   1.000  H
  H6       1.0000 0.46570  0.89980  0.68000  Biso   1.000  H
  C3       1.0000 0.95960  0.82680  0.18260  Biso   1.000  C
  C4       1.0000 0.04040  0.17320  0.81740  Biso   1.000  C
  H7       1.0000 0.06820  0.91870  0.19810  Biso   1.000  H
  H8       1.0000 0.93180  0.08130  0.80190  Biso   1.000  H
  C5       1.0000 0.96250  0.36140  0.29170  Biso   1.000  C
  C6       1.0000 0.03750  0.63860  0.70830  Biso   1.000  C
  H9       1.0000 0.85850  0.27050  0.28400  Biso   1.000  H
  H10      1.0000 0.14150  0.72950  0.71600  Biso   1.000  H
  C7       1.0000 0.89740  0.66480  0.09850  Biso   1.000  C
  C8       1.0000 0.10260  0.33520  0.90150  Biso   1.000  C
  H11      1.0000 0.95570  0.62360  0.04410  Biso   1.000  H
  H12      1.0000 0.04430  0.37640  0.95590  Biso   1.000  H
  C9       1.0000 0.82790  0.82660  0.24040  Biso   1.000  C
  C10      1.0000 0.17210  0.17340  0.75960  Biso   1.000  C
  H13      1.0000 0.83380  0.92180  0.30280  Biso   1.000  H
  H14      1.0000 0.16620  0.07820  0.69720  Biso   1.000  H
  C11      1.0000 0.47920  0.29560  0.23660  Biso   1.000  C
  C12      1.0000 0.52080  0.70440  0.76340  Biso   1.000  C
  C13      1.0000 0.29560  0.02220  0.02600  Biso   1.000  C
  C14      1.0000 0.70440  0.97780  0.97400  Biso   1.000  C
  H15      1.0000 0.28050  0.10520  0.99980  Biso   1.000  H
  H16      1.0000 0.71950  0.89480  0.00020  Biso   1.000  H
  H17      1.0000 0.17910  0.93800  0.01630  Biso   1.000  H
  H18      1.0000 0.82090  0.06200  0.98370  Biso   1.000  H
  H19      1.0000 0.35250  0.97020  0.97260  Biso   1.000  H
  H20      1.0000 0.64750  0.02980  0.02740  Biso   1.000  H
  C15      1.0000 0.41240  0.10540  0.16540  Biso   1.000  C
  C16      1.0000 0.58760  0.89460  0.83460  Biso   1.000  C
  C17      1.0000 0.00980  0.52740  0.35270  Biso   1.000  C
  C18      1.0000 0.99020  0.47260  0.64730  Biso   1.000  C
  H21      1.0000 0.94370  0.57300  0.39540  Biso   1.000  H
  H22      1.0000 0.05630  0.42700  0.60460  Biso   1.000  H
  C19      1.0000 0.41970  0.84940  0.19110  Biso   1.000  C
  C20      1.0000 0.58030  0.15060  0.80890  Biso   1.000  C
  C21      1.0000 0.10070  0.35590  0.24360  Biso   1.000  C
  C22      1.0000 0.89930  0.64410  0.75640  Biso   1.000  C
  H23      1.0000 0.10470  0.25730  0.19670  Biso   1.000  H
  H24      1.0000 0.89530  0.74270  0.80330  Biso   1.000  H
  O9       1.0000 0.63850  0.69790  0.47610  Biso   1.000  O
  O10      1.0000 0.36150  0.30210  0.52390  Biso   1.000  O
  H25      1.0000 0.65700  0.61200  0.45900  Biso   1.000  H
  H26      1.0000 0.34300  0.38800  0.54100  Biso   1.000  H
  H27      1.0000 0.57900  0.70100  0.53000  Biso   1.000  H
  H28      1.0000 0.42100  0.29900  0.47000  Biso   1.000  H
  O11      1.0000 0.73780  0.05000  0.52150  Biso   1.000  O
  O12      1.0000 0.26220  0.95000  0.47850  Biso   1.000  O
  H29      1.0000 0.78100  0.99200  0.54300  Biso   1.000  H
  H30      1.0000 0.21900  0.00800  0.45700  Biso   1.000  H
  H31      1.0000 0.64600  0.99100  0.45400  Biso   1.000  H
  H32      1.0000 0.35400  0.00900  0.54600  Biso   1.000  H
