data_image0
_cell_length_a       6.352
_cell_length_b       10.04
_cell_length_c       10.315
_cell_angle_alpha    94.958
_cell_angle_beta     95.556
_cell_angle_gamma    99.747

_symmetry_space_group_name_H-M    "P 1"
_symmetry_int_tables_number       1

loop_
  _symmetry_equiv_pos_as_xyz
  'x, y, z'

loop_
  _atom_site_label
  _atom_site_occupancy
  _atom_site_fract_x
  _atom_site_fract_y
  _atom_site_fract_z
  _atom_site_thermal_displace_type
  _atom_site_B_iso_or_equiv
  _atom_site_type_symbol
  Cu1      1.0000 0.00000  0.50000  0.00000  Biso   1.000  Cu
  Sm1      1.0000 0.42985  0.03826  0.25899  Biso   1.000  Sm
  Sm2      1.0000 0.57015  0.96174  0.74101  Biso   1.000  Sm
  N1       1.0000 0.89160  0.49670  0.81060  Biso   1.000  N
  N2       1.0000 0.10840  0.50330  0.18940  Biso   1.000  N
  O1       1.0000 0.63130  0.21940  0.41320  Biso   1.000  O
  O2       1.0000 0.36870  0.78060  0.58680  Biso   1.000  O
  O3       1.0000 0.67100  0.12490  0.60030  Biso   1.000  O
  O4       1.0000 0.32900  0.87510  0.39970  Biso   1.000  O
  O5       1.0000 0.78560  0.73580  0.44070  Biso   1.000  O
  O6       1.0000 0.21440  0.26420  0.55930  Biso   1.000  O
  O7       1.0000 0.82510  0.84490  0.63950  Biso   1.000  O
  O8       1.0000 0.17490  0.15510  0.36050  Biso   1.000  O
  O9       1.0000 0.76530  0.96280  0.33130  Biso   1.000  O
  O10      1.0000 0.23470  0.03720  0.66870  Biso   1.000  O
  H1       1.0000 0.88550  0.00080  0.36690  Biso   1.000  H
  H2       1.0000 0.11450  0.99920  0.63310  Biso   1.000  H
  H3       1.0000 0.74880  0.87950  0.33440  Biso   1.000  H
  H4       1.0000 0.25120  0.12050  0.66560  Biso   1.000  H
  O11      1.0000 0.06030  0.95090  0.14000  Biso   1.000  O
  O12      1.0000 0.93970  0.04910  0.86000  Biso   1.000  O
  H5       1.0000 0.05560  0.90890  0.06690  Biso   1.000  H
  H6       1.0000 0.94440  0.09110  0.93310  Biso   1.000  H
  H7       1.0000 0.94260  0.93540  0.16960  Biso   1.000  H
  H8       1.0000 0.05740  0.06460  0.83040  Biso   1.000  H
  O13      1.0000 0.43940  0.85570  0.09710  Biso   1.000  O
  O14      1.0000 0.56060  0.14430  0.90290  Biso   1.000  O
  O15      1.0000 0.61700  0.80540  0.90750  Biso   1.000  O
  O16      1.0000 0.38300  0.19460  0.09250  Biso   1.000  O
  O17      1.0000 0.30500  0.65050  0.95480  Biso   1.000  O
  O18      1.0000 0.69500  0.34950  0.04520  Biso   1.000  O
  O19      1.0000 0.28050  0.86870  0.87670  Biso   1.000  O
  O20      1.0000 0.71950  0.13130  0.12330  Biso   1.000  O
  O21      1.0000 0.15390  0.34640  0.94860  Biso   1.000  O
  O22      1.0000 0.84610  0.65360  0.05140  Biso   1.000  O
  H9       1.0000 0.21370  0.31560  0.01140  Biso   1.000  H
  H10      1.0000 0.78630  0.68440  0.98860  Biso   1.000  H
  H11      1.0000 0.22550  0.34460  0.88530  Biso   1.000  H
  H12      1.0000 0.77450  0.65540  0.11470  Biso   1.000  H
  S1       1.0000 0.40600  0.79291  0.96161  Biso   1.000  S
  S2       1.0000 0.59400  0.20709  0.03839  Biso   1.000  S
  C1       1.0000 0.75360  0.36600  0.60750  Biso   1.000  C
  C2       1.0000 0.24640  0.63400  0.39250  Biso   1.000  C
  C3       1.0000 0.75520  0.48210  0.54750  Biso   1.000  C
  C4       1.0000 0.24480  0.51790  0.45250  Biso   1.000  C
  H13      1.0000 0.71640  0.47740  0.45770  Biso   1.000  H
  H14      1.0000 0.28360  0.52260  0.54230  Biso   1.000  H
  C5       1.0000 0.81530  0.60740  0.62210  Biso   1.000  C
  C6       1.0000 0.18470  0.39260  0.37790  Biso   1.000  C
  C7       1.0000 0.88830  0.61000  0.75210  Biso   1.000  C
  C8       1.0000 0.11170  0.39000  0.24790  Biso   1.000  C
  H15      1.0000 0.93710  0.69360  0.80120  Biso   1.000  H
  H16      1.0000 0.06290  0.30640  0.19880  Biso   1.000  H
  C9       1.0000 0.82180  0.37760  0.74080  Biso   1.000  C
  C10      1.0000 0.17820  0.62240  0.25920  Biso   1.000  C
  H17      1.0000 0.81830  0.29880  0.78250  Biso   1.000  H
  H18      1.0000 0.18170  0.70120  0.21750  Biso   1.000  H
  C11      1.0000 0.68110  0.22670  0.53460  Biso   1.000  C
  C12      1.0000 0.31890  0.77330  0.46540  Biso   1.000  C
  C13      1.0000 0.80850  0.74030  0.56170  Biso   1.000  C
  C14      1.0000 0.19150  0.25970  0.43830  Biso   1.000  C
  O23      1.0000 0.37930  0.43610  0.78070  Biso   1.000  O
  O24      1.0000 0.62070  0.56390  0.21930  Biso   1.000  O
  H19      1.0000 0.35670  0.50300  0.82700  Biso   1.000  H
  H20      1.0000 0.64330  0.49700  0.17300  Biso   1.000  H
  H21      1.0000 0.31980  0.43260  0.70480  Biso   1.000  H
  H22      1.0000 0.68020  0.56740  0.29520  Biso   1.000  H
