data_image0
_cell_length_a       11.413
_cell_length_b       13.814
_cell_length_c       20.585
_cell_angle_alpha    90
_cell_angle_beta     96.394
_cell_angle_gamma    90

_symmetry_space_group_name_H-M    "P 1"
_symmetry_int_tables_number       1

loop_
  _symmetry_equiv_pos_as_xyz
  'x, y, z'

loop_
  _atom_site_label
  _atom_site_occupancy
  _atom_site_fract_x
  _atom_site_fract_y
  _atom_site_fract_z
  _atom_site_thermal_displace_type
  _atom_site_B_iso_or_equiv
  _atom_site_type_symbol
  Cu1      1.0000 0.90345  0.60362  0.69527  Biso   1.000  Cu
  Cu2      1.0000 0.59655  0.10362  0.80473  Biso   1.000  Cu
  Cu3      1.0000 0.09655  0.39638  0.30473  Biso   1.000  Cu
  Cu4      1.0000 0.40345  0.89638  0.19527  Biso   1.000  Cu
  S1       1.0000 0.37960  0.35630  0.60375  Biso   1.000  S
  S2       1.0000 0.12040  0.85630  0.89625  Biso   1.000  S
  S3       1.0000 0.62040  0.64370  0.39625  Biso   1.000  S
  S4       1.0000 0.87960  0.14370  0.10375  Biso   1.000  S
  S5       1.0000 0.42050  0.73390  0.61661  Biso   1.000  S
  S6       1.0000 0.07950  0.23390  0.88339  Biso   1.000  S
  S7       1.0000 0.57950  0.26610  0.38339  Biso   1.000  S
  S8       1.0000 0.92050  0.76610  0.11661  Biso   1.000  S
  S9       1.0000 0.63290  0.95020  0.52385  Biso   1.000  S
  S10      1.0000 0.86710  0.45020  0.97615  Biso   1.000  S
  S11      1.0000 0.36710  0.04980  0.47615  Biso   1.000  S
  S12      1.0000 0.13290  0.54980  0.02385  Biso   1.000  S
  O1       1.0000 0.02660  0.37420  0.54630  Biso   1.000  O
  O2       1.0000 0.47340  0.87420  0.95370  Biso   1.000  O
  O3       1.0000 0.97340  0.62580  0.45370  Biso   1.000  O
  O4       1.0000 0.52660  0.12580  0.04630  Biso   1.000  O
  H1       1.0000 0.00330  0.34220  0.51320  Biso   1.000  H
  H2       1.0000 0.49670  0.84220  0.98680  Biso   1.000  H
  H3       1.0000 0.99670  0.65780  0.48680  Biso   1.000  H
  H4       1.0000 0.50330  0.15780  0.01320  Biso   1.000  H
  H5       1.0000 0.10080  0.37260  0.55670  Biso   1.000  H
  H6       1.0000 0.39920  0.87260  0.94330  Biso   1.000  H
  H7       1.0000 0.89920  0.62740  0.44330  Biso   1.000  H
  H8       1.0000 0.60080  0.12740  0.05670  Biso   1.000  H
  O5       1.0000 0.29580  0.62660  0.89850  Biso   1.000  O
  O6       1.0000 0.20420  0.12660  0.60150  Biso   1.000  O
  O7       1.0000 0.70420  0.37340  0.10150  Biso   1.000  O
  O8       1.0000 0.79580  0.87340  0.39850  Biso   1.000  O
  H9       1.0000 0.22490  0.63190  0.90600  Biso   1.000  H
  H10      1.0000 0.27510  0.13190  0.59400  Biso   1.000  H
  H11      1.0000 0.77510  0.36810  0.09400  Biso   1.000  H
  H12      1.0000 0.72490  0.86810  0.40600  Biso   1.000  H
  H13      1.0000 0.32230  0.68320  0.89230  Biso   1.000  H
  H14      1.0000 0.17770  0.18320  0.60770  Biso   1.000  H
  H15      1.0000 0.67770  0.31680  0.10770  Biso   1.000  H
  H16      1.0000 0.82230  0.81680  0.39230  Biso   1.000  H
  O9       1.0000 0.66380  0.45230  0.53020  Biso   1.000  O
  O10      1.0000 0.83620  0.95230  0.96980  Biso   1.000  O
  O11      1.0000 0.33620  0.54770  0.46980  Biso   1.000  O
  O12      1.0000 0.16380  0.04770  0.03020  Biso   1.000  O
  H17      1.0000 0.61110  0.41350  0.53720  Biso   1.000  H
  H18      1.0000 0.88890  0.91350  0.96280  Biso   1.000  H
  H19      1.0000 0.38890  0.58650  0.46280  Biso   1.000  H
  H20      1.0000 0.11110  0.08650  0.03720  Biso   1.000  H
  H21      1.0000 0.63300  0.49770  0.50630  Biso   1.000  H
  H22      1.0000 0.86700  0.99770  0.99370  Biso   1.000  H
  H23      1.0000 0.36700  0.50230  0.49370  Biso   1.000  H
  H24      1.0000 0.13300  0.00230  0.00630  Biso   1.000  H
  O13      1.0000 0.87680  0.48950  0.60420  Biso   1.000  O
  O14      1.0000 0.62320  0.98950  0.89580  Biso   1.000  O
  O15      1.0000 0.12320  0.51050  0.39580  Biso   1.000  O
  O16      1.0000 0.37680  0.01050  0.10420  Biso   1.000  O
  H25      1.0000 0.80530  0.48210  0.59380  Biso   1.000  H
  H26      1.0000 0.69470  0.98210  0.90620  Biso   1.000  H
  H27      1.0000 0.19470  0.51790  0.40620  Biso   1.000  H
  H28      1.0000 0.30530  0.01790  0.09380  Biso   1.000  H
  H29      1.0000 0.92420  0.45410  0.58580  Biso   1.000  H
  H30      1.0000 0.57580  0.95410  0.91420  Biso   1.000  H
  H31      1.0000 0.07580  0.54590  0.41420  Biso   1.000  H
  H32      1.0000 0.42420  0.04590  0.08580  Biso   1.000  H
  O17      1.0000 0.90710  0.71190  0.78780  Biso   1.000  O
  O18      1.0000 0.59290  0.21190  0.71220  Biso   1.000  O
  O19      1.0000 0.09290  0.28810  0.21220  Biso   1.000  O
  O20      1.0000 0.40710  0.78810  0.28780  Biso   1.000  O
  H33      1.0000 0.84510  0.70720  0.80410  Biso   1.000  H
  H34      1.0000 0.65490  0.20720  0.69590  Biso   1.000  H
  H35      1.0000 0.15490  0.29280  0.19590  Biso   1.000  H
  H36      1.0000 0.34510  0.79280  0.30410  Biso   1.000  H
  H37      1.0000 0.95880  0.74060  0.81210  Biso   1.000  H
  H38      1.0000 0.54120  0.24060  0.68790  Biso   1.000  H
  H39      1.0000 0.04120  0.25940  0.18790  Biso   1.000  H
  H40      1.0000 0.45880  0.75940  0.31210  Biso   1.000  H
  O21      1.0000 0.69820  0.62820  0.79620  Biso   1.000  O
  O22      1.0000 0.80180  0.12820  0.70380  Biso   1.000  O
  O23      1.0000 0.30180  0.37180  0.20380  Biso   1.000  O
  O24      1.0000 0.19820  0.87180  0.29620  Biso   1.000  O
  O25      1.0000 0.74240  0.55940  0.70460  Biso   1.000  O
  O26      1.0000 0.75760  0.05940  0.79540  Biso   1.000  O
  O27      1.0000 0.25760  0.44060  0.29540  Biso   1.000  O
  O28      1.0000 0.24240  0.94060  0.20460  Biso   1.000  O
  O29      1.0000 0.50040  0.60060  0.83320  Biso   1.000  O
  O30      1.0000 0.99960  0.10060  0.66680  Biso   1.000  O
  O31      1.0000 0.49960  0.39940  0.16680  Biso   1.000  O
  O32      1.0000 0.00040  0.89940  0.33320  Biso   1.000  O
  H41      1.0000 0.44310  0.60330  0.85380  Biso   1.000  H
  H42      1.0000 0.05690  0.10330  0.64620  Biso   1.000  H
  H43      1.0000 0.55690  0.39670  0.14620  Biso   1.000  H
  H44      1.0000 0.94310  0.89670  0.35380  Biso   1.000  H
  O33      1.0000 0.26810  0.37110  0.57890  Biso   1.000  O
  O34      1.0000 0.23190  0.87110  0.92110  Biso   1.000  O
  O35      1.0000 0.73190  0.62890  0.42110  Biso   1.000  O
  O36      1.0000 0.76810  0.12890  0.07890  Biso   1.000  O
  O37      1.0000 0.41500  0.26830  0.61670  Biso   1.000  O
  O38      1.0000 0.08500  0.76830  0.88330  Biso   1.000  O
  O39      1.0000 0.58500  0.73170  0.38330  Biso   1.000  O
  O40      1.0000 0.91500  0.23170  0.11670  Biso   1.000  O
  O41      1.0000 0.44400  0.39100  0.55370  Biso   1.000  O
  O42      1.0000 0.05600  0.89100  0.94630  Biso   1.000  O
  O43      1.0000 0.55600  0.60900  0.44630  Biso   1.000  O
  O44      1.0000 0.94400  0.10900  0.05370  Biso   1.000  O
  N1       1.0000 0.83230  0.71300  0.63980  Biso   1.000  N
  N2       1.0000 0.66770  0.21300  0.86020  Biso   1.000  N
  N3       1.0000 0.16770  0.28700  0.36020  Biso   1.000  N
  N4       1.0000 0.33230  0.78700  0.13980  Biso   1.000  N
  N5       1.0000 0.87010  0.21620  0.52850  Biso   1.000  N
  N6       1.0000 0.62990  0.71620  0.97150  Biso   1.000  N
  N7       1.0000 0.12990  0.78380  0.47150  Biso   1.000  N
  N8       1.0000 0.37010  0.28380  0.02850  Biso   1.000  N
  N9       1.0000 0.06680  0.64180  0.67570  Biso   1.000  N
  N10      1.0000 0.43320  0.14180  0.82430  Biso   1.000  N
  N11      1.0000 0.93320  0.35820  0.32430  Biso   1.000  N
  N12      1.0000 0.56680  0.85820  0.17570  Biso   1.000  N
  N13      1.0000 0.53750  0.99190  0.74540  Biso   1.000  N
  N14      1.0000 0.96250  0.49190  0.75460  Biso   1.000  N
  N15      1.0000 0.46250  0.00810  0.25460  Biso   1.000  N
  N16      1.0000 0.03750  0.50810  0.24540  Biso   1.000  N
  C1       1.0000 0.67320  0.57540  0.74610  Biso   1.000  C
  C2       1.0000 0.82680  0.07540  0.75390  Biso   1.000  C
  C3       1.0000 0.32680  0.42460  0.25390  Biso   1.000  C
  C4       1.0000 0.17320  0.92460  0.24610  Biso   1.000  C
  C5       1.0000 0.55510  0.52970  0.73670  Biso   1.000  C
  C6       1.0000 0.94490  0.02970  0.76330  Biso   1.000  C
  C7       1.0000 0.44490  0.47030  0.26330  Biso   1.000  C
  C8       1.0000 0.05510  0.97030  0.23670  Biso   1.000  C
  C9       1.0000 0.47470  0.54730  0.78070  Biso   1.000  C
  C10      1.0000 0.02530  0.04730  0.71930  Biso   1.000  C
  C11      1.0000 0.52530  0.45270  0.21930  Biso   1.000  C
  C12      1.0000 0.97470  0.95270  0.28070  Biso   1.000  C
  C13      1.0000 0.36200  0.50350  0.76970  Biso   1.000  C
  C14      1.0000 0.13800  0.00350  0.73030  Biso   1.000  C
  C15      1.0000 0.63800  0.49650  0.23030  Biso   1.000  C
  C16      1.0000 0.86200  0.99650  0.26970  Biso   1.000  C
  H45      1.0000 0.30740  0.51190  0.79950  Biso   1.000  H
  H46      1.0000 0.19260  0.01190  0.70050  Biso   1.000  H
  H47      1.0000 0.69260  0.48810  0.20050  Biso   1.000  H
  H48      1.0000 0.80740  0.98810  0.29950  Biso   1.000  H
  C17      1.0000 0.33420  0.44910  0.71520  Biso   1.000  C
  C18      1.0000 0.16580  0.94910  0.78480  Biso   1.000  C
  C19      1.0000 0.66580  0.55090  0.28480  Biso   1.000  C
  C20      1.0000 0.83420  0.05090  0.21520  Biso   1.000  C
  H49      1.0000 0.25890  0.42290  0.70730  Biso   1.000  H
  H50      1.0000 0.24110  0.92290  0.79270  Biso   1.000  H
  H51      1.0000 0.74110  0.57710  0.29270  Biso   1.000  H
  H52      1.0000 0.75890  0.07710  0.20730  Biso   1.000  H
  C21      1.0000 0.41540  0.43130  0.67060  Biso   1.000  C
  C22      1.0000 0.08460  0.93130  0.82940  Biso   1.000  C
  C23      1.0000 0.58460  0.56870  0.32940  Biso   1.000  C
  C24      1.0000 0.91540  0.06870  0.17060  Biso   1.000  C
  C25      1.0000 0.52600  0.47200  0.68240  Biso   1.000  C
  C26      1.0000 0.97400  0.97200  0.81760  Biso   1.000  C
  C27      1.0000 0.47400  0.52800  0.31760  Biso   1.000  C
  C28      1.0000 0.02600  0.02800  0.18240  Biso   1.000  C
  H53      1.0000 0.58160  0.46050  0.65350  Biso   1.000  H
  H54      1.0000 0.91840  0.96050  0.84650  Biso   1.000  H
  H55      1.0000 0.41840  0.53950  0.34650  Biso   1.000  H
  H56      1.0000 0.08160  0.03950  0.15350  Biso   1.000  H
  C29      1.0000 0.74370  0.69720  0.59300  Biso   1.000  C
  C30      1.0000 0.75630  0.19720  0.90700  Biso   1.000  C
  C31      1.0000 0.25630  0.30280  0.40700  Biso   1.000  C
  C32      1.0000 0.24370  0.80280  0.09300  Biso   1.000  C
  H57      1.0000 0.71910  0.63370  0.58490  Biso   1.000  H
  H58      1.0000 0.78090  0.13370  0.91510  Biso   1.000  H
  H59      1.0000 0.28090  0.36630  0.41510  Biso   1.000  H
  H60      1.0000 0.21910  0.86630  0.08490  Biso   1.000  H
  C33      1.0000 0.68740  0.76840  0.55640  Biso   1.000  C
  C34      1.0000 0.81260  0.26840  0.94360  Biso   1.000  C
  C35      1.0000 0.31260  0.23160  0.44360  Biso   1.000  C
  C36      1.0000 0.18740  0.73160  0.05640  Biso   1.000  C
  H61      1.0000 0.62730  0.75280  0.52380  Biso   1.000  H
  H62      1.0000 0.87270  0.25280  0.97620  Biso   1.000  H
  H63      1.0000 0.37270  0.24720  0.47620  Biso   1.000  H
  H64      1.0000 0.12730  0.74720  0.02380  Biso   1.000  H
  C37      1.0000 0.71860  0.86260  0.56730  Biso   1.000  C
  C38      1.0000 0.78140  0.36260  0.93270  Biso   1.000  C
  C39      1.0000 0.28140  0.13740  0.43270  Biso   1.000  C
  C40      1.0000 0.21860  0.63740  0.06730  Biso   1.000  C
  C41      1.0000 0.81280  0.88170  0.61540  Biso   1.000  C
  C42      1.0000 0.68720  0.38170  0.88460  Biso   1.000  C
  C43      1.0000 0.18720  0.11830  0.38460  Biso   1.000  C
  C44      1.0000 0.31280  0.61830  0.11540  Biso   1.000  C
  H65      1.0000 0.84000  0.94440  0.62350  Biso   1.000  H
  H66      1.0000 0.66000  0.44440  0.87650  Biso   1.000  H
  H67      1.0000 0.16000  0.05560  0.37650  Biso   1.000  H
  H68      1.0000 0.34000  0.55560  0.12350  Biso   1.000  H
  C45      1.0000 0.86310  0.80550  0.64970  Biso   1.000  C
  C46      1.0000 0.63690  0.30550  0.85030  Biso   1.000  C
  C47      1.0000 0.13690  0.19450  0.35030  Biso   1.000  C
  C48      1.0000 0.36310  0.69450  0.14970  Biso   1.000  C
  H69      1.0000 0.92350  0.81880  0.68260  Biso   1.000  H
  H70      1.0000 0.57650  0.31880  0.81740  Biso   1.000  H
  H71      1.0000 0.07650  0.18120  0.31740  Biso   1.000  H
  H72      1.0000 0.42350  0.68120  0.18260  Biso   1.000  H
  C49      1.0000 0.90080  0.13350  0.50270  Biso   1.000  C
  C50      1.0000 0.59920  0.63350  0.99730  Biso   1.000  C
  C51      1.0000 0.09920  0.86650  0.49730  Biso   1.000  C
  C52      1.0000 0.40080  0.36650  0.00270  Biso   1.000  C
  H73      1.0000 0.97280  0.13150  0.48560  Biso   1.000  H
  H74      1.0000 0.52720  0.63150  0.01440  Biso   1.000  H
  H75      1.0000 0.02720  0.86850  0.51440  Biso   1.000  H
  H76      1.0000 0.47280  0.36850  0.98560  Biso   1.000  H
  C53      1.0000 0.83270  0.04870  0.49920  Biso   1.000  C
  C54      1.0000 0.66730  0.54870  0.00080  Biso   1.000  C
  C55      1.0000 0.16730  0.95130  0.50080  Biso   1.000  C
  C56      1.0000 0.33270  0.45130  0.99920  Biso   1.000  C
  H77      1.0000 0.85610  0.99230  0.47970  Biso   1.000  H
  H78      1.0000 0.64390  0.49230  0.02030  Biso   1.000  H
  H79      1.0000 0.14390  0.00770  0.52030  Biso   1.000  H
  H80      1.0000 0.35610  0.50770  0.97970  Biso   1.000  H
  C57      1.0000 0.72560  0.05550  0.52770  Biso   1.000  C
  C58      1.0000 0.77440  0.55550  0.97230  Biso   1.000  C
  C59      1.0000 0.27440  0.94450  0.47230  Biso   1.000  C
  C60      1.0000 0.22560  0.44450  0.02770  Biso   1.000  C
  C61      1.0000 0.69130  0.13610  0.55290  Biso   1.000  C
  C62      1.0000 0.80870  0.63610  0.94710  Biso   1.000  C
  C63      1.0000 0.30870  0.86390  0.44710  Biso   1.000  C
  C64      1.0000 0.19130  0.36390  0.05290  Biso   1.000  C
  H81      1.0000 0.62050  0.14030  0.57120  Biso   1.000  H
  H82      1.0000 0.87950  0.64030  0.92880  Biso   1.000  H
  H83      1.0000 0.37950  0.85970  0.42880  Biso   1.000  H
  H84      1.0000 0.12050  0.35970  0.07120  Biso   1.000  H
  C65      1.0000 0.76800  0.21720  0.55120  Biso   1.000  C
  C66      1.0000 0.73200  0.71720  0.94880  Biso   1.000  C
  C67      1.0000 0.23200  0.78280  0.44880  Biso   1.000  C
  C68      1.0000 0.26800  0.28280  0.05120  Biso   1.000  C
  H85      1.0000 0.74320  0.27560  0.56750  Biso   1.000  H
  H86      1.0000 0.75680  0.77560  0.93250  Biso   1.000  H
  H87      1.0000 0.25680  0.72440  0.43250  Biso   1.000  H
  H88      1.0000 0.24320  0.22440  0.06750  Biso   1.000  H
  C69      1.0000 0.10750  0.61400  0.62040  Biso   1.000  C
  C70      1.0000 0.39250  0.11400  0.87960  Biso   1.000  C
  C71      1.0000 0.89250  0.38600  0.37960  Biso   1.000  C
  C72      1.0000 0.60750  0.88600  0.12040  Biso   1.000  C
  H89      1.0000 0.06150  0.57230  0.59280  Biso   1.000  H
  H90      1.0000 0.43850  0.07230  0.90720  Biso   1.000  H
  H91      1.0000 0.93850  0.42770  0.40720  Biso   1.000  H
  H92      1.0000 0.56150  0.92770  0.09280  Biso   1.000  H
  C73      1.0000 0.21000  0.64270  0.60280  Biso   1.000  C
  C74      1.0000 0.29000  0.14270  0.89720  Biso   1.000  C
  C75      1.0000 0.79000  0.35730  0.39720  Biso   1.000  C
  C76      1.0000 0.71000  0.85730  0.10280  Biso   1.000  C
  H93      1.0000 0.23140  0.62320  0.56250  Biso   1.000  H
  H94      1.0000 0.26860  0.12320  0.93750  Biso   1.000  H
  H95      1.0000 0.76860  0.37680  0.43750  Biso   1.000  H
  H96      1.0000 0.73140  0.87680  0.06250  Biso   1.000  H
  C77      1.0000 0.28590  0.70070  0.64240  Biso   1.000  C
  C78      1.0000 0.21410  0.20070  0.85760  Biso   1.000  C
  C79      1.0000 0.71410  0.29930  0.35760  Biso   1.000  C
  C80      1.0000 0.78590  0.79930  0.14240  Biso   1.000  C
  C81      1.0000 0.24640  0.72950  0.70050  Biso   1.000  C
  C82      1.0000 0.25360  0.22950  0.79950  Biso   1.000  C
  C83      1.0000 0.75360  0.27050  0.29950  Biso   1.000  C
  C84      1.0000 0.74640  0.77050  0.20050  Biso   1.000  C
  H97      1.0000 0.29270  0.76910  0.72950  Biso   1.000  H
  H98      1.0000 0.20730  0.26910  0.77050  Biso   1.000  H
  H99      1.0000 0.70730  0.23090  0.27050  Biso   1.000  H
  H100     1.0000 0.79270  0.73090  0.22950  Biso   1.000  H
  C85      1.0000 0.13760  0.69860  0.71490  Biso   1.000  C
  C86      1.0000 0.36240  0.19860  0.78510  Biso   1.000  C
  C87      1.0000 0.86240  0.30140  0.28510  Biso   1.000  C
  C88      1.0000 0.63760  0.80140  0.21490  Biso   1.000  C
  H101     1.0000 0.11210  0.71840  0.75420  Biso   1.000  H
  H102     1.0000 0.38790  0.21840  0.74580  Biso   1.000  H
  H103     1.0000 0.88790  0.28160  0.24580  Biso   1.000  H
  H104     1.0000 0.61210  0.78160  0.25420  Biso   1.000  H
  C89      1.0000 0.54980  0.82530  0.71770  Biso   1.000  C
  C90      1.0000 0.95020  0.32530  0.78230  Biso   1.000  C
  C91      1.0000 0.45020  0.17470  0.28230  Biso   1.000  C
  C92      1.0000 0.04980  0.67470  0.21770  Biso   1.000  C
  H105     1.0000 0.58540  0.76560  0.72670  Biso   1.000  H
  H106     1.0000 0.91460  0.26560  0.77330  Biso   1.000  H
  H107     1.0000 0.41460  0.23440  0.27330  Biso   1.000  H
  H108     1.0000 0.08540  0.73440  0.22670  Biso   1.000  H
  C93      1.0000 0.58430  0.90500  0.75520  Biso   1.000  C
  C94      1.0000 0.91570  0.40500  0.74480  Biso   1.000  C
  C95      1.0000 0.41570  0.09500  0.24480  Biso   1.000  C
  C96      1.0000 0.08430  0.59500  0.25520  Biso   1.000  C
  H109     1.0000 0.64390  0.89710  0.78940  Biso   1.000  H
  H110     1.0000 0.85610  0.39710  0.71060  Biso   1.000  H
  H111     1.0000 0.35610  0.10290  0.21060  Biso   1.000  H
  H112     1.0000 0.14390  0.60290  0.28940  Biso   1.000  H
  C97      1.0000 0.45200  0.00040  0.69600  Biso   1.000  C
  C98      1.0000 0.04800  0.50040  0.80400  Biso   1.000  C
  C99      1.0000 0.54800  0.99960  0.30400  Biso   1.000  C
  C100     1.0000 0.95200  0.49960  0.19600  Biso   1.000  C
  H113     1.0000 0.41680  0.06060  0.68790  Biso   1.000  H
  H114     1.0000 0.08320  0.56060  0.81210  Biso   1.000  H
  H115     1.0000 0.58320  0.93940  0.31210  Biso   1.000  H
  H116     1.0000 0.91680  0.43940  0.18790  Biso   1.000  H
  C101     1.0000 0.41370  0.92410  0.65650  Biso   1.000  C
  C102     1.0000 0.08630  0.42410  0.84350  Biso   1.000  C
  C103     1.0000 0.58630  0.07590  0.34350  Biso   1.000  C
  C104     1.0000 0.91370  0.57590  0.15650  Biso   1.000  C
  H117     1.0000 0.35420  0.93310  0.62230  Biso   1.000  H
  H118     1.0000 0.14580  0.43310  0.87770  Biso   1.000  H
  H119     1.0000 0.64580  0.06690  0.37770  Biso   1.000  H
  H120     1.0000 0.85420  0.56690  0.12230  Biso   1.000  H
  C105     1.0000 0.46320  0.83520  0.66760  Biso   1.000  C
  C106     1.0000 0.03680  0.33520  0.83240  Biso   1.000  C
  C107     1.0000 0.53680  0.16480  0.33240  Biso   1.000  C
  C108     1.0000 0.96320  0.66480  0.16760  Biso   1.000  C
