data_image0
_cell_length_a       8.783
_cell_length_b       9.304
_cell_length_c       26.993
_cell_angle_alpha    90
_cell_angle_beta     90
_cell_angle_gamma    90

_symmetry_space_group_name_H-M    "P 1"
_symmetry_int_tables_number       1

loop_
  _symmetry_equiv_pos_as_xyz
  'x, y, z'

loop_
  _atom_site_label
  _atom_site_occupancy
  _atom_site_fract_x
  _atom_site_fract_y
  _atom_site_fract_z
  _atom_site_thermal_displace_type
  _atom_site_B_iso_or_equiv
  _atom_site_type_symbol
  Cu1      1.0000 0.42240  0.35100  0.32663  Biso   1.000  Cu
  Cu2      1.0000 0.07760  0.85100  0.32663  Biso   1.000  Cu
  Cu3      1.0000 0.42240  0.14900  0.82663  Biso   1.000  Cu
  Cu4      1.0000 0.07760  0.64900  0.82663  Biso   1.000  Cu
  Cu5      1.0000 0.57760  0.64900  0.67337  Biso   1.000  Cu
  Cu6      1.0000 0.92240  0.14900  0.67337  Biso   1.000  Cu
  Cu7      1.0000 0.57760  0.85100  0.17337  Biso   1.000  Cu
  Cu8      1.0000 0.92240  0.35100  0.17337  Biso   1.000  Cu
  O1       1.0000 0.60670  0.29320  0.29330  Biso   1.000  O
  O2       1.0000 0.89330  0.79320  0.29330  Biso   1.000  O
  O3       1.0000 0.60670  0.20680  0.79330  Biso   1.000  O
  O4       1.0000 0.89330  0.70680  0.79330  Biso   1.000  O
  O5       1.0000 0.39330  0.70680  0.70670  Biso   1.000  O
  O6       1.0000 0.10670  0.20680  0.70670  Biso   1.000  O
  O7       1.0000 0.39330  0.79320  0.20670  Biso   1.000  O
  O8       1.0000 0.10670  0.29320  0.20670  Biso   1.000  O
  O9       1.0000 0.80140  0.38130  0.25090  Biso   1.000  O
  O10      1.0000 0.69860  0.88130  0.25090  Biso   1.000  O
  O11      1.0000 0.80140  0.11870  0.75090  Biso   1.000  O
  O12      1.0000 0.69860  0.61870  0.75090  Biso   1.000  O
  O13      1.0000 0.19860  0.61870  0.74910  Biso   1.000  O
  O14      1.0000 0.30140  0.11870  0.74910  Biso   1.000  O
  O15      1.0000 0.19860  0.88130  0.24910  Biso   1.000  O
  O16      1.0000 0.30140  0.38130  0.24910  Biso   1.000  O
  O17      1.0000 0.24610  0.45070  0.35310  Biso   1.000  O
  O18      1.0000 0.25390  0.95070  0.35310  Biso   1.000  O
  O19      1.0000 0.24610  0.04930  0.85310  Biso   1.000  O
  O20      1.0000 0.25390  0.54930  0.85310  Biso   1.000  O
  O21      1.0000 0.75390  0.54930  0.64690  Biso   1.000  O
  O22      1.0000 0.74610  0.04930  0.64690  Biso   1.000  O
  O23      1.0000 0.75390  0.95070  0.14690  Biso   1.000  O
  O24      1.0000 0.74610  0.45070  0.14690  Biso   1.000  O
  O25      1.0000 0.12470  0.65600  0.34550  Biso   1.000  O
  O26      1.0000 0.37530  0.15600  0.34550  Biso   1.000  O
  O27      1.0000 0.12470  0.84400  0.84550  Biso   1.000  O
  O28      1.0000 0.37530  0.34400  0.84550  Biso   1.000  O
  O29      1.0000 0.87530  0.34400  0.65450  Biso   1.000  O
  O30      1.0000 0.62470  0.84400  0.65450  Biso   1.000  O
  O31      1.0000 0.87530  0.15600  0.15450  Biso   1.000  O
  O32      1.0000 0.62470  0.65600  0.15450  Biso   1.000  O
  N1       1.0000 0.51730  0.55010  0.32750  Biso   1.000  N
  N2       1.0000 0.98270  0.05010  0.32750  Biso   1.000  N
  N3       1.0000 0.51730  0.94990  0.82750  Biso   1.000  N
  N4       1.0000 0.98270  0.44990  0.82750  Biso   1.000  N
  N5       1.0000 0.48270  0.44990  0.67250  Biso   1.000  N
  N6       1.0000 0.01730  0.94990  0.67250  Biso   1.000  N
  N7       1.0000 0.48270  0.05010  0.17250  Biso   1.000  N
  N8       1.0000 0.01730  0.55010  0.17250  Biso   1.000  N
  C1       1.0000 0.68600  0.39700  0.27680  Biso   1.000  C
  C2       1.0000 0.81400  0.89700  0.27680  Biso   1.000  C
  C3       1.0000 0.68600  0.10300  0.77680  Biso   1.000  C
  C4       1.0000 0.81400  0.60300  0.77680  Biso   1.000  C
  C5       1.0000 0.31400  0.60300  0.72320  Biso   1.000  C
  C6       1.0000 0.18600  0.10300  0.72320  Biso   1.000  C
  C7       1.0000 0.31400  0.89700  0.22320  Biso   1.000  C
  C8       1.0000 0.18600  0.39700  0.22320  Biso   1.000  C
  C9       1.0000 0.62200  0.54400  0.28430  Biso   1.000  C
  C10      1.0000 0.87800  0.04400  0.28430  Biso   1.000  C
  C11      1.0000 0.62200  0.95600  0.78430  Biso   1.000  C
  C12      1.0000 0.87800  0.45600  0.78430  Biso   1.000  C
  C13      1.0000 0.37800  0.45600  0.71570  Biso   1.000  C
  C14      1.0000 0.12200  0.95600  0.71570  Biso   1.000  C
  C15      1.0000 0.37800  0.04400  0.21570  Biso   1.000  C
  C16      1.0000 0.12200  0.54400  0.21570  Biso   1.000  C
  C17      1.0000 0.24100  0.57900  0.34200  Biso   1.000  C
  C18      1.0000 0.25900  0.07900  0.34200  Biso   1.000  C
  C19      1.0000 0.24100  0.92100  0.84200  Biso   1.000  C
  C20      1.0000 0.25900  0.42100  0.84200  Biso   1.000  C
  C21      1.0000 0.75900  0.42100  0.65800  Biso   1.000  C
  C22      1.0000 0.74100  0.92100  0.65800  Biso   1.000  C
  C23      1.0000 0.75900  0.07900  0.15800  Biso   1.000  C
  C24      1.0000 0.74100  0.57900  0.15800  Biso   1.000  C
  C25      1.0000 0.38500  0.64500  0.31960  Biso   1.000  C
  C26      1.0000 0.11500  0.14500  0.31960  Biso   1.000  C
  C27      1.0000 0.38500  0.85500  0.81960  Biso   1.000  C
  C28      1.0000 0.11500  0.35500  0.81960  Biso   1.000  C
  C29      1.0000 0.61500  0.35500  0.68040  Biso   1.000  C
  C30      1.0000 0.88500  0.85500  0.68040  Biso   1.000  C
  C31      1.0000 0.61500  0.14500  0.18040  Biso   1.000  C
  C32      1.0000 0.88500  0.64500  0.18040  Biso   1.000  C
  C33      1.0000 0.59000  0.56700  0.37530  Biso   1.000  C
  C34      1.0000 0.91000  0.06700  0.37530  Biso   1.000  C
  C35      1.0000 0.59000  0.93300  0.87530  Biso   1.000  C
  C36      1.0000 0.91000  0.43300  0.87530  Biso   1.000  C
  C37      1.0000 0.41000  0.43300  0.62470  Biso   1.000  C
  C38      1.0000 0.09000  0.93300  0.62470  Biso   1.000  C
  C39      1.0000 0.41000  0.06700  0.12470  Biso   1.000  C
  C40      1.0000 0.09000  0.56700  0.12470  Biso   1.000  C
  C41      1.0000 0.51600  0.62000  0.41400  Biso   1.000  C
  C42      1.0000 0.98400  0.12000  0.41400  Biso   1.000  C
  C43      1.0000 0.51600  0.88000  0.91400  Biso   1.000  C
  C44      1.0000 0.98400  0.38000  0.91400  Biso   1.000  C
  C45      1.0000 0.48400  0.38000  0.58600  Biso   1.000  C
  C46      1.0000 0.01600  0.88000  0.58600  Biso   1.000  C
  C47      1.0000 0.48400  0.12000  0.08600  Biso   1.000  C
  C48      1.0000 0.01600  0.62000  0.08600  Biso   1.000  C
  C49      1.0000 0.58300  0.62900  0.45950  Biso   1.000  C
  C50      1.0000 0.91700  0.12900  0.45950  Biso   1.000  C
  C51      1.0000 0.58300  0.87100  0.95950  Biso   1.000  C
  C52      1.0000 0.91700  0.37100  0.95950  Biso   1.000  C
  C53      1.0000 0.41700  0.37100  0.54050  Biso   1.000  C
  C54      1.0000 0.08300  0.87100  0.54050  Biso   1.000  C
  C55      1.0000 0.41700  0.12900  0.04050  Biso   1.000  C
  C56      1.0000 0.08300  0.62900  0.04050  Biso   1.000  C
  C57      1.0000 0.72500  0.58200  0.46750  Biso   1.000  C
  C58      1.0000 0.77500  0.08200  0.46750  Biso   1.000  C
  C59      1.0000 0.72500  0.91800  0.96750  Biso   1.000  C
  C60      1.0000 0.77500  0.41800  0.96750  Biso   1.000  C
  C61      1.0000 0.27500  0.41800  0.53250  Biso   1.000  C
  C62      1.0000 0.22500  0.91800  0.53250  Biso   1.000  C
  C63      1.0000 0.27500  0.08200  0.03250  Biso   1.000  C
  C64      1.0000 0.22500  0.58200  0.03250  Biso   1.000  C
  C65      1.0000 0.81400  0.53500  0.42870  Biso   1.000  C
  C66      1.0000 0.68600  0.03500  0.42870  Biso   1.000  C
  C67      1.0000 0.81400  0.96500  0.92870  Biso   1.000  C
  C68      1.0000 0.68600  0.46500  0.92870  Biso   1.000  C
  C69      1.0000 0.18600  0.46500  0.57130  Biso   1.000  C
  C70      1.0000 0.31400  0.96500  0.57130  Biso   1.000  C
  C71      1.0000 0.18600  0.03500  0.07130  Biso   1.000  C
  C72      1.0000 0.31400  0.53500  0.07130  Biso   1.000  C
  C73      1.0000 0.73900  0.52300  0.38050  Biso   1.000  C
  C74      1.0000 0.76100  0.02300  0.38050  Biso   1.000  C
  C75      1.0000 0.73900  0.97700  0.88050  Biso   1.000  C
  C76      1.0000 0.76100  0.47700  0.88050  Biso   1.000  C
  C77      1.0000 0.26100  0.47700  0.61950  Biso   1.000  C
  C78      1.0000 0.23900  0.97700  0.61950  Biso   1.000  C
  C79      1.0000 0.26100  0.02300  0.11950  Biso   1.000  C
  C80      1.0000 0.23900  0.52300  0.11950  Biso   1.000  C
  Cl1      1.0000 0.80280  0.58490  0.52600  Biso   1.000  Cl
  Cl2      1.0000 0.69720  0.08490  0.52600  Biso   1.000  Cl
  Cl3      1.0000 0.80280  0.91510  0.02600  Biso   1.000  Cl
  Cl4      1.0000 0.69720  0.41510  0.02600  Biso   1.000  Cl
  Cl5      1.0000 0.19720  0.41510  0.47400  Biso   1.000  Cl
  Cl6      1.0000 0.30280  0.91510  0.47400  Biso   1.000  Cl
  Cl7      1.0000 0.19720  0.08490  0.97400  Biso   1.000  Cl
  Cl8      1.0000 0.30280  0.58490  0.97400  Biso   1.000  Cl
  H1       1.0000 0.58000  0.58000  0.24900  Biso   1.000  H
  H2       1.0000 0.92000  0.08000  0.24900  Biso   1.000  H
  H3       1.0000 0.58000  0.92000  0.74900  Biso   1.000  H
  H4       1.0000 0.92000  0.42000  0.74900  Biso   1.000  H
  H5       1.0000 0.42000  0.42000  0.75100  Biso   1.000  H
  H6       1.0000 0.08000  0.92000  0.75100  Biso   1.000  H
  H7       1.0000 0.42000  0.08000  0.25100  Biso   1.000  H
  H8       1.0000 0.08000  0.58000  0.25100  Biso   1.000  H
  H9       1.0000 0.69000  0.62000  0.28400  Biso   1.000  H
  H10      1.0000 0.81000  0.12000  0.28400  Biso   1.000  H
  H11      1.0000 0.69000  0.88000  0.78400  Biso   1.000  H
  H12      1.0000 0.81000  0.38000  0.78400  Biso   1.000  H
  H13      1.0000 0.31000  0.38000  0.71600  Biso   1.000  H
  H14      1.0000 0.19000  0.88000  0.71600  Biso   1.000  H
  H15      1.0000 0.31000  0.12000  0.21600  Biso   1.000  H
  H16      1.0000 0.19000  0.62000  0.21600  Biso   1.000  H
  H17      1.0000 0.40000  0.74000  0.33400  Biso   1.000  H
  H18      1.0000 0.10000  0.24000  0.33400  Biso   1.000  H
  H19      1.0000 0.40000  0.76000  0.83400  Biso   1.000  H
  H20      1.0000 0.10000  0.26000  0.83400  Biso   1.000  H
  H21      1.0000 0.60000  0.26000  0.66600  Biso   1.000  H
  H22      1.0000 0.90000  0.76000  0.66600  Biso   1.000  H
  H23      1.0000 0.60000  0.24000  0.16600  Biso   1.000  H
  H24      1.0000 0.90000  0.74000  0.16600  Biso   1.000  H
  H25      1.0000 0.37000  0.60000  0.28300  Biso   1.000  H
  H26      1.0000 0.13000  0.10000  0.28300  Biso   1.000  H
  H27      1.0000 0.37000  0.90000  0.78300  Biso   1.000  H
  H28      1.0000 0.13000  0.40000  0.78300  Biso   1.000  H
  H29      1.0000 0.63000  0.40000  0.71700  Biso   1.000  H
  H30      1.0000 0.87000  0.90000  0.71700  Biso   1.000  H
  H31      1.0000 0.63000  0.10000  0.21700  Biso   1.000  H
  H32      1.0000 0.87000  0.60000  0.21700  Biso   1.000  H
  H33      1.0000 0.42000  0.62000  0.41600  Biso   1.000  H
  H34      1.0000 0.08000  0.12000  0.41600  Biso   1.000  H
  H35      1.0000 0.42000  0.88000  0.91600  Biso   1.000  H
  H36      1.0000 0.08000  0.38000  0.91600  Biso   1.000  H
  H37      1.0000 0.58000  0.38000  0.58400  Biso   1.000  H
  H38      1.0000 0.92000  0.88000  0.58400  Biso   1.000  H
  H39      1.0000 0.58000  0.12000  0.08400  Biso   1.000  H
  H40      1.0000 0.92000  0.62000  0.08400  Biso   1.000  H
  H41      1.0000 0.53000  0.66000  0.48500  Biso   1.000  H
  H42      1.0000 0.97000  0.16000  0.48500  Biso   1.000  H
  H43      1.0000 0.53000  0.84000  0.98500  Biso   1.000  H
  H44      1.0000 0.97000  0.34000  0.98500  Biso   1.000  H
  H45      1.0000 0.47000  0.34000  0.51500  Biso   1.000  H
  H46      1.0000 0.03000  0.84000  0.51500  Biso   1.000  H
  H47      1.0000 0.47000  0.16000  0.01500  Biso   1.000  H
  H48      1.0000 0.03000  0.66000  0.01500  Biso   1.000  H
  H49      1.0000 0.92000  0.51000  0.43100  Biso   1.000  H
  H50      1.0000 0.58000  0.01000  0.43100  Biso   1.000  H
  H51      1.0000 0.92000  0.99000  0.93100  Biso   1.000  H
  H52      1.0000 0.58000  0.49000  0.93100  Biso   1.000  H
  H53      1.0000 0.08000  0.49000  0.56900  Biso   1.000  H
  H54      1.0000 0.42000  0.99000  0.56900  Biso   1.000  H
  H55      1.0000 0.08000  0.01000  0.06900  Biso   1.000  H
  H56      1.0000 0.42000  0.51000  0.06900  Biso   1.000  H
  H57      1.0000 0.79000  0.48000  0.35500  Biso   1.000  H
  H58      1.0000 0.71000  0.98000  0.35500  Biso   1.000  H
  H59      1.0000 0.79000  0.02000  0.85500  Biso   1.000  H
  H60      1.0000 0.71000  0.52000  0.85500  Biso   1.000  H
  H61      1.0000 0.21000  0.52000  0.64500  Biso   1.000  H
  H62      1.0000 0.29000  0.02000  0.64500  Biso   1.000  H
  H63      1.0000 0.21000  0.98000  0.14500  Biso   1.000  H
  H64      1.0000 0.29000  0.48000  0.14500  Biso   1.000  H
