data_image0
_cell_length_a       19.707
_cell_length_b       21.441
_cell_length_c       7.021
_cell_angle_alpha    90
_cell_angle_beta     90
_cell_angle_gamma    90

_symmetry_space_group_name_H-M    "P 1"
_symmetry_int_tables_number       1

loop_
  _symmetry_equiv_pos_as_xyz
  'x, y, z'

loop_
  _atom_site_label
  _atom_site_occupancy
  _atom_site_fract_x
  _atom_site_fract_y
  _atom_site_fract_z
  _atom_site_thermal_displace_type
  _atom_site_B_iso_or_equiv
  _atom_site_type_symbol
  Cu1      1.0000 0.39216  0.64792  0.53980  Biso   1.000  Cu
  Cu2      1.0000 0.60784  0.35208  0.53980  Biso   1.000  Cu
  Cu3      1.0000 0.10784  0.14792  0.46020  Biso   1.000  Cu
  Cu4      1.0000 0.89216  0.85208  0.46020  Biso   1.000  Cu
  S1       1.0000 0.63119  0.59295  0.54490  Biso   1.000  S
  S2       1.0000 0.36881  0.40705  0.54490  Biso   1.000  S
  S3       1.0000 0.86881  0.09295  0.45510  Biso   1.000  S
  S4       1.0000 0.13119  0.90705  0.45510  Biso   1.000  S
  O1       1.0000 0.48660  0.62310  0.54760  Biso   1.000  O
  O2       1.0000 0.51340  0.37690  0.54760  Biso   1.000  O
  O3       1.0000 0.01340  0.12310  0.45240  Biso   1.000  O
  O4       1.0000 0.98660  0.87690  0.45240  Biso   1.000  O
  N1       1.0000 0.41210  0.73830  0.56000  Biso   1.000  N
  N2       1.0000 0.58790  0.26170  0.56000  Biso   1.000  N
  N3       1.0000 0.08790  0.23830  0.44000  Biso   1.000  N
  N4       1.0000 0.91210  0.76170  0.44000  Biso   1.000  N
  C1       1.0000 0.49640  0.56600  0.54300  Biso   1.000  C
  C2       1.0000 0.50360  0.43400  0.54300  Biso   1.000  C
  C3       1.0000 0.00360  0.06600  0.45700  Biso   1.000  C
  C4       1.0000 0.99640  0.93400  0.45700  Biso   1.000  C
  O5       1.0000 0.62280  0.44380  0.53200  Biso   1.000  O
  O6       1.0000 0.37720  0.55620  0.53200  Biso   1.000  O
  O7       1.0000 0.87720  0.94380  0.46800  Biso   1.000  O
  O8       1.0000 0.12280  0.05620  0.46800  Biso   1.000  O
  N5       1.0000 0.29920  0.67860  0.51230  Biso   1.000  N
  N6       1.0000 0.70080  0.32140  0.51230  Biso   1.000  N
  N7       1.0000 0.20080  0.17860  0.48770  Biso   1.000  N
  N8       1.0000 0.79920  0.82140  0.48770  Biso   1.000  N
  C5       1.0000 0.56200  0.53920  0.54700  Biso   1.000  C
  C6       1.0000 0.43800  0.46080  0.54700  Biso   1.000  C
  C7       1.0000 0.93800  0.03920  0.45300  Biso   1.000  C
  C8       1.0000 0.06200  0.96080  0.45300  Biso   1.000  C
  C9       1.0000 0.56740  0.47440  0.54200  Biso   1.000  C
  C10      1.0000 0.43260  0.52560  0.54200  Biso   1.000  C
  C11      1.0000 0.93260  0.97440  0.45800  Biso   1.000  C
  C12      1.0000 0.06740  0.02560  0.45800  Biso   1.000  C
  O9       1.0000 0.62100  0.63400  0.70590  Biso   1.000  O
  O10      1.0000 0.37900  0.36600  0.70590  Biso   1.000  O
  O11      1.0000 0.87900  0.13400  0.29410  Biso   1.000  O
  O12      1.0000 0.12100  0.86600  0.29410  Biso   1.000  O
  O13      1.0000 0.69320  0.55660  0.55950  Biso   1.000  O
  O14      1.0000 0.30680  0.44340  0.55950  Biso   1.000  O
  O15      1.0000 0.80680  0.05660  0.44050  Biso   1.000  O
  O16      1.0000 0.19320  0.94340  0.44050  Biso   1.000  O
  O17      1.0000 0.62620  0.62710  0.36600  Biso   1.000  O
  O18      1.0000 0.37380  0.37290  0.36600  Biso   1.000  O
  O19      1.0000 0.87380  0.12710  0.63400  Biso   1.000  O
  O20      1.0000 0.12620  0.87290  0.63400  Biso   1.000  O
  C13      1.0000 0.47190  0.76440  0.60000  Biso   1.000  C
  C14      1.0000 0.52810  0.23560  0.60000  Biso   1.000  C
  C15      1.0000 0.02810  0.26440  0.40000  Biso   1.000  C
  C16      1.0000 0.97190  0.73560  0.40000  Biso   1.000  C
  H1       1.0000 0.50880  0.73840  0.62260  Biso   1.000  H
  H2       1.0000 0.49120  0.26160  0.62260  Biso   1.000  H
  H3       1.0000 0.99120  0.23840  0.37740  Biso   1.000  H
  H4       1.0000 0.00880  0.76160  0.37740  Biso   1.000  H
  C17      1.0000 0.48140  0.82750  0.60900  Biso   1.000  C
  C18      1.0000 0.51860  0.17250  0.60900  Biso   1.000  C
  C19      1.0000 0.01860  0.32750  0.39100  Biso   1.000  C
  C20      1.0000 0.98140  0.67250  0.39100  Biso   1.000  C
  H5       1.0000 0.52410  0.84420  0.63270  Biso   1.000  H
  H6       1.0000 0.47590  0.15580  0.63270  Biso   1.000  H
  H7       1.0000 0.97590  0.34420  0.36730  Biso   1.000  H
  H8       1.0000 0.02410  0.65580  0.36730  Biso   1.000  H
  C21      1.0000 0.42480  0.86660  0.58300  Biso   1.000  C
  C22      1.0000 0.57520  0.13340  0.58300  Biso   1.000  C
  C23      1.0000 0.07520  0.36660  0.41700  Biso   1.000  C
  C24      1.0000 0.92480  0.63340  0.41700  Biso   1.000  C
  H9       1.0000 0.42930  0.90970  0.58810  Biso   1.000  H
  H10      1.0000 0.57070  0.09030  0.58810  Biso   1.000  H
  H11      1.0000 0.07070  0.40970  0.41190  Biso   1.000  H
  H12      1.0000 0.92930  0.59030  0.41190  Biso   1.000  H
  C25      1.0000 0.36260  0.83950  0.55000  Biso   1.000  C
  C26      1.0000 0.63740  0.16050  0.55000  Biso   1.000  C
  C27      1.0000 0.13740  0.33950  0.45000  Biso   1.000  C
  C28      1.0000 0.86260  0.66050  0.45000  Biso   1.000  C
  H13      1.0000 0.32430  0.86420  0.53330  Biso   1.000  H
  H14      1.0000 0.67570  0.13580  0.53330  Biso   1.000  H
  H15      1.0000 0.17570  0.36420  0.46670  Biso   1.000  H
  H16      1.0000 0.82430  0.63580  0.46670  Biso   1.000  H
  C29      1.0000 0.35740  0.77540  0.54200  Biso   1.000  C
  C30      1.0000 0.64260  0.22460  0.54200  Biso   1.000  C
  C31      1.0000 0.14260  0.27540  0.45800  Biso   1.000  C
  C32      1.0000 0.85740  0.72460  0.45800  Biso   1.000  C
  C33      1.0000 0.29350  0.74120  0.51100  Biso   1.000  C
  C34      1.0000 0.70650  0.25880  0.51100  Biso   1.000  C
  C35      1.0000 0.20650  0.24120  0.48900  Biso   1.000  C
  C36      1.0000 0.79350  0.75880  0.48900  Biso   1.000  C
  C37      1.0000 0.23120  0.77000  0.48600  Biso   1.000  C
  C38      1.0000 0.76880  0.23000  0.48600  Biso   1.000  C
  C39      1.0000 0.26880  0.27000  0.51400  Biso   1.000  C
  C40      1.0000 0.73120  0.73000  0.51400  Biso   1.000  C
  H17      1.0000 0.22770  0.81320  0.49080  Biso   1.000  H
  H18      1.0000 0.77230  0.18680  0.49080  Biso   1.000  H
  H19      1.0000 0.27230  0.31320  0.50920  Biso   1.000  H
  H20      1.0000 0.72770  0.68680  0.50920  Biso   1.000  H
  C41      1.0000 0.17410  0.73360  0.45500  Biso   1.000  C
  C42      1.0000 0.82590  0.26640  0.45500  Biso   1.000  C
  C43      1.0000 0.32590  0.23360  0.54500  Biso   1.000  C
  C44      1.0000 0.67410  0.76640  0.54500  Biso   1.000  C
  H21      1.0000 0.13220  0.75220  0.43340  Biso   1.000  H
  H22      1.0000 0.86780  0.24780  0.43340  Biso   1.000  H
  H23      1.0000 0.36780  0.25220  0.56660  Biso   1.000  H
  H24      1.0000 0.63220  0.74780  0.56660  Biso   1.000  H
  C45      1.0000 0.18020  0.66970  0.45600  Biso   1.000  C
  C46      1.0000 0.81980  0.33030  0.45600  Biso   1.000  C
  C47      1.0000 0.31980  0.16970  0.54400  Biso   1.000  C
  C48      1.0000 0.68020  0.83030  0.54400  Biso   1.000  C
  H25      1.0000 0.14220  0.64470  0.43770  Biso   1.000  H
  H26      1.0000 0.85780  0.35530  0.43770  Biso   1.000  H
  H27      1.0000 0.35780  0.14470  0.56230  Biso   1.000  H
  H28      1.0000 0.64220  0.85530  0.56230  Biso   1.000  H
  C49      1.0000 0.24360  0.64270  0.48500  Biso   1.000  C
  C50      1.0000 0.75640  0.35730  0.48500  Biso   1.000  C
  C51      1.0000 0.25640  0.14270  0.51500  Biso   1.000  C
  C52      1.0000 0.74360  0.85730  0.51500  Biso   1.000  C
  H29      1.0000 0.24770  0.59950  0.48570  Biso   1.000  H
  H30      1.0000 0.75230  0.40050  0.48570  Biso   1.000  H
  H31      1.0000 0.25230  0.09950  0.51430  Biso   1.000  H
  H32      1.0000 0.74770  0.90050  0.51430  Biso   1.000  H
  Cu5      1.0000 0.63100  0.63149  0.03610  Biso   1.000  Cu
  Cu6      1.0000 0.36900  0.36851  0.03610  Biso   1.000  Cu
  Cu7      1.0000 0.86900  0.13149  0.96390  Biso   1.000  Cu
  Cu8      1.0000 0.13100  0.86851  0.96390  Biso   1.000  Cu
  S5       1.0000 0.38506  0.60968  0.04950  Biso   1.000  S
  S6       1.0000 0.61494  0.39032  0.04950  Biso   1.000  S
  S7       1.0000 0.11494  0.10968  0.95050  Biso   1.000  S
  S8       1.0000 0.88506  0.89032  0.95050  Biso   1.000  S
  O21      1.0000 0.53320  0.62040  0.04100  Biso   1.000  O
  O22      1.0000 0.46680  0.37960  0.04100  Biso   1.000  O
  O23      1.0000 0.96680  0.12040  0.95900  Biso   1.000  O
  O24      1.0000 0.03320  0.87960  0.95900  Biso   1.000  O
  N9       1.0000 0.62360  0.72330  0.05830  Biso   1.000  N
  N10      1.0000 0.37640  0.27670  0.05830  Biso   1.000  N
  N11      1.0000 0.87640  0.22330  0.94170  Biso   1.000  N
  N12      1.0000 0.12360  0.77670  0.94170  Biso   1.000  N
  O25      1.0000 0.36930  0.46160  0.03340  Biso   1.000  O
  O26      1.0000 0.63070  0.53840  0.03340  Biso   1.000  O
  O27      1.0000 0.13070  0.96160  0.96660  Biso   1.000  O
  O28      1.0000 0.86930  0.03840  0.96660  Biso   1.000  O
  N13      1.0000 0.72780  0.65140  0.00850  Biso   1.000  N
  N14      1.0000 0.27220  0.34860  0.00850  Biso   1.000  N
  N15      1.0000 0.77220  0.15140  0.99150  Biso   1.000  N
  N16      1.0000 0.22780  0.84860  0.99150  Biso   1.000  N
  C53      1.0000 0.51370  0.56450  0.04600  Biso   1.000  C
  C54      1.0000 0.48630  0.43550  0.04600  Biso   1.000  C
  C55      1.0000 0.98630  0.06450  0.95400  Biso   1.000  C
  C56      1.0000 0.01370  0.93550  0.95400  Biso   1.000  C
  C57      1.0000 0.44500  0.54780  0.04900  Biso   1.000  C
  C58      1.0000 0.55500  0.45220  0.04900  Biso   1.000  C
  C59      1.0000 0.05500  0.04780  0.95100  Biso   1.000  C
  C60      1.0000 0.94500  0.95220  0.95100  Biso   1.000  C
  C61      1.0000 0.42850  0.48440  0.03900  Biso   1.000  C
  C62      1.0000 0.57150  0.51560  0.03900  Biso   1.000  C
  C63      1.0000 0.07150  0.98440  0.96100  Biso   1.000  C
  C64      1.0000 0.92850  0.01560  0.96100  Biso   1.000  C
  C65      1.0000 0.56570  0.75590  0.08700  Biso   1.000  C
  C66      1.0000 0.43430  0.24410  0.08700  Biso   1.000  C
  C67      1.0000 0.93430  0.25590  0.91300  Biso   1.000  C
  C68      1.0000 0.06570  0.74410  0.91300  Biso   1.000  C
  H33      1.0000 0.52500  0.73460  0.10130  Biso   1.000  H
  H34      1.0000 0.47500  0.26540  0.10130  Biso   1.000  H
  H35      1.0000 0.97500  0.23460  0.89870  Biso   1.000  H
  H36      1.0000 0.02500  0.76540  0.89870  Biso   1.000  H
  O29      1.0000 0.40420  0.65000  0.20690  Biso   1.000  O
  O30      1.0000 0.59580  0.35000  0.20690  Biso   1.000  O
  O31      1.0000 0.09580  0.15000  0.79310  Biso   1.000  O
  O32      1.0000 0.90420  0.85000  0.79310  Biso   1.000  O
  C69      1.0000 0.56590  0.82000  0.09500  Biso   1.000  C
  C70      1.0000 0.43410  0.18000  0.09500  Biso   1.000  C
  C71      1.0000 0.93410  0.32000  0.90500  Biso   1.000  C
  C72      1.0000 0.06590  0.68000  0.90500  Biso   1.000  C
  H37      1.0000 0.52560  0.84140  0.11580  Biso   1.000  H
  H38      1.0000 0.47440  0.15860  0.11580  Biso   1.000  H
  H39      1.0000 0.97440  0.34140  0.88420  Biso   1.000  H
  H40      1.0000 0.02560  0.65860  0.88420  Biso   1.000  H
  O33      1.0000 0.39160  0.64210  0.86900  Biso   1.000  O
  O34      1.0000 0.60840  0.35790  0.86900  Biso   1.000  O
  O35      1.0000 0.10840  0.14210  0.13100  Biso   1.000  O
  O36      1.0000 0.89160  0.85790  0.13100  Biso   1.000  O
  C73      1.0000 0.62520  0.85210  0.07300  Biso   1.000  C
  C74      1.0000 0.37480  0.14790  0.07300  Biso   1.000  C
  C75      1.0000 0.87480  0.35210  0.92700  Biso   1.000  C
  C76      1.0000 0.12520  0.64790  0.92700  Biso   1.000  C
  H41      1.0000 0.62530  0.89550  0.07360  Biso   1.000  H
  H42      1.0000 0.37470  0.10450  0.07360  Biso   1.000  H
  H43      1.0000 0.87470  0.39550  0.92640  Biso   1.000  H
  H44      1.0000 0.12530  0.60450  0.92640  Biso   1.000  H
  O37      1.0000 0.31790  0.58220  0.07480  Biso   1.000  O
  O38      1.0000 0.68210  0.41780  0.07480  Biso   1.000  O
  O39      1.0000 0.18210  0.08220  0.92520  Biso   1.000  O
  O40      1.0000 0.81790  0.91780  0.92520  Biso   1.000  O
  C77      1.0000 0.68540  0.81910  0.04800  Biso   1.000  C
  C78      1.0000 0.31460  0.18090  0.04800  Biso   1.000  C
  C79      1.0000 0.81460  0.31910  0.95200  Biso   1.000  C
  C80      1.0000 0.18540  0.68090  0.95200  Biso   1.000  C
  H45      1.0000 0.72670  0.83990  0.03910  Biso   1.000  H
  H46      1.0000 0.27330  0.16010  0.03910  Biso   1.000  H
  H47      1.0000 0.77330  0.33990  0.96090  Biso   1.000  H
  H48      1.0000 0.22670  0.66010  0.96090  Biso   1.000  H
  C81      1.0000 0.68220  0.75430  0.03700  Biso   1.000  C
  C82      1.0000 0.31780  0.24570  0.03700  Biso   1.000  C
  C83      1.0000 0.81780  0.25430  0.96300  Biso   1.000  C
  C84      1.0000 0.18220  0.74570  0.96300  Biso   1.000  C
  C85      1.0000 0.74170  0.71290  0.01400  Biso   1.000  C
  C86      1.0000 0.25830  0.28710  0.01400  Biso   1.000  C
  C87      1.0000 0.75830  0.21290  0.98600  Biso   1.000  C
  C88      1.0000 0.24170  0.78710  0.98600  Biso   1.000  C
  C89      1.0000 0.80800  0.73520  0.97900  Biso   1.000  C
  C90      1.0000 0.19200  0.26480  0.97900  Biso   1.000  C
  C91      1.0000 0.69200  0.23520  0.02100  Biso   1.000  C
  C92      1.0000 0.30800  0.76480  0.02100  Biso   1.000  C
  H49      1.0000 0.81650  0.77780  0.97480  Biso   1.000  H
  H50      1.0000 0.18350  0.22220  0.97480  Biso   1.000  H
  H51      1.0000 0.68350  0.27780  0.02520  Biso   1.000  H
  H52      1.0000 0.31650  0.72220  0.02520  Biso   1.000  H
  C93      1.0000 0.85940  0.69360  0.95200  Biso   1.000  C
  C94      1.0000 0.14060  0.30640  0.95200  Biso   1.000  C
  C95      1.0000 0.64060  0.19360  0.04800  Biso   1.000  C
  C96      1.0000 0.35940  0.80640  0.04800  Biso   1.000  C
  H53      1.0000 0.90380  0.70740  0.93620  Biso   1.000  H
  H54      1.0000 0.09620  0.29260  0.93620  Biso   1.000  H
  H55      1.0000 0.59620  0.20740  0.06380  Biso   1.000  H
  H56      1.0000 0.40380  0.79260  0.06380  Biso   1.000  H
  C97      1.0000 0.84440  0.63030  0.94800  Biso   1.000  C
  C98      1.0000 0.15560  0.36970  0.94800  Biso   1.000  C
  C99      1.0000 0.65560  0.13030  0.05200  Biso   1.000  C
  C100     1.0000 0.34440  0.86970  0.05200  Biso   1.000  C
  H57      1.0000 0.87840  0.60110  0.92500  Biso   1.000  H
  H58      1.0000 0.12160  0.39890  0.92500  Biso   1.000  H
  H59      1.0000 0.62160  0.10110  0.07500  Biso   1.000  H
  H60      1.0000 0.37840  0.89890  0.07500  Biso   1.000  H
  C101     1.0000 0.77830  0.61120  0.98000  Biso   1.000  C
  C102     1.0000 0.22170  0.38880  0.98000  Biso   1.000  C
  C103     1.0000 0.72170  0.11120  0.02000  Biso   1.000  C
  C104     1.0000 0.27830  0.88880  0.02000  Biso   1.000  C
  H61      1.0000 0.76880  0.56870  0.98040  Biso   1.000  H
  H62      1.0000 0.23120  0.43130  0.98040  Biso   1.000  H
  H63      1.0000 0.73120  0.06870  0.01960  Biso   1.000  H
  H64      1.0000 0.26880  0.93130  0.01960  Biso   1.000  H
  O41      1.0000 0.76090  0.47040  0.78610  Biso   1.000  O
  O42      1.0000 0.23910  0.52960  0.78610  Biso   1.000  O
  O43      1.0000 0.73910  0.97040  0.21390  Biso   1.000  O
  O44      1.0000 0.26090  0.02960  0.21390  Biso   1.000  O
  H65      1.0000 0.73500  0.45700  0.87500  Biso   1.000  H
  H66      1.0000 0.26500  0.54300  0.87500  Biso   1.000  H
  H67      1.0000 0.76500  0.95700  0.12500  Biso   1.000  H
  H68      1.0000 0.23500  0.04300  0.12500  Biso   1.000  H
  H69      1.0000 0.73700  0.48600  0.69700  Biso   1.000  H
  H70      1.0000 0.26300  0.51400  0.69700  Biso   1.000  H
  H71      1.0000 0.76300  0.98600  0.30300  Biso   1.000  H
  H72      1.0000 0.23700  0.01400  0.30300  Biso   1.000  H
  O45      1.0000 0.76940  0.49780  0.27800  Biso   1.000  O
  O46      1.0000 0.23060  0.50220  0.27800  Biso   1.000  O
  O47      1.0000 0.73060  0.99780  0.72200  Biso   1.000  O
  O48      1.0000 0.26940  0.00220  0.72200  Biso   1.000  O
  H73      1.0000 0.74200  0.51100  0.35900  Biso   1.000  H
  H74      1.0000 0.25800  0.48900  0.35900  Biso   1.000  H
  H75      1.0000 0.75800  0.01100  0.64100  Biso   1.000  H
  H76      1.0000 0.24200  0.98900  0.64100  Biso   1.000  H
  H77      1.0000 0.75400  0.48700  0.17200  Biso   1.000  H
  H78      1.0000 0.24600  0.51300  0.17200  Biso   1.000  H
  H79      1.0000 0.74600  0.98700  0.82800  Biso   1.000  H
  H80      1.0000 0.25400  0.01300  0.82800  Biso   1.000  H
  O49      1.0000 0.89520  0.49570  0.71100  Biso   1.000  O
  O50      1.0000 0.10480  0.50430  0.71100  Biso   1.000  O
  O51      1.0000 0.60480  0.99570  0.28900  Biso   1.000  O
  O52      1.0000 0.39520  0.00430  0.28900  Biso   1.000  O
  H81      1.0000 0.89600  0.47800  0.60600  Biso   1.000  H
  H82      1.0000 0.10400  0.52200  0.60600  Biso   1.000  H
  H83      1.0000 0.60400  0.97800  0.39400  Biso   1.000  H
  H84      1.0000 0.39600  0.02200  0.39400  Biso   1.000  H
  H85      1.0000 0.86200  0.48900  0.78300  Biso   1.000  H
  H86      1.0000 0.13800  0.51100  0.78300  Biso   1.000  H
  H87      1.0000 0.63800  0.98900  0.21700  Biso   1.000  H
  H88      1.0000 0.36200  0.01100  0.21700  Biso   1.000  H
  O53      1.0000 0.90270  0.46420  0.33800  Biso   1.000  O
  O54      1.0000 0.09730  0.53580  0.33800  Biso   1.000  O
  O55      1.0000 0.59730  0.96420  0.66200  Biso   1.000  O
  O56      1.0000 0.40270  0.03580  0.66200  Biso   1.000  O
  H89      1.0000 0.86600  0.47000  0.27400  Biso   1.000  H
  H90      1.0000 0.13400  0.53000  0.27400  Biso   1.000  H
  H91      1.0000 0.63400  0.97000  0.72600  Biso   1.000  H
  H92      1.0000 0.36600  0.03000  0.72600  Biso   1.000  H
  H93      1.0000 0.93800  0.47200  0.27000  Biso   1.000  H
  H94      1.0000 0.06200  0.52800  0.27000  Biso   1.000  H
  H95      1.0000 0.56200  0.97200  0.73000  Biso   1.000  H
  H96      1.0000 0.43800  0.02800  0.73000  Biso   1.000  H
  O57      1.0000 0.00000  0.50000  0.97700  Biso   1.000  O
  O58      1.0000 0.50000  0.00000  0.02300  Biso   1.000  O
  H97      1.0000 0.96500  0.50300  0.90100  Biso   1.000  H
  H98      1.0000 0.03500  0.49700  0.90100  Biso   1.000  H
  H99      1.0000 0.53500  0.00300  0.09900  Biso   1.000  H
  H100     1.0000 0.46500  0.99700  0.09900  Biso   1.000  H
