data_image0
_cell_length_a       9.0681
_cell_length_b       14.0159
_cell_length_c       15.113
_cell_angle_alpha    90
_cell_angle_beta     92.426
_cell_angle_gamma    90

_symmetry_space_group_name_H-M    "P 1"
_symmetry_int_tables_number       1

loop_
  _symmetry_equiv_pos_as_xyz
  'x, y, z'

loop_
  _atom_site_label
  _atom_site_occupancy
  _atom_site_fract_x
  _atom_site_fract_y
  _atom_site_fract_z
  _atom_site_thermal_displace_type
  _atom_site_B_iso_or_equiv
  _atom_site_type_symbol
  Cu1      1.0000 0.50000  0.00000  0.50000  Biso   1.000  Cu
  Cu2      1.0000 0.50000  0.50000  0.00000  Biso   1.000  Cu
  N1       1.0000 0.47560  0.34240  0.85792  Biso   1.000  N
  N2       1.0000 0.52440  0.84240  0.64208  Biso   1.000  N
  N3       1.0000 0.52440  0.65760  0.14208  Biso   1.000  N
  N4       1.0000 0.47560  0.15760  0.35792  Biso   1.000  N
  N5       1.0000 0.40087  0.39375  0.91602  Biso   1.000  N
  N6       1.0000 0.59913  0.89375  0.58398  Biso   1.000  N
  N7       1.0000 0.59913  0.60625  0.08398  Biso   1.000  N
  N8       1.0000 0.40087  0.10625  0.41602  Biso   1.000  N
  N9       1.0000 0.26160  0.36667  0.91556  Biso   1.000  N
  N10      1.0000 0.73840  0.86667  0.58444  Biso   1.000  N
  N11      1.0000 0.73840  0.63333  0.08444  Biso   1.000  N
  N12      1.0000 0.26160  0.13333  0.41556  Biso   1.000  N
  N13      1.0000 0.24130  0.29719  0.85580  Biso   1.000  N
  N14      1.0000 0.75870  0.79719  0.64420  Biso   1.000  N
  N15      1.0000 0.75870  0.70281  0.14420  Biso   1.000  N
  N16      1.0000 0.24130  0.20281  0.35580  Biso   1.000  N
  C1       1.0000 0.37360  0.28399  0.82171  Biso   1.000  C
  C2       1.0000 0.62640  0.78399  0.67829  Biso   1.000  C
  C3       1.0000 0.62640  0.71601  0.17829  Biso   1.000  C
  C4       1.0000 0.37360  0.21601  0.32171  Biso   1.000  C
  C5       1.0000 0.40260  0.21383  0.75288  Biso   1.000  C
  C6       1.0000 0.59740  0.71383  0.74712  Biso   1.000  C
  C7       1.0000 0.59740  0.78617  0.24712  Biso   1.000  C
  C8       1.0000 0.40260  0.28617  0.25288  Biso   1.000  C
  C9       1.0000 0.28750  0.17756  0.69844  Biso   1.000  C
  C10      1.0000 0.71250  0.67756  0.80156  Biso   1.000  C
  C11      1.0000 0.71250  0.82244  0.30156  Biso   1.000  C
  C12      1.0000 0.28750  0.32244  0.19844  Biso   1.000  C
  H1       1.0000 0.19040  0.19540  0.70730  Biso   1.000  H
  H2       1.0000 0.80960  0.69540  0.79270  Biso   1.000  H
  H3       1.0000 0.80960  0.80460  0.29270  Biso   1.000  H
  H4       1.0000 0.19040  0.30460  0.20730  Biso   1.000  H
  C13      1.0000 0.31930  0.11511  0.63140  Biso   1.000  C
  C14      1.0000 0.68070  0.61511  0.86860  Biso   1.000  C
  C15      1.0000 0.68070  0.88489  0.36860  Biso   1.000  C
  C16      1.0000 0.31930  0.38489  0.13140  Biso   1.000  C
  H5       1.0000 0.24160  0.09200  0.59540  Biso   1.000  H
  H6       1.0000 0.75840  0.59200  0.90460  Biso   1.000  H
  H7       1.0000 0.75840  0.90800  0.40460  Biso   1.000  H
  H8       1.0000 0.24160  0.40800  0.09540  Biso   1.000  H
  N17      1.0000 0.45670  0.08585  0.61532  Biso   1.000  N
  N18      1.0000 0.54330  0.58585  0.88468  Biso   1.000  N
  N19      1.0000 0.54330  0.91415  0.38468  Biso   1.000  N
  N20      1.0000 0.45670  0.41415  0.11532  Biso   1.000  N
  C17      1.0000 0.56670  0.11795  0.66987  Biso   1.000  C
  C18      1.0000 0.43330  0.61795  0.83013  Biso   1.000  C
  C19      1.0000 0.43330  0.88205  0.33013  Biso   1.000  C
  C20      1.0000 0.56670  0.38205  0.16987  Biso   1.000  C
  H9       1.0000 0.66210  0.09640  0.66130  Biso   1.000  H
  H10      1.0000 0.33790  0.59640  0.83870  Biso   1.000  H
  H11      1.0000 0.33790  0.90360  0.33870  Biso   1.000  H
  H12      1.0000 0.66210  0.40360  0.16130  Biso   1.000  H
  C21      1.0000 0.54480  0.18137  0.73801  Biso   1.000  C
  C22      1.0000 0.45520  0.68137  0.76199  Biso   1.000  C
  C23      1.0000 0.45520  0.81863  0.26199  Biso   1.000  C
  C24      1.0000 0.54480  0.31863  0.23801  Biso   1.000  C
  H13      1.0000 0.62430  0.20230  0.77370  Biso   1.000  H
  H14      1.0000 0.37570  0.70230  0.72630  Biso   1.000  H
  H15      1.0000 0.37570  0.79770  0.22630  Biso   1.000  H
  H16      1.0000 0.62430  0.29770  0.27370  Biso   1.000  H
  S1       1.0000 0.22330  0.84256  0.53256  Biso   1.000  S
  S2       1.0000 0.77670  0.34256  0.96744  Biso   1.000  S
  S3       1.0000 0.77670  0.15744  0.46744  Biso   1.000  S
  S4       1.0000 0.22330  0.65744  0.03256  Biso   1.000  S
  O1       1.0000 0.28215  0.93875  0.50874  Biso   1.000  O
  O2       1.0000 0.71785  0.43875  0.99126  Biso   1.000  O
  O3       1.0000 0.71785  0.06125  0.49126  Biso   1.000  O
  O4       1.0000 0.28215  0.56125  0.00874  Biso   1.000  O
  C25      1.0000 0.14450  0.85560  0.63697  Biso   1.000  C
  C26      1.0000 0.85550  0.35560  0.86303  Biso   1.000  C
  C27      1.0000 0.85550  0.14440  0.36303  Biso   1.000  C
  C28      1.0000 0.14450  0.64440  0.13697  Biso   1.000  C
  H17      1.0000 0.22160  0.86310  0.68200  Biso   1.000  H
  H18      1.0000 0.77840  0.36310  0.81800  Biso   1.000  H
  H19      1.0000 0.77840  0.13690  0.31800  Biso   1.000  H
  H20      1.0000 0.22160  0.63690  0.18200  Biso   1.000  H
  H21      1.0000 0.08720  0.79990  0.64940  Biso   1.000  H
  H22      1.0000 0.91280  0.29990  0.85060  Biso   1.000  H
  H23      1.0000 0.91280  0.20010  0.35060  Biso   1.000  H
  H24      1.0000 0.08720  0.70010  0.14940  Biso   1.000  H
  H25      1.0000 0.08180  0.91080  0.63620  Biso   1.000  H
  H26      1.0000 0.91820  0.41080  0.86380  Biso   1.000  H
  H27      1.0000 0.91820  0.08920  0.36380  Biso   1.000  H
  H28      1.0000 0.08180  0.58920  0.13620  Biso   1.000  H
  C29      1.0000 0.05770  0.83060  0.46580  Biso   1.000  C
  C30      1.0000 0.94230  0.33060  0.03420  Biso   1.000  C
  C31      1.0000 0.94230  0.16940  0.53420  Biso   1.000  C
  C32      1.0000 0.05770  0.66940  0.96580  Biso   1.000  C
  H29      1.0000 0.08170  0.82260  0.40500  Biso   1.000  H
  H30      1.0000 0.91830  0.32260  0.09500  Biso   1.000  H
  H31      1.0000 0.91830  0.17740  0.59500  Biso   1.000  H
  H32      1.0000 0.08170  0.67740  0.90500  Biso   1.000  H
  H33      1.0000 0.99840  0.88680  0.47160  Biso   1.000  H
  H34      1.0000 0.00160  0.38680  0.02840  Biso   1.000  H
  H35      1.0000 0.00160  0.11320  0.52840  Biso   1.000  H
  H36      1.0000 0.99840  0.61320  0.97160  Biso   1.000  H
  H37      1.0000 0.00380  0.77590  0.48490  Biso   1.000  H
  H38      1.0000 0.99620  0.27590  0.01510  Biso   1.000  H
  H39      1.0000 0.99620  0.22410  0.51510  Biso   1.000  H
  H40      1.0000 0.00380  0.72410  0.98490  Biso   1.000  H
  S5       1.0000 0.36170  0.87671  0.92098  Biso   1.000  S
  S6       1.0000 0.63830  0.37671  0.57902  Biso   1.000  S
  S7       1.0000 0.63830  0.12329  0.07902  Biso   1.000  S
  S8       1.0000 0.36170  0.62329  0.42098  Biso   1.000  S
  O5       1.0000 0.29180  0.93470  0.99025  Biso   1.000  O
  O6       1.0000 0.70820  0.43470  0.50975  Biso   1.000  O
  O7       1.0000 0.70820  0.06530  0.00975  Biso   1.000  O
  O8       1.0000 0.29180  0.56530  0.49025  Biso   1.000  O
  C33      1.0000 0.42970  0.96000  0.84330  Biso   1.000  C
  C34      1.0000 0.57030  0.46000  0.65670  Biso   1.000  C
  C35      1.0000 0.57030  0.04000  0.15670  Biso   1.000  C
  C36      1.0000 0.42970  0.54000  0.34330  Biso   1.000  C
  H41      1.0000 0.34860  0.99490  0.81620  Biso   1.000  H
  H42      1.0000 0.65140  0.49490  0.68380  Biso   1.000  H
  H43      1.0000 0.65140  0.00510  0.18380  Biso   1.000  H
  H44      1.0000 0.34860  0.50510  0.31620  Biso   1.000  H
  H45      1.0000 0.48070  0.92630  0.79840  Biso   1.000  H
  H46      1.0000 0.51930  0.42630  0.70160  Biso   1.000  H
  H47      1.0000 0.51930  0.07370  0.20160  Biso   1.000  H
  H48      1.0000 0.48070  0.57370  0.29840  Biso   1.000  H
  H49      1.0000 0.49640  0.00360  0.87330  Biso   1.000  H
  H50      1.0000 0.50360  0.50360  0.62670  Biso   1.000  H
  H51      1.0000 0.50360  0.99640  0.12670  Biso   1.000  H
  H52      1.0000 0.49640  0.49640  0.37330  Biso   1.000  H
  C37      1.0000 0.53370  0.83780  0.96740  Biso   1.000  C
  C38      1.0000 0.46630  0.33780  0.53260  Biso   1.000  C
  C39      1.0000 0.46630  0.16220  0.03260  Biso   1.000  C
  C40      1.0000 0.53370  0.66220  0.46740  Biso   1.000  C
  H53      1.0000 0.58960  0.89190  0.98860  Biso   1.000  H
  H54      1.0000 0.41040  0.39190  0.51140  Biso   1.000  H
  H55      1.0000 0.41040  0.10810  0.01140  Biso   1.000  H
  H56      1.0000 0.58960  0.60810  0.48860  Biso   1.000  H
  H57      1.0000 0.58730  0.80520  0.92300  Biso   1.000  H
  H58      1.0000 0.41270  0.30520  0.57700  Biso   1.000  H
  H59      1.0000 0.41270  0.19480  0.07700  Biso   1.000  H
  H60      1.0000 0.58730  0.69480  0.42300  Biso   1.000  H
  H61      1.0000 0.51750  0.79520  0.01580  Biso   1.000  H
  H62      1.0000 0.48250  0.29520  0.48420  Biso   1.000  H
  H63      1.0000 0.48250  0.20480  0.98420  Biso   1.000  H
  H64      1.0000 0.51750  0.70480  0.51580  Biso   1.000  H
  S9       1.0000 0.99709  0.04846  0.79898  Biso   1.000  S
  S10      1.0000 0.00291  0.54846  0.70102  Biso   1.000  S
  S11      1.0000 0.00291  0.95154  0.20102  Biso   1.000  S
  S12      1.0000 0.99709  0.45154  0.29898  Biso   1.000  S
  O9       1.0000 0.90410  0.12180  0.75259  Biso   1.000  O
  O10      1.0000 0.09590  0.62180  0.74741  Biso   1.000  O
  O11      1.0000 0.09590  0.87820  0.24741  Biso   1.000  O
  O12      1.0000 0.90410  0.37820  0.25259  Biso   1.000  O
  C41      1.0000 0.87860  0.95330  0.83030  Biso   1.000  C
  C42      1.0000 0.12140  0.45330  0.66970  Biso   1.000  C
  C43      1.0000 0.12140  0.04670  0.16970  Biso   1.000  C
  C44      1.0000 0.87860  0.54670  0.33030  Biso   1.000  C
  H65      1.0000 0.80260  0.97810  0.86620  Biso   1.000  H
  H66      1.0000 0.19740  0.47810  0.63380  Biso   1.000  H
  H67      1.0000 0.19740  0.02190  0.13380  Biso   1.000  H
  H68      1.0000 0.80260  0.52190  0.36620  Biso   1.000  H
  H69      1.0000 0.93520  0.90650  0.86340  Biso   1.000  H
  H70      1.0000 0.06480  0.40650  0.63660  Biso   1.000  H
  H71      1.0000 0.06480  0.09350  0.13660  Biso   1.000  H
  H72      1.0000 0.93520  0.59350  0.36340  Biso   1.000  H
  H73      1.0000 0.83430  0.92430  0.77810  Biso   1.000  H
  H74      1.0000 0.16570  0.42430  0.72190  Biso   1.000  H
  H75      1.0000 0.16570  0.07570  0.22190  Biso   1.000  H
  H76      1.0000 0.83430  0.57570  0.27810  Biso   1.000  H
  C45      1.0000 0.03660  0.09280  0.90670  Biso   1.000  C
  C46      1.0000 0.96340  0.59280  0.59330  Biso   1.000  C
  C47      1.0000 0.96340  0.90720  0.09330  Biso   1.000  C
  C48      1.0000 0.03660  0.40720  0.40670  Biso   1.000  C
  H77      1.0000 0.08840  0.15230  0.90300  Biso   1.000  H
  H78      1.0000 0.91160  0.65230  0.59700  Biso   1.000  H
  H79      1.0000 0.91160  0.84770  0.09700  Biso   1.000  H
  H80      1.0000 0.08840  0.34770  0.40300  Biso   1.000  H
  H81      1.0000 0.09680  0.04770  0.93950  Biso   1.000  H
  H82      1.0000 0.90320  0.54770  0.56050  Biso   1.000  H
  H83      1.0000 0.90320  0.95230  0.06050  Biso   1.000  H
  H84      1.0000 0.09680  0.45230  0.43950  Biso   1.000  H
  H85      1.0000 0.94610  0.10260  0.93610  Biso   1.000  H
  H86      1.0000 0.05390  0.60260  0.56390  Biso   1.000  H
  H87      1.0000 0.05390  0.89740  0.06390  Biso   1.000  H
  H88      1.0000 0.94610  0.39740  0.43610  Biso   1.000  H
  H89      1.0000 0.19160  0.89630  0.68080  Biso   1.000  H
  H90      1.0000 0.80840  0.39630  0.81920  Biso   1.000  H
  H91      1.0000 0.80840  0.10370  0.31920  Biso   1.000  H
  H92      1.0000 0.19160  0.60370  0.18080  Biso   1.000  H
  H93      1.0000 0.19790  0.79660  0.63390  Biso   1.000  H
  H94      1.0000 0.80210  0.29660  0.86610  Biso   1.000  H
  H95      1.0000 0.80210  0.20340  0.36610  Biso   1.000  H
  H96      1.0000 0.19790  0.70340  0.13390  Biso   1.000  H
  H97      1.0000 0.04500  0.84290  0.65290  Biso   1.000  H
  H98      1.0000 0.95500  0.34290  0.84710  Biso   1.000  H
  H99      1.0000 0.95500  0.15710  0.34710  Biso   1.000  H
  H100     1.0000 0.04500  0.65710  0.15290  Biso   1.000  H
  H101     1.0000 0.04990  0.85350  0.40590  Biso   1.000  H
  H102     1.0000 0.95010  0.35350  0.09410  Biso   1.000  H
  H103     1.0000 0.95010  0.14650  0.59410  Biso   1.000  H
  H104     1.0000 0.04990  0.64650  0.90590  Biso   1.000  H
  H105     1.0000 0.96080  0.81840  0.48640  Biso   1.000  H
  H106     1.0000 0.03920  0.31840  0.01360  Biso   1.000  H
  H107     1.0000 0.03920  0.18160  0.51360  Biso   1.000  H
  H108     1.0000 0.96080  0.68160  0.98640  Biso   1.000  H
  H109     1.0000 0.11420  0.77260  0.46790  Biso   1.000  H
  H110     1.0000 0.88580  0.27260  0.03210  Biso   1.000  H
  H111     1.0000 0.88580  0.22740  0.53210  Biso   1.000  H
  H112     1.0000 0.11420  0.72740  0.96790  Biso   1.000  H
  S13      1.0000 0.14250  0.91350  0.53110  Biso   1.000  S
  S14      1.0000 0.85750  0.41350  0.96890  Biso   1.000  S
  S15      1.0000 0.85750  0.08650  0.46890  Biso   1.000  S
  S16      1.0000 0.14250  0.58650  0.03110  Biso   1.000  S
