data_image0
_cell_length_a       5.624
_cell_length_b       17.691
_cell_length_c       11.076
_cell_angle_alpha    90
_cell_angle_beta     103.621
_cell_angle_gamma    90

_symmetry_space_group_name_H-M    "P 1"
_symmetry_int_tables_number       1

loop_
  _symmetry_equiv_pos_as_xyz
  'x, y, z'

loop_
  _atom_site_label
  _atom_site_occupancy
  _atom_site_fract_x
  _atom_site_fract_y
  _atom_site_fract_z
  _atom_site_thermal_displace_type
  _atom_site_B_iso_or_equiv
  _atom_site_type_symbol
  Cu1      1.0000 0.27766  0.47242  0.33138  Biso   1.000  Cu
  Cu2      1.0000 0.22234  0.97242  0.16862  Biso   1.000  Cu
  Cu3      1.0000 0.72234  0.52758  0.66862  Biso   1.000  Cu
  Cu4      1.0000 0.77766  0.02758  0.83138  Biso   1.000  Cu
  N1       1.0000 0.53860  0.41268  0.29760  Biso   1.000  N
  N2       1.0000 0.96140  0.91268  0.20240  Biso   1.000  N
  N3       1.0000 0.46140  0.58732  0.70240  Biso   1.000  N
  N4       1.0000 0.03860  0.08732  0.79760  Biso   1.000  N
  N5       1.0000 0.02610  0.53600  0.36930  Biso   1.000  N
  N6       1.0000 0.47390  0.03600  0.13070  Biso   1.000  N
  N7       1.0000 0.97390  0.46400  0.63070  Biso   1.000  N
  N8       1.0000 0.52610  0.96400  0.86930  Biso   1.000  N
  N9       1.0000 0.12620  0.58410  0.14260  Biso   1.000  N
  N10      1.0000 0.37380  0.08410  0.35740  Biso   1.000  N
  N11      1.0000 0.87380  0.41590  0.85740  Biso   1.000  N
  N12      1.0000 0.62620  0.91590  0.64260  Biso   1.000  N
  C1       1.0000 0.20030  0.65670  0.15970  Biso   1.000  C
  C2       1.0000 0.29970  0.15670  0.34030  Biso   1.000  C
  C3       1.0000 0.79970  0.34330  0.84030  Biso   1.000  C
  C4       1.0000 0.70030  0.84330  0.65970  Biso   1.000  C
  H1       1.0000 0.35860  0.66780  0.20370  Biso   1.000  H
  H2       1.0000 0.14140  0.16780  0.29630  Biso   1.000  H
  H3       1.0000 0.64140  0.33220  0.79630  Biso   1.000  H
  H4       1.0000 0.85860  0.83220  0.70370  Biso   1.000  H
  C5       1.0000 0.04350  0.71340  0.11250  Biso   1.000  C
  C6       1.0000 0.45650  0.21340  0.38750  Biso   1.000  C
  C7       1.0000 0.95650  0.28660  0.88750  Biso   1.000  C
  C8       1.0000 0.54350  0.78660  0.61250  Biso   1.000  C
  H5       1.0000 0.09680  0.76320  0.12410  Biso   1.000  H
  H6       1.0000 0.40320  0.26320  0.37590  Biso   1.000  H
  H7       1.0000 0.90320  0.23680  0.87590  Biso   1.000  H
  H8       1.0000 0.59680  0.73680  0.62410  Biso   1.000  H
  C9       1.0000 0.80450  0.69860  0.04710  Biso   1.000  C
  C10      1.0000 0.69550  0.19860  0.45290  Biso   1.000  C
  C11      1.0000 0.19550  0.30140  0.95290  Biso   1.000  C
  C12      1.0000 0.30450  0.80140  0.54710  Biso   1.000  C
  C13      1.0000 0.63600  0.75960  0.98710  Biso   1.000  C
  C14      1.0000 0.86400  0.25960  0.51290  Biso   1.000  C
  C15      1.0000 0.36400  0.24040  0.01290  Biso   1.000  C
  C16      1.0000 0.13600  0.74040  0.48710  Biso   1.000  C
  H9       1.0000 0.49530  0.73760  0.93210  Biso   1.000  H
  H10      1.0000 0.00470  0.23760  0.56790  Biso   1.000  H
  H11      1.0000 0.50470  0.26240  0.06790  Biso   1.000  H
  H12      1.0000 0.99530  0.76240  0.43210  Biso   1.000  H
  H13      1.0000 0.71880  0.79190  0.94070  Biso   1.000  H
  H14      1.0000 0.78120  0.29190  0.55930  Biso   1.000  H
  H15      1.0000 0.28120  0.20810  0.05930  Biso   1.000  H
  H16      1.0000 0.21880  0.70810  0.44070  Biso   1.000  H
  H17      1.0000 0.58500  0.78860  0.04970  Biso   1.000  H
  H18      1.0000 0.91500  0.28860  0.45030  Biso   1.000  H
  H19      1.0000 0.41500  0.21140  0.95030  Biso   1.000  H
  H20      1.0000 0.08500  0.71140  0.54970  Biso   1.000  H
  C17      1.0000 0.73390  0.62400  0.03680  Biso   1.000  C
  C18      1.0000 0.76610  0.12400  0.46320  Biso   1.000  C
  C19      1.0000 0.26610  0.37600  0.96320  Biso   1.000  C
  C20      1.0000 0.23390  0.87600  0.53680  Biso   1.000  C
  H21      1.0000 0.57410  0.61170  0.99650  Biso   1.000  H
  H22      1.0000 0.92590  0.11170  0.50350  Biso   1.000  H
  H23      1.0000 0.42590  0.38830  0.00350  Biso   1.000  H
  H24      1.0000 0.07410  0.88830  0.49650  Biso   1.000  H
  C21      1.0000 0.89490  0.56740  0.08490  Biso   1.000  C
  C22      1.0000 0.60510  0.06740  0.41510  Biso   1.000  C
  C23      1.0000 0.10510  0.43260  0.91510  Biso   1.000  C
  C24      1.0000 0.39490  0.93260  0.58490  Biso   1.000  C
  H25      1.0000 0.84350  0.51730  0.07760  Biso   1.000  H
  H26      1.0000 0.65650  0.01730  0.42240  Biso   1.000  H
  H27      1.0000 0.15650  0.48270  0.92240  Biso   1.000  H
  H28      1.0000 0.34350  0.98270  0.57760  Biso   1.000  H
  C25      1.0000 0.87270  0.55940  0.41140  Biso   1.000  C
  C26      1.0000 0.62730  0.05940  0.08860  Biso   1.000  C
  C27      1.0000 0.12730  0.44060  0.58860  Biso   1.000  C
  C28      1.0000 0.37270  0.94060  0.91140  Biso   1.000  C
  C29      1.0000 0.70000  0.39130  0.25850  Biso   1.000  C
  C30      1.0000 0.80000  0.89130  0.24150  Biso   1.000  C
  C31      1.0000 0.30000  0.60870  0.74150  Biso   1.000  C
  C32      1.0000 0.20000  0.10870  0.75850  Biso   1.000  C
  O1       1.0000 0.28970  0.52918  0.18020  Biso   1.000  O
  O2       1.0000 0.21030  0.02918  0.31980  Biso   1.000  O
  O3       1.0000 0.71030  0.47082  0.81980  Biso   1.000  O
  O4       1.0000 0.78970  0.97082  0.68020  Biso   1.000  O
  S1       1.0000 0.65327  0.59228  0.47218  Biso   1.000  S
  S2       1.0000 0.84673  0.09228  0.02782  Biso   1.000  S
  S3       1.0000 0.34673  0.40772  0.52782  Biso   1.000  S
  S4       1.0000 0.15327  0.90772  0.97218  Biso   1.000  S
  S5       1.0000 0.92710  0.36167  0.20373  Biso   1.000  S
  S6       1.0000 0.57290  0.86167  0.29627  Biso   1.000  S
  S7       1.0000 0.07290  0.63833  0.79627  Biso   1.000  S
  S8       1.0000 0.42710  0.13833  0.70373  Biso   1.000  S
