data_image0
_cell_length_a       6.598
_cell_length_b       14.198
_cell_length_c       8.586
_cell_angle_alpha    90
_cell_angle_beta     97.65
_cell_angle_gamma    90

_symmetry_space_group_name_H-M    "P 1"
_symmetry_int_tables_number       1

loop_
  _symmetry_equiv_pos_as_xyz
  'x, y, z'

loop_
  _atom_site_label
  _atom_site_occupancy
  _atom_site_fract_x
  _atom_site_fract_y
  _atom_site_fract_z
  _atom_site_thermal_displace_type
  _atom_site_B_iso_or_equiv
  _atom_site_type_symbol
  Cu1      1.0000 0.50000  0.50000  0.50000  Biso   1.000  Cu
  Cu2      1.0000 0.00000  0.00000  0.00000  Biso   1.000  Cu
  O1       1.0000 0.32570  0.61064  0.46320  Biso   1.000  O
  O2       1.0000 0.17430  0.11064  0.03680  Biso   1.000  O
  O3       1.0000 0.67430  0.38936  0.53680  Biso   1.000  O
  O4       1.0000 0.82570  0.88936  0.96320  Biso   1.000  O
  O5       1.0000 0.03320  0.65714  0.32510  Biso   1.000  O
  O6       1.0000 0.46680  0.15714  0.17490  Biso   1.000  O
  O7       1.0000 0.96680  0.34286  0.67490  Biso   1.000  O
  O8       1.0000 0.53320  0.84286  0.82510  Biso   1.000  O
  O9       1.0000 0.76070  0.56273  0.03870  Biso   1.000  O
  O10      1.0000 0.73930  0.06273  0.46130  Biso   1.000  O
  O11      1.0000 0.23930  0.43727  0.96130  Biso   1.000  O
  O12      1.0000 0.26070  0.93727  0.53870  Biso   1.000  O
  O13      1.0000 0.62820  0.54346  0.26060  Biso   1.000  O
  O14      1.0000 0.87180  0.04346  0.23940  Biso   1.000  O
  O15      1.0000 0.37180  0.45654  0.73940  Biso   1.000  O
  O16      1.0000 0.12820  0.95654  0.76060  Biso   1.000  O
  N1       1.0000 0.26780  0.43498  0.37050  Biso   1.000  N
  N2       1.0000 0.23220  0.93498  0.12950  Biso   1.000  N
  N3       1.0000 0.73220  0.56502  0.62950  Biso   1.000  N
  N4       1.0000 0.76780  0.06502  0.87050  Biso   1.000  N
  N5       1.0000 0.91210  0.37517  0.19310  Biso   1.000  N
  N6       1.0000 0.58790  0.87517  0.30690  Biso   1.000  N
  N7       1.0000 0.08790  0.62483  0.80690  Biso   1.000  N
  N8       1.0000 0.41210  0.12483  0.69310  Biso   1.000  N
  C1       1.0000 0.11810  0.49670  0.32130  Biso   1.000  C
  C2       1.0000 0.38190  0.99670  0.17870  Biso   1.000  C
  C3       1.0000 0.88190  0.50330  0.67870  Biso   1.000  C
  C4       1.0000 0.61810  0.00330  0.82130  Biso   1.000  C
  C5       1.0000 0.94020  0.46575  0.23240  Biso   1.000  C
  C6       1.0000 0.55980  0.96575  0.26760  Biso   1.000  C
  C7       1.0000 0.05980  0.53425  0.76760  Biso   1.000  C
  C8       1.0000 0.44020  0.03425  0.73240  Biso   1.000  C
  C9       1.0000 0.06270  0.31560  0.24220  Biso   1.000  C
  C10      1.0000 0.43730  0.81560  0.25780  Biso   1.000  C
  C11      1.0000 0.93730  0.68440  0.75780  Biso   1.000  C
  C12      1.0000 0.56270  0.18440  0.74220  Biso   1.000  C
  C13      1.0000 0.24200  0.34480  0.33170  Biso   1.000  C
  C14      1.0000 0.25800  0.84480  0.16830  Biso   1.000  C
  C15      1.0000 0.75800  0.65520  0.66830  Biso   1.000  C
  C16      1.0000 0.74200  0.15520  0.83170  Biso   1.000  C
  C17      1.0000 0.16090  0.59702  0.37220  Biso   1.000  C
  C18      1.0000 0.33910  0.09702  0.12780  Biso   1.000  C
  C19      1.0000 0.83910  0.40298  0.62780  Biso   1.000  C
  C20      1.0000 0.66090  0.90298  0.87220  Biso   1.000  C
  C21      1.0000 0.76050  0.53027  0.18030  Biso   1.000  C
  C22      1.0000 0.73950  0.03027  0.31970  Biso   1.000  C
  C23      1.0000 0.23950  0.46973  0.81970  Biso   1.000  C
  C24      1.0000 0.26050  0.96973  0.68030  Biso   1.000  C
  H1       1.0000 0.64600  0.61200  0.02400  Biso   1.000  H
  H2       1.0000 0.85400  0.11200  0.47600  Biso   1.000  H
  H3       1.0000 0.35400  0.38800  0.97600  Biso   1.000  H
  H4       1.0000 0.14600  0.88800  0.52400  Biso   1.000  H
  H5       1.0000 0.02900  0.25100  0.21300  Biso   1.000  H
  H6       1.0000 0.47100  0.75100  0.28700  Biso   1.000  H
  H7       1.0000 0.97100  0.74900  0.78700  Biso   1.000  H
  H8       1.0000 0.52900  0.24900  0.71300  Biso   1.000  H
  H9       1.0000 0.34700  0.30500  0.36200  Biso   1.000  H
  H10      1.0000 0.15300  0.80500  0.13800  Biso   1.000  H
  H11      1.0000 0.65300  0.69500  0.63800  Biso   1.000  H
  H12      1.0000 0.84700  0.19500  0.86200  Biso   1.000  H
  O17      1.0000 0.47570  0.67833  0.96580  Biso   1.000  O
  O18      1.0000 0.02430  0.17833  0.53420  Biso   1.000  O
  O19      1.0000 0.52430  0.32167  0.03420  Biso   1.000  O
  O20      1.0000 0.97570  0.82167  0.46580  Biso   1.000  O
  H13      1.0000 0.49600  0.71600  0.92700  Biso   1.000  H
  H14      1.0000 0.00400  0.21600  0.57300  Biso   1.000  H
  H15      1.0000 0.50400  0.28400  0.07300  Biso   1.000  H
  H16      1.0000 0.99600  0.78400  0.42700  Biso   1.000  H
  H17      1.0000 0.35400  0.65900  0.90800  Biso   1.000  H
  H18      1.0000 0.14600  0.15900  0.59200  Biso   1.000  H
  H19      1.0000 0.64600  0.34100  0.09200  Biso   1.000  H
  H20      1.0000 0.85400  0.84100  0.40800  Biso   1.000  H
