data_image0
_cell_length_a       6.616
_cell_length_b       14.256
_cell_length_c       8.607
_cell_angle_alpha    90
_cell_angle_beta     97.65
_cell_angle_gamma    90

_symmetry_space_group_name_H-M    "P 1"
_symmetry_int_tables_number       1

loop_
  _symmetry_equiv_pos_as_xyz
  'x, y, z'

loop_
  _atom_site_label
  _atom_site_occupancy
  _atom_site_fract_x
  _atom_site_fract_y
  _atom_site_fract_z
  _atom_site_thermal_displace_type
  _atom_site_B_iso_or_equiv
  _atom_site_type_symbol
  Cu1      1.0000 0.00000  0.00000  0.00000  Biso   1.000  Cu
  Cu2      1.0000 0.50000  0.50000  0.50000  Biso   1.000  Cu
  N1       1.0000 0.23240  0.06490  0.12910  Biso   1.000  N
  N2       1.0000 0.26760  0.56490  0.37090  Biso   1.000  N
  N3       1.0000 0.76760  0.93510  0.87090  Biso   1.000  N
  N4       1.0000 0.73240  0.43510  0.62910  Biso   1.000  N
  N5       1.0000 0.58860  0.12440  0.30760  Biso   1.000  N
  N6       1.0000 0.91140  0.62440  0.19240  Biso   1.000  N
  N7       1.0000 0.41140  0.87560  0.69240  Biso   1.000  N
  N8       1.0000 0.08860  0.37560  0.80760  Biso   1.000  N
  C1       1.0000 0.38190  0.00390  0.17810  Biso   1.000  C
  C2       1.0000 0.11810  0.50390  0.32190  Biso   1.000  C
  C3       1.0000 0.61810  0.99610  0.82190  Biso   1.000  C
  C4       1.0000 0.88190  0.49610  0.67810  Biso   1.000  C
  C5       1.0000 0.56080  0.03370  0.26780  Biso   1.000  C
  C6       1.0000 0.93920  0.53370  0.23220  Biso   1.000  C
  C7       1.0000 0.43920  0.96630  0.73220  Biso   1.000  C
  C8       1.0000 0.06080  0.46630  0.76780  Biso   1.000  C
  C9       1.0000 0.43830  0.18470  0.25790  Biso   1.000  C
  C10      1.0000 0.06170  0.68470  0.24210  Biso   1.000  C
  C11      1.0000 0.56170  0.81530  0.74210  Biso   1.000  C
  C12      1.0000 0.93830  0.31530  0.75790  Biso   1.000  C
  C13      1.0000 0.25830  0.15510  0.16820  Biso   1.000  C
  C14      1.0000 0.24170  0.65510  0.33180  Biso   1.000  C
  C15      1.0000 0.74170  0.84490  0.83180  Biso   1.000  C
  C16      1.0000 0.75830  0.34490  0.66820  Biso   1.000  C
  C17      1.0000 0.33910  0.90270  0.12760  Biso   1.000  C
  C18      1.0000 0.16090  0.40270  0.37240  Biso   1.000  C
  C19      1.0000 0.66090  0.09730  0.87240  Biso   1.000  C
  C20      1.0000 0.83910  0.59730  0.62760  Biso   1.000  C
  C21      1.0000 0.73950  0.96920  0.32110  Biso   1.000  C
  C22      1.0000 0.76050  0.46920  0.17890  Biso   1.000  C
  C23      1.0000 0.26050  0.03080  0.67890  Biso   1.000  C
  C24      1.0000 0.23950  0.53080  0.82110  Biso   1.000  C
  O1       1.0000 0.17390  0.88900  0.03720  Biso   1.000  O
  O2       1.0000 0.32610  0.38900  0.46280  Biso   1.000  O
  O3       1.0000 0.82610  0.11100  0.96280  Biso   1.000  O
  O4       1.0000 0.67390  0.61100  0.53720  Biso   1.000  O
  O5       1.0000 0.46710  0.84320  0.17560  Biso   1.000  O
  O6       1.0000 0.03290  0.34320  0.32440  Biso   1.000  O
  O7       1.0000 0.53290  0.15680  0.82440  Biso   1.000  O
  O8       1.0000 0.96710  0.65680  0.67560  Biso   1.000  O
  O9       1.0000 0.87130  0.95610  0.23940  Biso   1.000  O
  O10      1.0000 0.62870  0.45610  0.26060  Biso   1.000  O
  O11      1.0000 0.12870  0.04390  0.76060  Biso   1.000  O
  O12      1.0000 0.37130  0.54390  0.73940  Biso   1.000  O
  O13      1.0000 0.73790  0.93700  0.46090  Biso   1.000  O
  O14      1.0000 0.76210  0.43700  0.03910  Biso   1.000  O
  O15      1.0000 0.26210  0.06300  0.53910  Biso   1.000  O
  O16      1.0000 0.23790  0.56300  0.96090  Biso   1.000  O
  O17      1.0000 0.02380  0.82100  0.53440  Biso   1.000  O
  O18      1.0000 0.47620  0.32100  0.96560  Biso   1.000  O
  O19      1.0000 0.97620  0.17900  0.46560  Biso   1.000  O
  O20      1.0000 0.52380  0.67900  0.03440  Biso   1.000  O
  H1       1.0000 0.12000  0.83400  0.57400  Biso   1.000  H
  H2       1.0000 0.38000  0.33400  0.92600  Biso   1.000  H
  H3       1.0000 0.88000  0.16600  0.42600  Biso   1.000  H
  H4       1.0000 0.62000  0.66600  0.07400  Biso   1.000  H
  H5       1.0000 0.97000  0.78300  0.57300  Biso   1.000  H
  H6       1.0000 0.53000  0.28300  0.92700  Biso   1.000  H
  H7       1.0000 0.03000  0.21700  0.42700  Biso   1.000  H
  H8       1.0000 0.47000  0.71700  0.07300  Biso   1.000  H
  H9       1.0000 0.47000  0.24600  0.29200  Biso   1.000  H
  H10      1.0000 0.03000  0.74600  0.20800  Biso   1.000  H
  H11      1.0000 0.53000  0.75400  0.70800  Biso   1.000  H
  H12      1.0000 0.97000  0.25400  0.79200  Biso   1.000  H
  H13      1.0000 0.16000  0.19600  0.13300  Biso   1.000  H
  H14      1.0000 0.34000  0.69600  0.36700  Biso   1.000  H
  H15      1.0000 0.84000  0.80400  0.86700  Biso   1.000  H
  H16      1.0000 0.66000  0.30400  0.63300  Biso   1.000  H
  H17      1.0000 0.82000  0.88700  0.47600  Biso   1.000  H
  H18      1.0000 0.68000  0.38700  0.02400  Biso   1.000  H
  H19      1.0000 0.18000  0.11300  0.52400  Biso   1.000  H
  H20      1.0000 0.32000  0.61300  0.97600  Biso   1.000  H
