data_image0
_cell_length_a       6.6163
_cell_length_b       14.174
_cell_length_c       8.5821
_cell_angle_alpha    90
_cell_angle_beta     97.62
_cell_angle_gamma    90

_symmetry_space_group_name_H-M    "P 1"
_symmetry_int_tables_number       1

loop_
  _symmetry_equiv_pos_as_xyz
  'x, y, z'

loop_
  _atom_site_label
  _atom_site_occupancy
  _atom_site_fract_x
  _atom_site_fract_y
  _atom_site_fract_z
  _atom_site_thermal_displace_type
  _atom_site_B_iso_or_equiv
  _atom_site_type_symbol
  Cu1      1.0000 0.50000  0.50000  0.50000  Biso   1.000  Cu
  Cu2      1.0000 0.00000  0.00000  0.00000  Biso   1.000  Cu
  O1       1.0000 0.47540  0.32170  0.96660  Biso   1.000  O
  O2       1.0000 0.02460  0.82170  0.53340  Biso   1.000  O
  O3       1.0000 0.52460  0.67830  0.03340  Biso   1.000  O
  O4       1.0000 0.97540  0.17830  0.46660  Biso   1.000  O
  O5       1.0000 0.32500  0.38960  0.46390  Biso   1.000  O
  O6       1.0000 0.17500  0.88960  0.03610  Biso   1.000  O
  O7       1.0000 0.67500  0.61040  0.53610  Biso   1.000  O
  O8       1.0000 0.82500  0.11040  0.96390  Biso   1.000  O
  O9       1.0000 0.03280  0.34340  0.32680  Biso   1.000  O
  O10      1.0000 0.46720  0.84340  0.17320  Biso   1.000  O
  O11      1.0000 0.96720  0.65660  0.67320  Biso   1.000  O
  O12      1.0000 0.53280  0.15660  0.82680  Biso   1.000  O
  O13      1.0000 0.62830  0.45610  0.26130  Biso   1.000  O
  O14      1.0000 0.87170  0.95610  0.23870  Biso   1.000  O
  O15      1.0000 0.37170  0.54390  0.73870  Biso   1.000  O
  O16      1.0000 0.12830  0.04390  0.76130  Biso   1.000  O
  O17      1.0000 0.76050  0.43690  0.03920  Biso   1.000  O
  O18      1.0000 0.73950  0.93690  0.46080  Biso   1.000  O
  O19      1.0000 0.23950  0.56310  0.96080  Biso   1.000  O
  O20      1.0000 0.26050  0.06310  0.53920  Biso   1.000  O
  N1       1.0000 0.26770  0.56450  0.37010  Biso   1.000  N
  N2       1.0000 0.23230  0.06450  0.12990  Biso   1.000  N
  N3       1.0000 0.73230  0.43550  0.62990  Biso   1.000  N
  N4       1.0000 0.76770  0.93550  0.87010  Biso   1.000  N
  N5       1.0000 0.91300  0.62480  0.19120  Biso   1.000  N
  N6       1.0000 0.58700  0.12480  0.30880  Biso   1.000  N
  N7       1.0000 0.08700  0.37520  0.80880  Biso   1.000  N
  N8       1.0000 0.41300  0.87520  0.69120  Biso   1.000  N
  C1       1.0000 0.16110  0.40310  0.37330  Biso   1.000  C
  C2       1.0000 0.33890  0.90310  0.12670  Biso   1.000  C
  C3       1.0000 0.83890  0.59690  0.62670  Biso   1.000  C
  C4       1.0000 0.66110  0.09690  0.87330  Biso   1.000  C
  C5       1.0000 0.11920  0.50420  0.32060  Biso   1.000  C
  C6       1.0000 0.38080  0.00420  0.17940  Biso   1.000  C
  C7       1.0000 0.88080  0.49580  0.67940  Biso   1.000  C
  C8       1.0000 0.61920  0.99580  0.82060  Biso   1.000  C
  C9       1.0000 0.24240  0.65510  0.33060  Biso   1.000  C
  C10      1.0000 0.25760  0.15510  0.16940  Biso   1.000  C
  C11      1.0000 0.75760  0.34490  0.66940  Biso   1.000  C
  C12      1.0000 0.74240  0.84490  0.83060  Biso   1.000  C
  C13      1.0000 0.06300  0.68410  0.24070  Biso   1.000  C
  C14      1.0000 0.43700  0.18410  0.25930  Biso   1.000  C
  C15      1.0000 0.93700  0.31590  0.75930  Biso   1.000  C
  C16      1.0000 0.56300  0.81590  0.74070  Biso   1.000  C
  C17      1.0000 0.94060  0.53370  0.23190  Biso   1.000  C
  C18      1.0000 0.55940  0.03370  0.26810  Biso   1.000  C
  C19      1.0000 0.05940  0.46630  0.76810  Biso   1.000  C
  C20      1.0000 0.44060  0.96630  0.73190  Biso   1.000  C
  C21      1.0000 0.76010  0.46990  0.18050  Biso   1.000  C
  C22      1.0000 0.73990  0.96990  0.31950  Biso   1.000  C
  C23      1.0000 0.23990  0.53010  0.81950  Biso   1.000  C
  C24      1.0000 0.26010  0.03010  0.68050  Biso   1.000  C
  H1       1.0000 0.36100  0.33490  0.92460  Biso   1.000  H
  H2       1.0000 0.13900  0.83490  0.57540  Biso   1.000  H
  H3       1.0000 0.63900  0.66510  0.07540  Biso   1.000  H
  H4       1.0000 0.86100  0.16510  0.42460  Biso   1.000  H
  H5       1.0000 0.49880  0.28110  0.92960  Biso   1.000  H
  H6       1.0000 0.00120  0.78110  0.57040  Biso   1.000  H
  H7       1.0000 0.50120  0.71890  0.07040  Biso   1.000  H
  H8       1.0000 0.99880  0.21890  0.42960  Biso   1.000  H
  H9       1.0000 0.63400  0.38840  0.02100  Biso   1.000  H
  H10      1.0000 0.86600  0.88840  0.47900  Biso   1.000  H
  H11      1.0000 0.36600  0.61160  0.97900  Biso   1.000  H
  H12      1.0000 0.13400  0.11160  0.52100  Biso   1.000  H
  H13      1.0000 0.34440  0.69870  0.36310  Biso   1.000  H
  H14      1.0000 0.15560  0.19870  0.13690  Biso   1.000  H
  H15      1.0000 0.65560  0.30130  0.63690  Biso   1.000  H
  H16      1.0000 0.84440  0.80130  0.86310  Biso   1.000  H
  H17      1.0000 0.04750  0.74760  0.21410  Biso   1.000  H
  H18      1.0000 0.45250  0.24760  0.28590  Biso   1.000  H
  H19      1.0000 0.95250  0.25240  0.78590  Biso   1.000  H
  H20      1.0000 0.54750  0.75240  0.71410  Biso   1.000  H
