data_image0
_cell_length_a       12.784
_cell_length_b       7.527
_cell_length_c       12.323
_cell_angle_alpha    90
_cell_angle_beta     116.15
_cell_angle_gamma    90

_symmetry_space_group_name_H-M    "P 1"
_symmetry_int_tables_number       1

loop_
  _symmetry_equiv_pos_as_xyz
  'x, y, z'

loop_
  _atom_site_label
  _atom_site_occupancy
  _atom_site_fract_x
  _atom_site_fract_y
  _atom_site_fract_z
  _atom_site_thermal_displace_type
  _atom_site_B_iso_or_equiv
  _atom_site_type_symbol
  Cu1      1.0000 0.25000  0.25000  0.50000  Biso   1.000  Cu
  Cu2      1.0000 0.75000  0.25000  0.00000  Biso   1.000  Cu
  Cu3      1.0000 0.75000  0.75000  0.50000  Biso   1.000  Cu
  Cu4      1.0000 0.25000  0.75000  0.00000  Biso   1.000  Cu
  O1       1.0000 0.30347  0.00550  0.51917  Biso   1.000  O
  O2       1.0000 0.69653  0.00550  0.98083  Biso   1.000  O
  O3       1.0000 0.80347  0.50550  0.51917  Biso   1.000  O
  O4       1.0000 0.19653  0.50550  0.98083  Biso   1.000  O
  O5       1.0000 0.69653  0.99450  0.48083  Biso   1.000  O
  O6       1.0000 0.30347  0.99450  0.01917  Biso   1.000  O
  O7       1.0000 0.19653  0.49450  0.48083  Biso   1.000  O
  O8       1.0000 0.80347  0.49450  0.01917  Biso   1.000  O
  O9       1.0000 0.45958  0.84030  0.62139  Biso   1.000  O
  O10      1.0000 0.54042  0.84030  0.87861  Biso   1.000  O
  O11      1.0000 0.95958  0.34030  0.62139  Biso   1.000  O
  O12      1.0000 0.04042  0.34030  0.87861  Biso   1.000  O
  O13      1.0000 0.54042  0.15970  0.37861  Biso   1.000  O
  O14      1.0000 0.45958  0.15970  0.12139  Biso   1.000  O
  O15      1.0000 0.04042  0.65970  0.37861  Biso   1.000  O
  O16      1.0000 0.95958  0.65970  0.12139  Biso   1.000  O
  O17      1.0000 0.66840  0.31800  0.14370  Biso   1.000  O
  O18      1.0000 0.33160  0.31800  0.35630  Biso   1.000  O
  O19      1.0000 0.16840  0.81800  0.14370  Biso   1.000  O
  O20      1.0000 0.83160  0.81800  0.35630  Biso   1.000  O
  O21      1.0000 0.33160  0.68200  0.85630  Biso   1.000  O
  O22      1.0000 0.66840  0.68200  0.64370  Biso   1.000  O
  O23      1.0000 0.83160  0.18200  0.85630  Biso   1.000  O
  O24      1.0000 0.16840  0.18200  0.64370  Biso   1.000  O
  N1       1.0000 0.40315  0.28830  0.64320  Biso   1.000  N
  N2       1.0000 0.59685  0.28830  0.85680  Biso   1.000  N
  N3       1.0000 0.90315  0.78830  0.64320  Biso   1.000  N
  N4       1.0000 0.09685  0.78830  0.85680  Biso   1.000  N
  N5       1.0000 0.59685  0.71170  0.35680  Biso   1.000  N
  N6       1.0000 0.40315  0.71170  0.14320  Biso   1.000  N
  N7       1.0000 0.09685  0.21170  0.35680  Biso   1.000  N
  N8       1.0000 0.90315  0.21170  0.14320  Biso   1.000  N
  C1       1.0000 0.45330  0.13320  0.69280  Biso   1.000  C
  C2       1.0000 0.54670  0.13320  0.80720  Biso   1.000  C
  C3       1.0000 0.95330  0.63320  0.69280  Biso   1.000  C
  C4       1.0000 0.04670  0.63320  0.80720  Biso   1.000  C
  C5       1.0000 0.54670  0.86680  0.30720  Biso   1.000  C
  C6       1.0000 0.45330  0.86680  0.19280  Biso   1.000  C
  C7       1.0000 0.04670  0.36680  0.30720  Biso   1.000  C
  C8       1.0000 0.95330  0.36680  0.19280  Biso   1.000  C
  C9       1.0000 0.44810  0.44120  0.69690  Biso   1.000  C
  C10      1.0000 0.55190  0.44120  0.80310  Biso   1.000  C
  C11      1.0000 0.94810  0.94120  0.69690  Biso   1.000  C
  C12      1.0000 0.05190  0.94120  0.80310  Biso   1.000  C
  C13      1.0000 0.55190  0.55880  0.30310  Biso   1.000  C
  C14      1.0000 0.44810  0.55880  0.19690  Biso   1.000  C
  C15      1.0000 0.05190  0.05880  0.30310  Biso   1.000  C
  C16      1.0000 0.94810  0.05880  0.19690  Biso   1.000  C
  C17      1.0000 0.40290  0.97610  0.60720  Biso   1.000  C
  C18      1.0000 0.59710  0.97610  0.89280  Biso   1.000  C
  C19      1.0000 0.90290  0.47610  0.60720  Biso   1.000  C
  C20      1.0000 0.09710  0.47610  0.89280  Biso   1.000  C
  C21      1.0000 0.59710  0.02390  0.39280  Biso   1.000  C
  C22      1.0000 0.40290  0.02390  0.10720  Biso   1.000  C
  C23      1.0000 0.09710  0.52390  0.39280  Biso   1.000  C
  C24      1.0000 0.90290  0.52390  0.10720  Biso   1.000  C
  H1       1.0000 0.71300  0.28700  0.20600  Biso   1.000  H
  H2       1.0000 0.28700  0.28700  0.29400  Biso   1.000  H
  H3       1.0000 0.21300  0.78700  0.20600  Biso   1.000  H
  H4       1.0000 0.78700  0.78700  0.29400  Biso   1.000  H
  H5       1.0000 0.28700  0.71300  0.79400  Biso   1.000  H
  H6       1.0000 0.71300  0.71300  0.70600  Biso   1.000  H
  H7       1.0000 0.78700  0.21300  0.79400  Biso   1.000  H
  H8       1.0000 0.21300  0.21300  0.70600  Biso   1.000  H
  H9       1.0000 0.61000  0.27300  0.13600  Biso   1.000  H
  H10      1.0000 0.39000  0.27300  0.36400  Biso   1.000  H
  H11      1.0000 0.11000  0.77300  0.13600  Biso   1.000  H
  H12      1.0000 0.89000  0.77300  0.36400  Biso   1.000  H
  H13      1.0000 0.39000  0.72700  0.86400  Biso   1.000  H
  H14      1.0000 0.61000  0.72700  0.63600  Biso   1.000  H
  H15      1.0000 0.89000  0.22700  0.86400  Biso   1.000  H
  H16      1.0000 0.11000  0.22700  0.63600  Biso   1.000  H
  H17      1.0000 0.59000  0.54200  0.84300  Biso   1.000  H
  H18      1.0000 0.41000  0.54200  0.65700  Biso   1.000  H
  H19      1.0000 0.09000  0.04200  0.84300  Biso   1.000  H
  H20      1.0000 0.91000  0.04200  0.65700  Biso   1.000  H
  H21      1.0000 0.41000  0.45800  0.15700  Biso   1.000  H
  H22      1.0000 0.59000  0.45800  0.34300  Biso   1.000  H
  H23      1.0000 0.91000  0.95800  0.15700  Biso   1.000  H
  H24      1.0000 0.09000  0.95800  0.34300  Biso   1.000  H
  O25      1.0000 0.33760  0.29720  0.86050  Biso   1.000  O
  O26      1.0000 0.66240  0.29720  0.63950  Biso   1.000  O
  O27      1.0000 0.83760  0.79720  0.86050  Biso   1.000  O
  O28      1.0000 0.16240  0.79720  0.63950  Biso   1.000  O
  O29      1.0000 0.66240  0.70280  0.13950  Biso   1.000  O
  O30      1.0000 0.33760  0.70280  0.36050  Biso   1.000  O
  O31      1.0000 0.16240  0.20280  0.13950  Biso   1.000  O
  O32      1.0000 0.83760  0.20280  0.36050  Biso   1.000  O
  H25      1.0000 0.34000  0.25000  0.90800  Biso   1.000  H
  H26      1.0000 0.66000  0.25000  0.59200  Biso   1.000  H
  H27      1.0000 0.84000  0.75000  0.90800  Biso   1.000  H
  H28      1.0000 0.16000  0.75000  0.59200  Biso   1.000  H
  H29      1.0000 0.66000  0.75000  0.09200  Biso   1.000  H
  H30      1.0000 0.34000  0.75000  0.40800  Biso   1.000  H
  H31      1.0000 0.16000  0.25000  0.09200  Biso   1.000  H
  H32      1.0000 0.84000  0.25000  0.40800  Biso   1.000  H
  H33      1.0000 0.33200  0.38800  0.87300  Biso   1.000  H
  H34      1.0000 0.66800  0.38800  0.62700  Biso   1.000  H
  H35      1.0000 0.83200  0.88800  0.87300  Biso   1.000  H
  H36      1.0000 0.16800  0.88800  0.62700  Biso   1.000  H
  H37      1.0000 0.66800  0.61200  0.12700  Biso   1.000  H
  H38      1.0000 0.33200  0.61200  0.37300  Biso   1.000  H
  H39      1.0000 0.16800  0.11200  0.12700  Biso   1.000  H
  H40      1.0000 0.83200  0.11200  0.37300  Biso   1.000  H
