data_image0
_cell_length_a       6.9075
_cell_length_b       8.9797
_cell_length_c       16.179
_cell_angle_alpha    84.54
_cell_angle_beta     84.73
_cell_angle_gamma    71.43

_symmetry_space_group_name_H-M    "P 1"
_symmetry_int_tables_number       1

loop_
  _symmetry_equiv_pos_as_xyz
  'x, y, z'

loop_
  _atom_site_label
  _atom_site_occupancy
  _atom_site_fract_x
  _atom_site_fract_y
  _atom_site_fract_z
  _atom_site_thermal_displace_type
  _atom_site_B_iso_or_equiv
  _atom_site_type_symbol
  O1       1.0000 0.89350  0.40880  0.09800  Biso   1.000  O
  O2       1.0000 0.10650  0.59120  0.90200  Biso   1.000  O
  H1       1.0000 0.01680  0.40390  0.10320  Biso   1.000  H
  H2       1.0000 0.98320  0.59610  0.89680  Biso   1.000  H
  H3       1.0000 0.82750  0.50450  0.08550  Biso   1.000  H
  H4       1.0000 0.17250  0.49550  0.91450  Biso   1.000  H
  C1       1.0000 0.75410  0.09590  0.13370  Biso   1.000  C
  C2       1.0000 0.24590  0.90410  0.86630  Biso   1.000  C
  C3       1.0000 0.86040  0.08370  0.21400  Biso   1.000  C
  C4       1.0000 0.13960  0.91630  0.78600  Biso   1.000  C
  H5       1.0000 0.92780  0.97350  0.22980  Biso   1.000  H
  H6       1.0000 0.07220  0.02650  0.77020  Biso   1.000  H
  H7       1.0000 0.96500  0.13540  0.20380  Biso   1.000  H
  H8       1.0000 0.03500  0.86460  0.79620  Biso   1.000  H
  C5       1.0000 0.59190  0.07960  0.31600  Biso   1.000  C
  C6       1.0000 0.40810  0.92040  0.68400  Biso   1.000  C
  C7       1.0000 0.45940  0.14790  0.38360  Biso   1.000  C
  C8       1.0000 0.54060  0.85210  0.61640  Biso   1.000  C
  C9       1.0000 0.32740  0.07230  0.42520  Biso   1.000  C
  C10      1.0000 0.67260  0.92770  0.57480  Biso   1.000  C
  H9       1.0000 0.24650  0.11400  0.47190  Biso   1.000  H
  H10      1.0000 0.75350  0.88600  0.52810  Biso   1.000  H
  C11      1.0000 0.31800  0.93580  0.39680  Biso   1.000  C
  C12      1.0000 0.68200  0.06420  0.60320  Biso   1.000  C
  C13      1.0000 0.44620  0.86530  0.32940  Biso   1.000  C
  C14      1.0000 0.55380  0.13470  0.67060  Biso   1.000  C
  C15      1.0000 0.58400  0.93890  0.29190  Biso   1.000  C
  C16      1.0000 0.41600  0.06110  0.70810  Biso   1.000  C
  H11      1.0000 0.67450  0.89130  0.24890  Biso   1.000  H
  H12      1.0000 0.32550  0.10870  0.75110  Biso   1.000  H
  C17      1.0000 0.56100  0.65900  0.23720  Biso   1.000  C
  C18      1.0000 0.43900  0.34100  0.76280  Biso   1.000  C
  H13      1.0000 0.55770  0.55220  0.23520  Biso   1.000  H
  H14      1.0000 0.44230  0.44780  0.76480  Biso   1.000  H
  H15      1.0000 0.70060  0.65320  0.24550  Biso   1.000  H
  H16      1.0000 0.29940  0.34680  0.75450  Biso   1.000  H
  C19      1.0000 0.50120  0.74830  0.15460  Biso   1.000  C
  C20      1.0000 0.49880  0.25170  0.84540  Biso   1.000  C
  Cu1      1.0000 0.22333  0.90714  0.04049  Biso   1.000  Cu
  Cu2      1.0000 0.77667  0.09286  0.95951  Biso   1.000  Cu
  N1       1.0000 0.45190  0.29700  0.41400  Biso   1.000  N
  N2       1.0000 0.54810  0.70300  0.58600  Biso   1.000  N
  N3       1.0000 0.17450  0.86210  0.44100  Biso   1.000  N
  N4       1.0000 0.82550  0.13790  0.55900  Biso   1.000  N
  O3       1.0000 0.87500  0.03440  0.07230  Biso   1.000  O
  O4       1.0000 0.12500  0.96560  0.92770  Biso   1.000  O
  O5       1.0000 0.56880  0.16020  0.13061  Biso   1.000  O
  O6       1.0000 0.43120  0.83980  0.86939  Biso   1.000  O
  O7       1.0000 0.72310  0.15270  0.28109  Biso   1.000  O
  O8       1.0000 0.27690  0.84730  0.71891  Biso   1.000  O
  O9       1.0000 0.63040  0.71860  0.09522  Biso   1.000  O
  O10      1.0000 0.36960  0.28140  0.90478  Biso   1.000  O
  O11      1.0000 0.32150  0.84210  0.15138  Biso   1.000  O
  O12      1.0000 0.67850  0.15790  0.84862  Biso   1.000  O
  O13      1.0000 0.43130  0.72800  0.30708  Biso   1.000  O
  O14      1.0000 0.56870  0.27200  0.69292  Biso   1.000  O
  O15      1.0000 0.51330  0.38830  0.36860  Biso   1.000  O
  O16      1.0000 0.48670  0.61170  0.63140  Biso   1.000  O
  O17      1.0000 0.38500  0.32180  0.48550  Biso   1.000  O
  O18      1.0000 0.61500  0.67820  0.51450  Biso   1.000  O
  O19      1.0000 0.16140  0.86020  0.51730  Biso   1.000  O
  O20      1.0000 0.83860  0.13980  0.48270  Biso   1.000  O
  O21      1.0000 0.07230  0.81030  0.40140  Biso   1.000  O
  O22      1.0000 0.92770  0.18970  0.59860  Biso   1.000  O
  O23      1.0000 0.28340  0.10570  0.04159  Biso   1.000  O
  O24      1.0000 0.71660  0.89430  0.95841  Biso   1.000  O
  H17      1.0000 0.28560  0.15750  0.99490  Biso   1.000  H
  H18      1.0000 0.71440  0.84250  0.00510  Biso   1.000  H
  H19      1.0000 0.37320  0.11650  0.07110  Biso   1.000  H
  H20      1.0000 0.62680  0.88350  0.92890  Biso   1.000  H
  O25      1.0000 0.18080  0.70600  0.03520  Biso   1.000  O
  O26      1.0000 0.81920  0.29400  0.96480  Biso   1.000  O
  H21      1.0000 0.13400  0.67350  0.99610  Biso   1.000  H
  H22      1.0000 0.86600  0.32650  0.00390  Biso   1.000  H
  H23      1.0000 0.20990  0.63360  0.07420  Biso   1.000  H
  H24      1.0000 0.79010  0.36640  0.92580  Biso   1.000  H
  O27      1.0000 0.26490  0.45180  0.14450  Biso   1.000  O
  O28      1.0000 0.73510  0.54820  0.85550  Biso   1.000  O
  H25      1.0000 0.22190  0.48320  0.19280  Biso   1.000  H
  H26      1.0000 0.77810  0.51680  0.80720  Biso   1.000  H
  H27      1.0000 0.37790  0.37790  0.14720  Biso   1.000  H
  H28      1.0000 0.62210  0.62210  0.85280  Biso   1.000  H
  O29      1.0000 0.07640  0.59460  0.27980  Biso   1.000  O
  O30      1.0000 0.92360  0.40540  0.72020  Biso   1.000  O
  H29      1.0000 0.19450  0.53320  0.29070  Biso   1.000  H
  H30      1.0000 0.80550  0.46680  0.70930  Biso   1.000  H
  H31      1.0000 0.06510  0.68630  0.29330  Biso   1.000  H
  H32      1.0000 0.93490  0.31370  0.70670  Biso   1.000  H
  O31      1.0000 0.91980  0.45350  0.41030  Biso   1.000  O
  O32      1.0000 0.08020  0.54650  0.58970  Biso   1.000  O
  H33      1.0000 0.86800  0.37990  0.40830  Biso   1.000  H
  H34      1.0000 0.13200  0.62010  0.59170  Biso   1.000  H
  H35      1.0000 0.98230  0.46640  0.36380  Biso   1.000  H
  H36      1.0000 0.01770  0.53360  0.63620  Biso   1.000  H
