data_image0
_cell_length_a       6.7169
_cell_length_b       26.68
_cell_length_c       10.486
_cell_angle_alpha    90
_cell_angle_beta     106.25
_cell_angle_gamma    90

_symmetry_space_group_name_H-M    "P 1"
_symmetry_int_tables_number       1

loop_
  _symmetry_equiv_pos_as_xyz
  'x, y, z'

loop_
  _atom_site_label
  _atom_site_occupancy
  _atom_site_fract_x
  _atom_site_fract_y
  _atom_site_fract_z
  _atom_site_thermal_displace_type
  _atom_site_B_iso_or_equiv
  _atom_site_type_symbol
  C1       1.0000 0.13520  0.69201  0.15360  Biso   1.000  C
  C2       1.0000 0.86480  0.19201  0.34640  Biso   1.000  C
  C3       1.0000 0.86480  0.30799  0.84640  Biso   1.000  C
  C4       1.0000 0.13520  0.80799  0.65360  Biso   1.000  C
  C5       1.0000 0.27490  0.71236  0.26810  Biso   1.000  C
  C6       1.0000 0.72510  0.21236  0.23190  Biso   1.000  C
  C7       1.0000 0.72510  0.28764  0.73190  Biso   1.000  C
  C8       1.0000 0.27490  0.78764  0.76810  Biso   1.000  C
  C9       1.0000 0.23710  0.70852  0.38950  Biso   1.000  C
  C10      1.0000 0.76290  0.20852  0.11050  Biso   1.000  C
  C11      1.0000 0.76290  0.29148  0.61050  Biso   1.000  C
  C12      1.0000 0.23710  0.79148  0.88950  Biso   1.000  C
  H1       1.0000 0.32970  0.72240  0.46410  Biso   1.000  H
  H2       1.0000 0.67030  0.22240  0.03590  Biso   1.000  H
  H3       1.0000 0.67030  0.27760  0.53590  Biso   1.000  H
  H4       1.0000 0.32970  0.77760  0.96410  Biso   1.000  H
  C13      1.0000 0.06250  0.68411  0.40150  Biso   1.000  C
  C14      1.0000 0.93750  0.18411  0.09850  Biso   1.000  C
  C15      1.0000 0.93750  0.31589  0.59850  Biso   1.000  C
  C16      1.0000 0.06250  0.81589  0.90150  Biso   1.000  C
  C17      1.0000 0.92200  0.66228  0.29120  Biso   1.000  C
  C18      1.0000 0.07800  0.16228  0.20880  Biso   1.000  C
  C19      1.0000 0.07800  0.33772  0.70880  Biso   1.000  C
  C20      1.0000 0.92200  0.83772  0.79120  Biso   1.000  C
  C21      1.0000 0.95970  0.66755  0.16840  Biso   1.000  C
  C22      1.0000 0.04030  0.16755  0.33160  Biso   1.000  C
  C23      1.0000 0.04030  0.33245  0.83160  Biso   1.000  C
  C24      1.0000 0.95970  0.83245  0.66840  Biso   1.000  C
  H5       1.0000 0.86480  0.65440  0.09360  Biso   1.000  H
  H6       1.0000 0.13520  0.15440  0.40640  Biso   1.000  H
  H7       1.0000 0.13520  0.34560  0.90640  Biso   1.000  H
  H8       1.0000 0.86480  0.84560  0.59360  Biso   1.000  H
  C25      1.0000 0.63240  0.60844  0.20130  Biso   1.000  C
  C26      1.0000 0.36760  0.10844  0.29870  Biso   1.000  C
  C27      1.0000 0.36760  0.39156  0.79870  Biso   1.000  C
  C28      1.0000 0.63240  0.89156  0.70130  Biso   1.000  C
  H9       1.0000 0.58230  0.63090  0.12630  Biso   1.000  H
  H10      1.0000 0.41770  0.13090  0.37370  Biso   1.000  H
  H11      1.0000 0.41770  0.36910  0.87370  Biso   1.000  H
  H12      1.0000 0.58230  0.86910  0.62630  Biso   1.000  H
  H13      1.0000 0.51300  0.59590  0.22620  Biso   1.000  H
  H14      1.0000 0.48700  0.09590  0.27380  Biso   1.000  H
  H15      1.0000 0.48700  0.40410  0.77380  Biso   1.000  H
  H16      1.0000 0.51300  0.90410  0.72620  Biso   1.000  H
  C29      1.0000 0.74470  0.56432  0.15870  Biso   1.000  C
  C30      1.0000 0.25530  0.06432  0.34130  Biso   1.000  C
  C31      1.0000 0.25530  0.43568  0.84130  Biso   1.000  C
  C32      1.0000 0.74470  0.93568  0.65870  Biso   1.000  C
  C33      1.0000 0.03250  0.67362  0.92200  Biso   1.000  C
  C34      1.0000 0.96750  0.17362  0.57800  Biso   1.000  C
  C35      1.0000 0.96750  0.32638  0.07800  Biso   1.000  C
  C36      1.0000 0.03250  0.82638  0.42200  Biso   1.000  C
  H17      1.0000 0.06590  0.68460  0.84210  Biso   1.000  H
  H18      1.0000 0.93410  0.18460  0.65790  Biso   1.000  H
  H19      1.0000 0.93410  0.31540  0.15790  Biso   1.000  H
  H20      1.0000 0.06590  0.81540  0.34210  Biso   1.000  H
  H21      1.0000 0.89230  0.68450  0.91560  Biso   1.000  H
  H22      1.0000 0.10770  0.18450  0.58440  Biso   1.000  H
  H23      1.0000 0.10770  0.31550  0.08440  Biso   1.000  H
  H24      1.0000 0.89230  0.81550  0.41560  Biso   1.000  H
  C37      1.0000 0.04040  0.61648  0.92830  Biso   1.000  C
  C38      1.0000 0.95960  0.11648  0.57170  Biso   1.000  C
  C39      1.0000 0.95960  0.38352  0.07170  Biso   1.000  C
  C40      1.0000 0.04040  0.88352  0.42830  Biso   1.000  C
  C41      1.0000 0.39550  0.57113  0.74280  Biso   1.000  C
  C42      1.0000 0.60450  0.07113  0.75720  Biso   1.000  C
  C43      1.0000 0.60450  0.42887  0.25720  Biso   1.000  C
  C44      1.0000 0.39550  0.92887  0.24280  Biso   1.000  C
  H25      1.0000 0.48880  0.59100  0.80440  Biso   1.000  H
  H26      1.0000 0.51120  0.09100  0.69560  Biso   1.000  H
  H27      1.0000 0.51120  0.40900  0.19560  Biso   1.000  H
  H28      1.0000 0.48880  0.90900  0.30440  Biso   1.000  H
  C45      1.0000 0.24690  0.54350  0.51580  Biso   1.000  C
  C46      1.0000 0.75310  0.04350  0.98420  Biso   1.000  C
  C47      1.0000 0.75310  0.45650  0.48420  Biso   1.000  C
  C48      1.0000 0.24690  0.95650  0.01580  Biso   1.000  C
  H29      1.0000 0.26850  0.50830  0.53460  Biso   1.000  H
  H30      1.0000 0.73150  0.00830  0.96540  Biso   1.000  H
  H31      1.0000 0.73150  0.49170  0.46540  Biso   1.000  H
  H32      1.0000 0.26850  0.99170  0.03460  Biso   1.000  H
  H33      1.0000 0.26440  0.55050  0.42980  Biso   1.000  H
  H34      1.0000 0.73560  0.05050  0.07020  Biso   1.000  H
  H35      1.0000 0.73560  0.44950  0.57020  Biso   1.000  H
  H36      1.0000 0.26440  0.94950  0.92980  Biso   1.000  H
  H37      1.0000 0.10910  0.55250  0.51680  Biso   1.000  H
  H38      1.0000 0.89090  0.05250  0.98320  Biso   1.000  H
  H39      1.0000 0.89090  0.44750  0.48320  Biso   1.000  H
  H40      1.0000 0.10910  0.94750  0.01680  Biso   1.000  H
  C49      1.0000 0.54740  0.60460  0.57510  Biso   1.000  C
  C50      1.0000 0.45260  0.10460  0.92490  Biso   1.000  C
  C51      1.0000 0.45260  0.39540  0.42490  Biso   1.000  C
  C52      1.0000 0.54740  0.89540  0.07510  Biso   1.000  C
  H41      1.0000 0.60350  0.62920  0.64220  Biso   1.000  H
  H42      1.0000 0.39650  0.12920  0.85780  Biso   1.000  H
  H43      1.0000 0.39650  0.37080  0.35780  Biso   1.000  H
  H44      1.0000 0.60350  0.87080  0.14220  Biso   1.000  H
  H45      1.0000 0.47780  0.62110  0.49340  Biso   1.000  H
  H46      1.0000 0.52220  0.12110  0.00660  Biso   1.000  H
  H47      1.0000 0.52220  0.37890  0.50660  Biso   1.000  H
  H48      1.0000 0.47780  0.87890  0.99340  Biso   1.000  H
  H49      1.0000 0.65780  0.58420  0.56190  Biso   1.000  H
  H50      1.0000 0.34220  0.08420  0.93810  Biso   1.000  H
  H51      1.0000 0.34220  0.41580  0.43810  Biso   1.000  H
  H52      1.0000 0.65780  0.91580  0.06190  Biso   1.000  H
  Cu1      1.0000 0.27678  0.52930  0.96437  Biso   1.000  Cu
  Cu2      1.0000 0.72322  0.02930  0.53563  Biso   1.000  Cu
  Cu3      1.0000 0.72322  0.47070  0.03563  Biso   1.000  Cu
  Cu4      1.0000 0.27678  0.97070  0.46437  Biso   1.000  Cu
  N1       1.0000 0.02800  0.68213  0.53280  Biso   1.000  N
  N2       1.0000 0.97200  0.18213  0.96720  Biso   1.000  N
  N3       1.0000 0.97200  0.31787  0.46720  Biso   1.000  N
  N4       1.0000 0.02800  0.81787  0.03280  Biso   1.000  N
  N5       1.0000 0.46210  0.73981  0.26420  Biso   1.000  N
  N6       1.0000 0.53790  0.23981  0.23580  Biso   1.000  N
  N7       1.0000 0.53790  0.26019  0.73580  Biso   1.000  N
  N8       1.0000 0.46210  0.76019  0.76420  Biso   1.000  N
  N9       1.0000 0.39910  0.57271  0.61770  Biso   1.000  N
  N10      1.0000 0.60090  0.07271  0.88230  Biso   1.000  N
  N11      1.0000 0.60090  0.42729  0.38230  Biso   1.000  N
  N12      1.0000 0.39910  0.92729  0.11770  Biso   1.000  N
  O1       1.0000 0.21230  0.59781  0.99340  Biso   1.000  O
  O2       1.0000 0.78770  0.09781  0.50660  Biso   1.000  O
  O3       1.0000 0.78770  0.40219  0.00660  Biso   1.000  O
  O4       1.0000 0.21230  0.90219  0.49340  Biso   1.000  O
  O5       1.0000 0.88560  0.59307  0.86850  Biso   1.000  O
  O6       1.0000 0.11440  0.09307  0.63150  Biso   1.000  O
  O7       1.0000 0.11440  0.40693  0.13150  Biso   1.000  O
  O8       1.0000 0.88560  0.90693  0.36850  Biso   1.000  O
  O9       1.0000 0.17340  0.69724  0.03560  Biso   1.000  O
  O10      1.0000 0.82660  0.19724  0.46440  Biso   1.000  O
  O11      1.0000 0.82660  0.30276  0.96440  Biso   1.000  O
  O12      1.0000 0.17340  0.80276  0.53560  Biso   1.000  O
  O13      1.0000 0.63030  0.53844  0.06280  Biso   1.000  O
  O14      1.0000 0.36970  0.03844  0.43720  Biso   1.000  O
  O15      1.0000 0.36970  0.46156  0.93720  Biso   1.000  O
  O16      1.0000 0.63030  0.96156  0.56280  Biso   1.000  O
  O17      1.0000 0.92720  0.55620  0.21510  Biso   1.000  O
  O18      1.0000 0.07280  0.05620  0.28490  Biso   1.000  O
  O19      1.0000 0.07280  0.44380  0.78490  Biso   1.000  O
  O20      1.0000 0.92720  0.94380  0.71510  Biso   1.000  O
  O21      1.0000 0.76130  0.63600  0.31000  Biso   1.000  O
  O22      1.0000 0.23870  0.13600  0.19000  Biso   1.000  O
  O23      1.0000 0.23870  0.36400  0.69000  Biso   1.000  O
  O24      1.0000 0.76130  0.86400  0.81000  Biso   1.000  O
  O25      1.0000 0.85050  0.68603  0.53990  Biso   1.000  O
  O26      1.0000 0.14950  0.18603  0.96010  Biso   1.000  O
  O27      1.0000 0.14950  0.31397  0.46010  Biso   1.000  O
  O28      1.0000 0.85050  0.81397  0.03990  Biso   1.000  O
  O29      1.0000 0.17730  0.68185  0.62910  Biso   1.000  O
  O30      1.0000 0.82270  0.18185  0.87090  Biso   1.000  O
  O31      1.0000 0.82270  0.31815  0.37090  Biso   1.000  O
  O32      1.0000 0.17730  0.81815  0.12910  Biso   1.000  O
  O33      1.0000 0.53100  0.76994  0.35330  Biso   1.000  O
  O34      1.0000 0.46900  0.26994  0.14670  Biso   1.000  O
  O35      1.0000 0.46900  0.23006  0.64670  Biso   1.000  O
  O36      1.0000 0.53100  0.73006  0.85330  Biso   1.000  O
  O37      1.0000 0.53680  0.73249  0.17270  Biso   1.000  O
  O38      1.0000 0.46320  0.23249  0.32730  Biso   1.000  O
  O39      1.0000 0.46320  0.26751  0.82730  Biso   1.000  O
  O40      1.0000 0.53680  0.76751  0.67270  Biso   1.000  O
  O41      1.0000 0.27530  0.54480  0.78160  Biso   1.000  O
  O42      1.0000 0.72470  0.04480  0.71840  Biso   1.000  O
  O43      1.0000 0.72470  0.45520  0.21840  Biso   1.000  O
  O44      1.0000 0.27530  0.95520  0.28160  Biso   1.000  O
  O45      1.0000 0.21140  0.50618  0.12600  Biso   1.000  O
  O46      1.0000 0.78860  0.00618  0.37400  Biso   1.000  O
  O47      1.0000 0.78860  0.49382  0.87400  Biso   1.000  O
  O48      1.0000 0.21140  0.99382  0.62600  Biso   1.000  O
  H53      1.0000 0.17000  0.47610  0.12660  Biso   1.000  H
  H54      1.0000 0.83000  0.97610  0.37340  Biso   1.000  H
  H55      1.0000 0.83000  0.52390  0.87340  Biso   1.000  H
  H56      1.0000 0.17000  0.02390  0.62660  Biso   1.000  H
  H57      1.0000 0.12350  0.52110  0.15730  Biso   1.000  H
  H58      1.0000 0.87650  0.02110  0.34270  Biso   1.000  H
  H59      1.0000 0.87650  0.47890  0.84270  Biso   1.000  H
  H60      1.0000 0.12350  0.97890  0.65730  Biso   1.000  H
