data_image0
_cell_length_a       18.3833
_cell_length_b       10.8048
_cell_length_c       17.0173
_cell_angle_alpha    90
_cell_angle_beta     98.977
_cell_angle_gamma    90

_symmetry_space_group_name_H-M    "P 1"
_symmetry_int_tables_number       1

loop_
  _symmetry_equiv_pos_as_xyz
  'x, y, z'

loop_
  _atom_site_label
  _atom_site_occupancy
  _atom_site_fract_x
  _atom_site_fract_y
  _atom_site_fract_z
  _atom_site_thermal_displace_type
  _atom_site_B_iso_or_equiv
  _atom_site_type_symbol
  Cu1      1.0000 0.64286  0.76835  0.55401  Biso   1.000  Cu
  Cu2      1.0000 0.35714  0.76835  0.94599  Biso   1.000  Cu
  Cu3      1.0000 0.14286  0.26835  0.55401  Biso   1.000  Cu
  Cu4      1.0000 0.85714  0.26835  0.94599  Biso   1.000  Cu
  Cu5      1.0000 0.35714  0.23165  0.44599  Biso   1.000  Cu
  Cu6      1.0000 0.64286  0.23165  0.05401  Biso   1.000  Cu
  Cu7      1.0000 0.85714  0.73165  0.44599  Biso   1.000  Cu
  Cu8      1.0000 0.14286  0.73165  0.05401  Biso   1.000  Cu
  N1       1.0000 0.53484  0.73600  0.51910  Biso   1.000  N
  N2       1.0000 0.46516  0.73600  0.98090  Biso   1.000  N
  N3       1.0000 0.03484  0.23600  0.51910  Biso   1.000  N
  N4       1.0000 0.96516  0.23600  0.98090  Biso   1.000  N
  N5       1.0000 0.46516  0.26400  0.48090  Biso   1.000  N
  N6       1.0000 0.53484  0.26400  0.01910  Biso   1.000  N
  N7       1.0000 0.96516  0.76400  0.48090  Biso   1.000  N
  N8       1.0000 0.03484  0.76400  0.01910  Biso   1.000  N
  N9       1.0000 0.62354  0.90630  0.47446  Biso   1.000  N
  N10      1.0000 0.37646  0.90630  0.02554  Biso   1.000  N
  N11      1.0000 0.12354  0.40630  0.47446  Biso   1.000  N
  N12      1.0000 0.87646  0.40630  0.02554  Biso   1.000  N
  N13      1.0000 0.37646  0.09370  0.52554  Biso   1.000  N
  N14      1.0000 0.62354  0.09370  0.97446  Biso   1.000  N
  N15      1.0000 0.87646  0.59370  0.52554  Biso   1.000  N
  N16      1.0000 0.12354  0.59370  0.97446  Biso   1.000  N
  C1       1.0000 0.49290  0.64660  0.54060  Biso   1.000  C
  C2       1.0000 0.50710  0.64660  0.95940  Biso   1.000  C
  C3       1.0000 0.99290  0.14660  0.54060  Biso   1.000  C
  C4       1.0000 0.00710  0.14660  0.95940  Biso   1.000  C
  C5       1.0000 0.50710  0.35340  0.45940  Biso   1.000  C
  C6       1.0000 0.49290  0.35340  0.04060  Biso   1.000  C
  C7       1.0000 0.00710  0.85340  0.45940  Biso   1.000  C
  C8       1.0000 0.99290  0.85340  0.04060  Biso   1.000  C
  H1       1.0000 0.51340  0.59050  0.57920  Biso   1.000  H
  H2       1.0000 0.48660  0.59050  0.92080  Biso   1.000  H
  H3       1.0000 0.01340  0.09050  0.57920  Biso   1.000  H
  H4       1.0000 0.98660  0.09050  0.92080  Biso   1.000  H
  H5       1.0000 0.48660  0.40950  0.42080  Biso   1.000  H
  H6       1.0000 0.51340  0.40950  0.07920  Biso   1.000  H
  H7       1.0000 0.98660  0.90950  0.42080  Biso   1.000  H
  H8       1.0000 0.01340  0.90950  0.07920  Biso   1.000  H
  C9       1.0000 0.41920  0.63350  0.50750  Biso   1.000  C
  C10      1.0000 0.58080  0.63350  0.99250  Biso   1.000  C
  C11      1.0000 0.91920  0.13350  0.50750  Biso   1.000  C
  C12      1.0000 0.08080  0.13350  0.99250  Biso   1.000  C
  C13      1.0000 0.58080  0.36650  0.49250  Biso   1.000  C
  C14      1.0000 0.41920  0.36650  0.00750  Biso   1.000  C
  C15      1.0000 0.08080  0.86650  0.49250  Biso   1.000  C
  C16      1.0000 0.91920  0.86650  0.00750  Biso   1.000  C
  H9       1.0000 0.39160  0.56780  0.52230  Biso   1.000  H
  H10      1.0000 0.60840  0.56780  0.97770  Biso   1.000  H
  H11      1.0000 0.89160  0.06780  0.52230  Biso   1.000  H
  H12      1.0000 0.10840  0.06780  0.97770  Biso   1.000  H
  H13      1.0000 0.60840  0.43220  0.47770  Biso   1.000  H
  H14      1.0000 0.39160  0.43220  0.02230  Biso   1.000  H
  H15      1.0000 0.10840  0.93220  0.47770  Biso   1.000  H
  H16      1.0000 0.89160  0.93220  0.02230  Biso   1.000  H
  C17      1.0000 0.38780  0.71760  0.45320  Biso   1.000  C
  C18      1.0000 0.61220  0.71760  0.04680  Biso   1.000  C
  C19      1.0000 0.88780  0.21760  0.45320  Biso   1.000  C
  C20      1.0000 0.11220  0.21760  0.04680  Biso   1.000  C
  C21      1.0000 0.61220  0.28240  0.54680  Biso   1.000  C
  C22      1.0000 0.38780  0.28240  0.95320  Biso   1.000  C
  C23      1.0000 0.11220  0.78240  0.54680  Biso   1.000  C
  C24      1.0000 0.88780  0.78240  0.95320  Biso   1.000  C
  H17      1.0000 0.33830  0.71070  0.43180  Biso   1.000  H
  H18      1.0000 0.66170  0.71070  0.06820  Biso   1.000  H
  H19      1.0000 0.83830  0.21070  0.43180  Biso   1.000  H
  H20      1.0000 0.16170  0.21070  0.06820  Biso   1.000  H
  H21      1.0000 0.66170  0.28930  0.56820  Biso   1.000  H
  H22      1.0000 0.33830  0.28930  0.93180  Biso   1.000  H
  H23      1.0000 0.16170  0.78930  0.56820  Biso   1.000  H
  H24      1.0000 0.83830  0.78930  0.93180  Biso   1.000  H
  C25      1.0000 0.43020  0.81470  0.42940  Biso   1.000  C
  C26      1.0000 0.56980  0.81470  0.07060  Biso   1.000  C
  C27      1.0000 0.93020  0.31470  0.42940  Biso   1.000  C
  C28      1.0000 0.06980  0.31470  0.07060  Biso   1.000  C
  C29      1.0000 0.56980  0.18530  0.57060  Biso   1.000  C
  C30      1.0000 0.43020  0.18530  0.92940  Biso   1.000  C
  C31      1.0000 0.06980  0.68530  0.57060  Biso   1.000  C
  C32      1.0000 0.93020  0.68530  0.92940  Biso   1.000  C
  C33      1.0000 0.40290  0.90960  0.37260  Biso   1.000  C
  C34      1.0000 0.59710  0.90960  0.12740  Biso   1.000  C
  C35      1.0000 0.90290  0.40960  0.37260  Biso   1.000  C
  C36      1.0000 0.09710  0.40960  0.12740  Biso   1.000  C
  C37      1.0000 0.59710  0.09040  0.62740  Biso   1.000  C
  C38      1.0000 0.40290  0.09040  0.87260  Biso   1.000  C
  C39      1.0000 0.09710  0.59040  0.62740  Biso   1.000  C
  C40      1.0000 0.90290  0.59040  0.87260  Biso   1.000  C
  H25      1.0000 0.35350  0.90920  0.35000  Biso   1.000  H
  H26      1.0000 0.64650  0.90920  0.15000  Biso   1.000  H
  H27      1.0000 0.85350  0.40920  0.35000  Biso   1.000  H
  H28      1.0000 0.14650  0.40920  0.15000  Biso   1.000  H
  H29      1.0000 0.64650  0.09080  0.65000  Biso   1.000  H
  H30      1.0000 0.35350  0.09080  0.85000  Biso   1.000  H
  H31      1.0000 0.14650  0.59080  0.65000  Biso   1.000  H
  H32      1.0000 0.85350  0.59080  0.85000  Biso   1.000  H
  C41      1.0000 0.44660  0.99700  0.35170  Biso   1.000  C
  C42      1.0000 0.55340  0.99700  0.14830  Biso   1.000  C
  C43      1.0000 0.94660  0.49700  0.35170  Biso   1.000  C
  C44      1.0000 0.05340  0.49700  0.14830  Biso   1.000  C
  C45      1.0000 0.55340  0.00300  0.64830  Biso   1.000  C
  C46      1.0000 0.44660  0.00300  0.85170  Biso   1.000  C
  C47      1.0000 0.05340  0.50300  0.64830  Biso   1.000  C
  C48      1.0000 0.94660  0.50300  0.85170  Biso   1.000  C
  H33      1.0000 0.42690  0.05740  0.31560  Biso   1.000  H
  H34      1.0000 0.57310  0.05740  0.18440  Biso   1.000  H
  H35      1.0000 0.92690  0.55740  0.31560  Biso   1.000  H
  H36      1.0000 0.07310  0.55740  0.18440  Biso   1.000  H
  H37      1.0000 0.57310  0.94260  0.68440  Biso   1.000  H
  H38      1.0000 0.42690  0.94260  0.81560  Biso   1.000  H
  H39      1.0000 0.07310  0.44260  0.68440  Biso   1.000  H
  H40      1.0000 0.92690  0.44260  0.81560  Biso   1.000  H
  C49      1.0000 0.52400  0.00080  0.38340  Biso   1.000  C
  C50      1.0000 0.47600  0.00080  0.11660  Biso   1.000  C
  C51      1.0000 0.02400  0.50080  0.38340  Biso   1.000  C
  C52      1.0000 0.97600  0.50080  0.11660  Biso   1.000  C
  C53      1.0000 0.47600  0.99920  0.61660  Biso   1.000  C
  C54      1.0000 0.52400  0.99920  0.88340  Biso   1.000  C
  C55      1.0000 0.97600  0.49920  0.61660  Biso   1.000  C
  C56      1.0000 0.02400  0.49920  0.88340  Biso   1.000  C
  C57      1.0000 0.57460  0.08660  0.36140  Biso   1.000  C
  C58      1.0000 0.42540  0.08660  0.13860  Biso   1.000  C
  C59      1.0000 0.07460  0.58660  0.36140  Biso   1.000  C
  C60      1.0000 0.92540  0.58660  0.13860  Biso   1.000  C
  C61      1.0000 0.42540  0.91340  0.63860  Biso   1.000  C
  C62      1.0000 0.57460  0.91340  0.86140  Biso   1.000  C
  C63      1.0000 0.92540  0.41340  0.63860  Biso   1.000  C
  C64      1.0000 0.07460  0.41340  0.86140  Biso   1.000  C
  H41      1.0000 0.55870  0.14890  0.32510  Biso   1.000  H
  H42      1.0000 0.44130  0.14890  0.17490  Biso   1.000  H
  H43      1.0000 0.05870  0.64890  0.32510  Biso   1.000  H
  H44      1.0000 0.94130  0.64890  0.17490  Biso   1.000  H
  H45      1.0000 0.44130  0.85110  0.67490  Biso   1.000  H
  H46      1.0000 0.55870  0.85110  0.82510  Biso   1.000  H
  H47      1.0000 0.94130  0.35110  0.67490  Biso   1.000  H
  H48      1.0000 0.05870  0.35110  0.82510  Biso   1.000  H
  C65      1.0000 0.64710  0.07820  0.39350  Biso   1.000  C
  C66      1.0000 0.35290  0.07820  0.10650  Biso   1.000  C
  C67      1.0000 0.14710  0.57820  0.39350  Biso   1.000  C
  C68      1.0000 0.85290  0.57820  0.10650  Biso   1.000  C
  C69      1.0000 0.35290  0.92180  0.60650  Biso   1.000  C
  C70      1.0000 0.64710  0.92180  0.89350  Biso   1.000  C
  C71      1.0000 0.85290  0.42180  0.60650  Biso   1.000  C
  C72      1.0000 0.14710  0.42180  0.89350  Biso   1.000  C
  H49      1.0000 0.68100  0.13300  0.37760  Biso   1.000  H
  H50      1.0000 0.31900  0.13300  0.12240  Biso   1.000  H
  H51      1.0000 0.18100  0.63300  0.37760  Biso   1.000  H
  H52      1.0000 0.81900  0.63300  0.12240  Biso   1.000  H
  H53      1.0000 0.31900  0.86700  0.62240  Biso   1.000  H
  H54      1.0000 0.68100  0.86700  0.87760  Biso   1.000  H
  H55      1.0000 0.81900  0.36700  0.62240  Biso   1.000  H
  H56      1.0000 0.18100  0.36700  0.87760  Biso   1.000  H
  C73      1.0000 0.67070  0.98690  0.45050  Biso   1.000  C
  C74      1.0000 0.32930  0.98690  0.04950  Biso   1.000  C
  C75      1.0000 0.17070  0.48690  0.45050  Biso   1.000  C
  C76      1.0000 0.82930  0.48690  0.04950  Biso   1.000  C
  C77      1.0000 0.32930  0.01310  0.54950  Biso   1.000  C
  C78      1.0000 0.67070  0.01310  0.95050  Biso   1.000  C
  C79      1.0000 0.82930  0.51310  0.54950  Biso   1.000  C
  C80      1.0000 0.17070  0.51310  0.95050  Biso   1.000  C
  H57      1.0000 0.72040  0.98240  0.47210  Biso   1.000  H
  H58      1.0000 0.27960  0.98240  0.02790  Biso   1.000  H
  H59      1.0000 0.22040  0.48240  0.47210  Biso   1.000  H
  H60      1.0000 0.77960  0.48240  0.02790  Biso   1.000  H
  H61      1.0000 0.27960  0.01760  0.52790  Biso   1.000  H
  H62      1.0000 0.72040  0.01760  0.97210  Biso   1.000  H
  H63      1.0000 0.77960  0.51760  0.52790  Biso   1.000  H
  H64      1.0000 0.22040  0.51760  0.97210  Biso   1.000  H
  C81      1.0000 0.55170  0.91210  0.44030  Biso   1.000  C
  C82      1.0000 0.44830  0.91210  0.05970  Biso   1.000  C
  C83      1.0000 0.05170  0.41210  0.44030  Biso   1.000  C
  C84      1.0000 0.94830  0.41210  0.05970  Biso   1.000  C
  C85      1.0000 0.44830  0.08790  0.55970  Biso   1.000  C
  C86      1.0000 0.55170  0.08790  0.94030  Biso   1.000  C
  C87      1.0000 0.94830  0.58790  0.55970  Biso   1.000  C
  C88      1.0000 0.05170  0.58790  0.94030  Biso   1.000  C
  C89      1.0000 0.50420  0.81870  0.46370  Biso   1.000  C
  C90      1.0000 0.49580  0.81870  0.03630  Biso   1.000  C
  C91      1.0000 0.00420  0.31870  0.46370  Biso   1.000  C
  C92      1.0000 0.99580  0.31870  0.03630  Biso   1.000  C
  C93      1.0000 0.49580  0.18130  0.53630  Biso   1.000  C
  C94      1.0000 0.50420  0.18130  0.96370  Biso   1.000  C
  C95      1.0000 0.99580  0.68130  0.53630  Biso   1.000  C
  C96      1.0000 0.00420  0.68130  0.96370  Biso   1.000  C
  C97      1.0000 0.64620  0.65100  0.69760  Biso   1.000  C
  C98      1.0000 0.35380  0.65100  0.80240  Biso   1.000  C
  C99      1.0000 0.14620  0.15100  0.69760  Biso   1.000  C
  C100     1.0000 0.85380  0.15100  0.80240  Biso   1.000  C
  C101     1.0000 0.35380  0.34900  0.30240  Biso   1.000  C
  C102     1.0000 0.64620  0.34900  0.19760  Biso   1.000  C
  C103     1.0000 0.85380  0.84900  0.30240  Biso   1.000  C
  C104     1.0000 0.14620  0.84900  0.19760  Biso   1.000  C
  C105     1.0000 0.68050  0.54990  0.75760  Biso   1.000  C
  C106     1.0000 0.31950  0.54990  0.74240  Biso   1.000  C
  C107     1.0000 0.18050  0.04990  0.75760  Biso   1.000  C
  C108     1.0000 0.81950  0.04990  0.74240  Biso   1.000  C
  C109     1.0000 0.31950  0.45010  0.24240  Biso   1.000  C
  C110     1.0000 0.68050  0.45010  0.25760  Biso   1.000  C
  C111     1.0000 0.81950  0.95010  0.24240  Biso   1.000  C
  C112     1.0000 0.18050  0.95010  0.25760  Biso   1.000  C
  C113     1.0000 0.62270  0.45490  0.77260  Biso   1.000  C
  C114     1.0000 0.37730  0.45490  0.72740  Biso   1.000  C
  C115     1.0000 0.12270  0.95490  0.77260  Biso   1.000  C
  C116     1.0000 0.87730  0.95490  0.72740  Biso   1.000  C
  C117     1.0000 0.37730  0.54510  0.22740  Biso   1.000  C
  C118     1.0000 0.62270  0.54510  0.27260  Biso   1.000  C
  C119     1.0000 0.87730  0.04510  0.22740  Biso   1.000  C
  C120     1.0000 0.12270  0.04510  0.27260  Biso   1.000  C
  C121     1.0000 0.64760  0.33730  0.81680  Biso   1.000  C
  C122     1.0000 0.35240  0.33730  0.68320  Biso   1.000  C
  C123     1.0000 0.14760  0.83730  0.81680  Biso   1.000  C
  C124     1.0000 0.85240  0.83730  0.68320  Biso   1.000  C
  C125     1.0000 0.35240  0.66270  0.18320  Biso   1.000  C
  C126     1.0000 0.64760  0.66270  0.31680  Biso   1.000  C
  C127     1.0000 0.85240  0.16270  0.18320  Biso   1.000  C
  C128     1.0000 0.14760  0.16270  0.31680  Biso   1.000  C
  C129     1.0000 0.70260  0.34550  0.89520  Biso   1.000  C
  C130     1.0000 0.29740  0.34550  0.60480  Biso   1.000  C
  C131     1.0000 0.20260  0.84550  0.89520  Biso   1.000  C
  C132     1.0000 0.79740  0.84550  0.60480  Biso   1.000  C
  C133     1.0000 0.29740  0.65450  0.10480  Biso   1.000  C
  C134     1.0000 0.70260  0.65450  0.39520  Biso   1.000  C
  C135     1.0000 0.79740  0.15450  0.10480  Biso   1.000  C
  C136     1.0000 0.20260  0.15450  0.39520  Biso   1.000  C
  O1       1.0000 0.65716  0.62950  0.62719  Biso   1.000  O
  O2       1.0000 0.34284  0.62950  0.87281  Biso   1.000  O
  O3       1.0000 0.15716  0.12950  0.62719  Biso   1.000  O
  O4       1.0000 0.84284  0.12950  0.87281  Biso   1.000  O
  O5       1.0000 0.34284  0.37050  0.37281  Biso   1.000  O
  O6       1.0000 0.65716  0.37050  0.12719  Biso   1.000  O
  O7       1.0000 0.84284  0.87050  0.37281  Biso   1.000  O
  O8       1.0000 0.15716  0.87050  0.12719  Biso   1.000  O
  O9       1.0000 0.61450  0.73610  0.72230  Biso   1.000  O
  O10      1.0000 0.38550  0.73610  0.77770  Biso   1.000  O
  O11      1.0000 0.11450  0.23610  0.72230  Biso   1.000  O
  O12      1.0000 0.88550  0.23610  0.77770  Biso   1.000  O
  O13      1.0000 0.38550  0.26390  0.27770  Biso   1.000  O
  O14      1.0000 0.61450  0.26390  0.22230  Biso   1.000  O
  O15      1.0000 0.88550  0.76390  0.27770  Biso   1.000  O
  O16      1.0000 0.11450  0.76390  0.22230  Biso   1.000  O
  F1       1.0000 0.58099  0.42570  0.70193  Biso   1.000  F
  F2       1.0000 0.41901  0.42570  0.79807  Biso   1.000  F
  F3       1.0000 0.08099  0.92570  0.70193  Biso   1.000  F
  F4       1.0000 0.91901  0.92570  0.79807  Biso   1.000  F
  F5       1.0000 0.41901  0.57430  0.29807  Biso   1.000  F
  F6       1.0000 0.58099  0.57430  0.20193  Biso   1.000  F
  F7       1.0000 0.91901  0.07430  0.29807  Biso   1.000  F
  F8       1.0000 0.08099  0.07430  0.20193  Biso   1.000  F
  O17      1.0000 0.67749  0.35570  0.95752  Biso   1.000  O
  O18      1.0000 0.32251  0.35570  0.54248  Biso   1.000  O
  O19      1.0000 0.17749  0.85570  0.95752  Biso   1.000  O
  O20      1.0000 0.82251  0.85570  0.54248  Biso   1.000  O
  O21      1.0000 0.32251  0.64430  0.04248  Biso   1.000  O
  O22      1.0000 0.67749  0.64430  0.45752  Biso   1.000  O
  O23      1.0000 0.82251  0.14430  0.04248  Biso   1.000  O
  O24      1.0000 0.17749  0.14430  0.45752  Biso   1.000  O
  O25      1.0000 0.76821  0.34010  0.88434  Biso   1.000  O
  O26      1.0000 0.23179  0.34010  0.61566  Biso   1.000  O
  O27      1.0000 0.26821  0.84010  0.88434  Biso   1.000  O
  O28      1.0000 0.73179  0.84010  0.61566  Biso   1.000  O
  O29      1.0000 0.23179  0.65990  0.11566  Biso   1.000  O
  O30      1.0000 0.76821  0.65990  0.38434  Biso   1.000  O
  O31      1.0000 0.73179  0.15990  0.11566  Biso   1.000  O
  O32      1.0000 0.26821  0.15990  0.38434  Biso   1.000  O
  F9       1.0000 0.70681  0.59810  0.82754  Biso   1.000  F
  F10      1.0000 0.29319  0.59810  0.67246  Biso   1.000  F
  F11      1.0000 0.20681  0.09810  0.82754  Biso   1.000  F
  F12      1.0000 0.79319  0.09810  0.67246  Biso   1.000  F
  F13      1.0000 0.29319  0.40190  0.17246  Biso   1.000  F
  F14      1.0000 0.70681  0.40190  0.32754  Biso   1.000  F
  F15      1.0000 0.79319  0.90190  0.17246  Biso   1.000  F
  F16      1.0000 0.20681  0.90190  0.32754  Biso   1.000  F
  F17      1.0000 0.73778  0.49380  0.73220  Biso   1.000  F
  F18      1.0000 0.26222  0.49380  0.76780  Biso   1.000  F
  F19      1.0000 0.23778  0.99380  0.73220  Biso   1.000  F
  F20      1.0000 0.76222  0.99380  0.76780  Biso   1.000  F
  F21      1.0000 0.26222  0.50620  0.26780  Biso   1.000  F
  F22      1.0000 0.73778  0.50620  0.23220  Biso   1.000  F
  F23      1.0000 0.76222  0.00620  0.26780  Biso   1.000  F
  F24      1.0000 0.23778  0.00620  0.23220  Biso   1.000  F
  F25      1.0000 0.57886  0.51250  0.81870  Biso   1.000  F
  F26      1.0000 0.42114  0.51250  0.68130  Biso   1.000  F
  F27      1.0000 0.07886  0.01250  0.81870  Biso   1.000  F
  F28      1.0000 0.92114  0.01250  0.68130  Biso   1.000  F
  F29      1.0000 0.42114  0.48750  0.18130  Biso   1.000  F
  F30      1.0000 0.57886  0.48750  0.31870  Biso   1.000  F
  F31      1.0000 0.92114  0.98750  0.18130  Biso   1.000  F
  F32      1.0000 0.07886  0.98750  0.31870  Biso   1.000  F
  F33      1.0000 0.58290  0.31800  0.83900  Biso   1.000  F
  F34      1.0000 0.41710  0.31800  0.66100  Biso   1.000  F
  F35      1.0000 0.08290  0.81800  0.83900  Biso   1.000  F
  F36      1.0000 0.91710  0.81800  0.66100  Biso   1.000  F
  F37      1.0000 0.41710  0.68200  0.16100  Biso   1.000  F
  F38      1.0000 0.58290  0.68200  0.33900  Biso   1.000  F
  F39      1.0000 0.91710  0.18200  0.16100  Biso   1.000  F
  F40      1.0000 0.08290  0.18200  0.33900  Biso   1.000  F
  F41      1.0000 0.67920  0.26540  0.76190  Biso   1.000  F
  F42      1.0000 0.32080  0.26540  0.73810  Biso   1.000  F
  F43      1.0000 0.17920  0.76540  0.76190  Biso   1.000  F
  F44      1.0000 0.82080  0.76540  0.73810  Biso   1.000  F
  F45      1.0000 0.32080  0.73460  0.23810  Biso   1.000  F
  F46      1.0000 0.67920  0.73460  0.26190  Biso   1.000  F
  F47      1.0000 0.82080  0.23460  0.23810  Biso   1.000  F
  F48      1.0000 0.17920  0.23460  0.26190  Biso   1.000  F
  C137     1.0000 0.65050  0.42000  0.75070  Biso   1.000  C
  C138     1.0000 0.34950  0.42000  0.74930  Biso   1.000  C
  C139     1.0000 0.15050  0.92000  0.75070  Biso   1.000  C
  C140     1.0000 0.84950  0.92000  0.74930  Biso   1.000  C
  C141     1.0000 0.34950  0.58000  0.24930  Biso   1.000  C
  C142     1.0000 0.65050  0.58000  0.25070  Biso   1.000  C
  C143     1.0000 0.84950  0.08000  0.24930  Biso   1.000  C
  C144     1.0000 0.15050  0.08000  0.25070  Biso   1.000  C
  F49      1.0000 0.69370  0.35490  0.71170  Biso   1.000  F
  F50      1.0000 0.30630  0.35490  0.78830  Biso   1.000  F
  F51      1.0000 0.19370  0.85490  0.71170  Biso   1.000  F
  F52      1.0000 0.80630  0.85490  0.78830  Biso   1.000  F
  F53      1.0000 0.30630  0.64510  0.28830  Biso   1.000  F
  F54      1.0000 0.69370  0.64510  0.21170  Biso   1.000  F
  F55      1.0000 0.80630  0.14510  0.28830  Biso   1.000  F
  F56      1.0000 0.19370  0.14510  0.21170  Biso   1.000  F
  F57      1.0000 0.59610  0.26090  0.81940  Biso   1.000  F
  F58      1.0000 0.40390  0.26090  0.68060  Biso   1.000  F
  F59      1.0000 0.09610  0.76090  0.81940  Biso   1.000  F
  F60      1.0000 0.90390  0.76090  0.68060  Biso   1.000  F
  F61      1.0000 0.40390  0.73910  0.18060  Biso   1.000  F
  F62      1.0000 0.59610  0.73910  0.31940  Biso   1.000  F
  F63      1.0000 0.90390  0.23910  0.18060  Biso   1.000  F
  F64      1.0000 0.09610  0.23910  0.31940  Biso   1.000  F
