data_image0
_cell_length_a       9.8205
_cell_length_b       11.524
_cell_length_c       11.984
_cell_angle_alpha    62.093
_cell_angle_beta     75.584
_cell_angle_gamma    78.034

_symmetry_space_group_name_H-M    "P 1"
_symmetry_int_tables_number       1

loop_
  _symmetry_equiv_pos_as_xyz
  'x, y, z'

loop_
  _atom_site_label
  _atom_site_occupancy
  _atom_site_fract_x
  _atom_site_fract_y
  _atom_site_fract_z
  _atom_site_thermal_displace_type
  _atom_site_B_iso_or_equiv
  _atom_site_type_symbol
  Cu1      1.0000 0.61245  0.82416  0.18739  Biso   1.000  Cu
  Cu2      1.0000 0.38755  0.17584  0.81261  Biso   1.000  Cu
  Cu3      1.0000 0.85316  0.33018  0.68430  Biso   1.000  Cu
  Cu4      1.0000 0.14684  0.66982  0.31570  Biso   1.000  Cu
  Mo1      1.0000 0.75851  0.01210  0.86032  Biso   1.000  Mo
  Mo2      1.0000 0.24149  0.98790  0.13968  Biso   1.000  Mo
  Mo3      1.0000 0.75277  0.64729  0.46918  Biso   1.000  Mo
  Mo4      1.0000 0.24723  0.35271  0.53082  Biso   1.000  Mo
  O1       1.0000 0.86100  0.14150  0.81810  Biso   1.000  O
  O2       1.0000 0.13900  0.85850  0.18190  Biso   1.000  O
  O3       1.0000 0.75550  0.89780  0.02370  Biso   1.000  O
  O4       1.0000 0.24450  0.10220  0.97630  Biso   1.000  O
  O5       1.0000 0.83000  0.92680  0.76940  Biso   1.000  O
  O6       1.0000 0.17000  0.07320  0.23060  Biso   1.000  O
  O7       1.0000 0.41460  0.92390  0.16530  Biso   1.000  O
  O8       1.0000 0.58540  0.07610  0.83470  Biso   1.000  O
  O9       1.0000 0.64670  0.67510  0.35400  Biso   1.000  O
  O10      1.0000 0.35330  0.32490  0.64600  Biso   1.000  O
  O11      1.0000 0.69980  0.76480  0.52680  Biso   1.000  O
  O12      1.0000 0.30020  0.23520  0.47320  Biso   1.000  O
  O13      1.0000 0.07030  0.34290  0.60270  Biso   1.000  O
  O14      1.0000 0.92970  0.65710  0.39730  Biso   1.000  O
  O15      1.0000 0.73230  0.49120  0.60450  Biso   1.000  O
  O16      1.0000 0.26770  0.50880  0.39550  Biso   1.000  O
  N1       1.0000 0.65570  0.95770  0.23580  Biso   1.000  N
  N2       1.0000 0.34430  0.04230  0.76420  Biso   1.000  N
  N3       1.0000 0.82030  0.27510  0.55740  Biso   1.000  N
  N4       1.0000 0.17970  0.72490  0.44260  Biso   1.000  N
  N5       1.0000 0.56660  0.70130  0.12900  Biso   1.000  N
  N6       1.0000 0.43340  0.29870  0.87100  Biso   1.000  N
  N7       1.0000 0.88660  0.39100  0.80760  Biso   1.000  N
  N8       1.0000 0.11340  0.60900  0.19240  Biso   1.000  N
  C1       1.0000 0.55210  0.01330  0.30030  Biso   1.000  C
  C2       1.0000 0.44790  0.98670  0.69970  Biso   1.000  C
  H1       1.0000 0.45820  0.00160  0.31000  Biso   1.000  H
  H2       1.0000 0.54180  0.99840  0.69000  Biso   1.000  H
  C3       1.0000 0.58480  0.08640  0.35110  Biso   1.000  C
  C4       1.0000 0.41520  0.91360  0.64890  Biso   1.000  C
  H3       1.0000 0.51250  0.12470  0.39400  Biso   1.000  H
  H4       1.0000 0.48750  0.87530  0.60600  Biso   1.000  H
  C5       1.0000 0.72320  0.10450  0.33970  Biso   1.000  C
  C6       1.0000 0.27680  0.89550  0.66030  Biso   1.000  C
  C7       1.0000 0.82700  0.04980  0.27050  Biso   1.000  C
  C8       1.0000 0.17300  0.95020  0.72950  Biso   1.000  C
  H5       1.0000 0.92130  0.06180  0.25800  Biso   1.000  H
  H6       1.0000 0.07870  0.93820  0.74200  Biso   1.000  H
  C9       1.0000 0.78920  0.97810  0.22060  Biso   1.000  C
  C10      1.0000 0.21080  0.02190  0.77940  Biso   1.000  C
  H7       1.0000 0.85970  0.94220  0.17420  Biso   1.000  H
  H8       1.0000 0.14030  0.05780  0.82580  Biso   1.000  H
  C11      1.0000 0.75980  0.17150  0.40850  Biso   1.000  C
  C12      1.0000 0.24020  0.82850  0.59150  Biso   1.000  C
  C13      1.0000 0.65520  0.23920  0.46310  Biso   1.000  C
  C14      1.0000 0.34480  0.76080  0.53690  Biso   1.000  C
  H9       1.0000 0.56230  0.25080  0.45160  Biso   1.000  H
  H10      1.0000 0.43770  0.74920  0.54840  Biso   1.000  H
  C15      1.0000 0.69110  0.28940  0.53520  Biso   1.000  C
  C16      1.0000 0.30890  0.71060  0.46480  Biso   1.000  C
  H11      1.0000 0.62000  0.33610  0.57030  Biso   1.000  H
  H12      1.0000 0.38000  0.66390  0.42970  Biso   1.000  H
  C17      1.0000 0.92380  0.20970  0.50110  Biso   1.000  C
  C18      1.0000 0.07620  0.79030  0.49890  Biso   1.000  C
  H13      1.0000 0.01590  0.19940  0.51420  Biso   1.000  H
  H14      1.0000 0.98410  0.80060  0.48580  Biso   1.000  H
  C19      1.0000 0.89800  0.15880  0.42680  Biso   1.000  C
  C20      1.0000 0.10200  0.84120  0.57320  Biso   1.000  C
  H15      1.0000 0.97150  0.11640  0.38900  Biso   1.000  H
  H16      1.0000 0.02850  0.88360  0.61100  Biso   1.000  H
  C21      1.0000 0.59570  0.57130  0.18360  Biso   1.000  C
  C22      1.0000 0.40430  0.42870  0.81640  Biso   1.000  C
  H17      1.0000 0.63440  0.53270  0.25800  Biso   1.000  H
  H18      1.0000 0.36560  0.46730  0.74200  Biso   1.000  H
  C23      1.0000 0.57230  0.48980  0.13690  Biso   1.000  C
  C24      1.0000 0.42770  0.51020  0.86310  Biso   1.000  C
  H19      1.0000 0.59630  0.39930  0.17970  Biso   1.000  H
  H20      1.0000 0.40370  0.60070  0.82030  Biso   1.000  H
  C25      1.0000 0.51360  0.53990  0.02760  Biso   1.000  C
  C26      1.0000 0.48640  0.46010  0.97240  Biso   1.000  C
  C27      1.0000 0.47860  0.67620  0.97490  Biso   1.000  C
  C28      1.0000 0.52140  0.32380  0.02510  Biso   1.000  C
  H21      1.0000 0.43480  0.71720  0.90330  Biso   1.000  H
  H22      1.0000 0.56520  0.28280  0.09670  Biso   1.000  H
  C29      1.0000 0.50640  0.75020  0.02490  Biso   1.000  C
  C30      1.0000 0.49360  0.24980  0.97510  Biso   1.000  C
  H23      1.0000 0.48230  0.84100  0.98450  Biso   1.000  H
  H24      1.0000 0.51770  0.15900  0.01550  Biso   1.000  H
  C31      1.0000 0.84660  0.51520  0.79930  Biso   1.000  C
  C32      1.0000 0.15340  0.48480  0.20070  Biso   1.000  C
  H25      1.0000 0.78660  0.57260  0.74240  Biso   1.000  H
  H26      1.0000 0.21340  0.42740  0.25760  Biso   1.000  H
  C33      1.0000 0.89050  0.55780  0.87020  Biso   1.000  C
  C34      1.0000 0.10950  0.44220  0.12980  Biso   1.000  C
  H27      1.0000 0.86180  0.64390  0.85960  Biso   1.000  H
  H28      1.0000 0.13820  0.35610  0.14040  Biso   1.000  H
  C35      1.0000 0.97750  0.47630  0.95860  Biso   1.000  C
  C36      1.0000 0.02250  0.52370  0.04140  Biso   1.000  C
  C37      1.0000 0.01030  0.35060  0.97290  Biso   1.000  C
  C38      1.0000 0.98970  0.64940  0.02710  Biso   1.000  C
  H29      1.0000 0.06210  0.28990  0.03570  Biso   1.000  H
  H30      1.0000 0.93790  0.71010  0.96430  Biso   1.000  H
  C39      1.0000 0.96710  0.31100  0.89450  Biso   1.000  C
  C40      1.0000 0.03290  0.68900  0.10550  Biso   1.000  C
  H31      1.0000 0.99580  0.22540  0.90330  Biso   1.000  H
  H32      1.0000 0.00420  0.77460  0.09670  Biso   1.000  H
