data_image0
_cell_length_a       9.812
_cell_length_b       11.507
_cell_length_c       11.987
_cell_angle_alpha    62.07
_cell_angle_beta     75.54
_cell_angle_gamma    78.01

_symmetry_space_group_name_H-M    "P 1"
_symmetry_int_tables_number       1

loop_
  _symmetry_equiv_pos_as_xyz
  'x, y, z'

loop_
  _atom_site_label
  _atom_site_occupancy
  _atom_site_fract_x
  _atom_site_fract_y
  _atom_site_fract_z
  _atom_site_thermal_displace_type
  _atom_site_B_iso_or_equiv
  _atom_site_type_symbol
  Mo1      1.0000 0.25852  0.01214  0.86027  Biso   1.000  Mo
  Mo2      1.0000 0.74148  0.98786  0.13973  Biso   1.000  Mo
  Mo3      1.0000 0.74719  0.35259  0.53096  Biso   1.000  Mo
  Mo4      1.0000 0.25281  0.64741  0.46904  Biso   1.000  Mo
  Cu1      1.0000 0.11270  0.82418  0.18727  Biso   1.000  Cu
  Cu2      1.0000 0.88730  0.17582  0.81273  Biso   1.000  Cu
  Cu3      1.0000 0.35352  0.33032  0.68392  Biso   1.000  Cu
  Cu4      1.0000 0.64648  0.66968  0.31608  Biso   1.000  Cu
  O1       1.0000 0.80050  0.23530  0.47290  Biso   1.000  O
  O2       1.0000 0.19950  0.76470  0.52710  Biso   1.000  O
  O3       1.0000 0.57060  0.34180  0.60170  Biso   1.000  O
  O4       1.0000 0.42940  0.65820  0.39830  Biso   1.000  O
  O5       1.0000 0.23040  0.49150  0.60350  Biso   1.000  O
  O6       1.0000 0.76960  0.50850  0.39650  Biso   1.000  O
  O7       1.0000 0.14710  0.67500  0.35440  Biso   1.000  O
  O8       1.0000 0.85290  0.32500  0.64560  Biso   1.000  O
  O9       1.0000 0.25810  0.89980  0.02310  Biso   1.000  O
  O10      1.0000 0.74190  0.10020  0.97690  Biso   1.000  O
  O11      1.0000 0.08410  0.07560  0.83560  Biso   1.000  O
  O12      1.0000 0.91590  0.92440  0.16440  Biso   1.000  O
  O13      1.0000 0.36140  0.14220  0.81810  Biso   1.000  O
  O14      1.0000 0.63860  0.85780  0.18190  Biso   1.000  O
  O15      1.0000 0.33260  0.92660  0.76950  Biso   1.000  O
  O16      1.0000 0.66740  0.07340  0.23050  Biso   1.000  O
  N1       1.0000 0.06760  0.69990  0.12950  Biso   1.000  N
  N2       1.0000 0.93240  0.30010  0.87050  Biso   1.000  N
  N3       1.0000 0.38650  0.39020  0.80870  Biso   1.000  N
  N4       1.0000 0.61350  0.60980  0.19130  Biso   1.000  N
  N5       1.0000 0.15540  0.95620  0.23500  Biso   1.000  N
  N6       1.0000 0.84460  0.04380  0.76500  Biso   1.000  N
  N7       1.0000 0.32170  0.27300  0.55720  Biso   1.000  N
  N8       1.0000 0.67830  0.72700  0.44280  Biso   1.000  N
  C1       1.0000 0.00820  0.75050  0.02480  Biso   1.000  C
  C2       1.0000 0.99180  0.24950  0.97520  Biso   1.000  C
  H1       1.0000 0.98670  0.84170  0.98360  Biso   1.000  H
  H2       1.0000 0.01330  0.15830  0.01640  Biso   1.000  H
  C3       1.0000 0.97700  0.67480  0.97430  Biso   1.000  C
  C4       1.0000 0.02300  0.32520  0.02570  Biso   1.000  C
  H3       1.0000 0.93110  0.71510  0.90400  Biso   1.000  H
  H4       1.0000 0.06890  0.28490  0.09600  Biso   1.000  H
  C5       1.0000 0.01300  0.54190  0.02690  Biso   1.000  C
  C6       1.0000 0.98700  0.45810  0.97310  Biso   1.000  C
  C7       1.0000 0.07370  0.48980  0.13710  Biso   1.000  C
  C8       1.0000 0.92630  0.51020  0.86290  Biso   1.000  C
  H5       1.0000 0.09840  0.39910  0.17910  Biso   1.000  H
  H6       1.0000 0.90160  0.60090  0.82090  Biso   1.000  H
  C9       1.0000 0.09700  0.57080  0.18340  Biso   1.000  C
  C10      1.0000 0.90300  0.42920  0.81660  Biso   1.000  C
  H7       1.0000 0.13610  0.53210  0.25760  Biso   1.000  H
  H8       1.0000 0.86390  0.46790  0.74240  Biso   1.000  H
  C11      1.0000 0.05360  0.01280  0.29850  Biso   1.000  C
  C12      1.0000 0.94640  0.98720  0.70150  Biso   1.000  C
  H9       1.0000 0.95970  0.00120  0.30760  Biso   1.000  H
  H10      1.0000 0.04030  0.99880  0.69240  Biso   1.000  H
  C13      1.0000 0.08350  0.08760  0.35060  Biso   1.000  C
  C14      1.0000 0.91650  0.91240  0.64940  Biso   1.000  C
  H11      1.0000 0.01000  0.12660  0.39230  Biso   1.000  H
  H12      1.0000 0.99000  0.87340  0.60770  Biso   1.000  H
  C15      1.0000 0.22380  0.10490  0.34100  Biso   1.000  C
  C16      1.0000 0.77620  0.89510  0.65900  Biso   1.000  C
  C17      1.0000 0.32760  0.05030  0.26960  Biso   1.000  C
  C18      1.0000 0.67240  0.94970  0.73040  Biso   1.000  C
  H13      1.0000 0.42210  0.06300  0.25600  Biso   1.000  H
  H14      1.0000 0.57790  0.93700  0.74400  Biso   1.000  H
  C19      1.0000 0.28960  0.97740  0.21920  Biso   1.000  C
  C20      1.0000 0.71040  0.02260  0.78080  Biso   1.000  C
  H15      1.0000 0.36020  0.94180  0.17250  Biso   1.000  H
  H16      1.0000 0.63980  0.05820  0.82750  Biso   1.000  H
  C21      1.0000 0.19190  0.28800  0.53730  Biso   1.000  C
  C22      1.0000 0.80810  0.71200  0.46270  Biso   1.000  C
  H17      1.0000 0.12050  0.33190  0.57540  Biso   1.000  H
  H18      1.0000 0.87950  0.66810  0.42460  Biso   1.000  H
  C23      1.0000 0.39780  0.15820  0.42540  Biso   1.000  C
  C24      1.0000 0.60220  0.84180  0.57460  Biso   1.000  C
  H19      1.0000 0.47150  0.11580  0.38750  Biso   1.000  H
  H20      1.0000 0.52850  0.88420  0.61250  Biso   1.000  H
  C25      1.0000 0.42370  0.21000  0.50160  Biso   1.000  C
  C26      1.0000 0.57630  0.79000  0.49840  Biso   1.000  C
  H21      1.0000 0.51590  0.20040  0.51430  Biso   1.000  H
  H22      1.0000 0.48410  0.79960  0.48570  Biso   1.000  H
  C27      1.0000 0.34710  0.51460  0.79810  Biso   1.000  C
  C28      1.0000 0.65290  0.48540  0.20190  Biso   1.000  C
  H23      1.0000 0.28950  0.57190  0.73890  Biso   1.000  H
  H24      1.0000 0.71050  0.42810  0.26110  Biso   1.000  H
  C29      1.0000 0.38840  0.55960  0.87070  Biso   1.000  C
  C30      1.0000 0.61160  0.44040  0.12930  Biso   1.000  C
  H25      1.0000 0.35810  0.64550  0.86060  Biso   1.000  H
  H26      1.0000 0.64190  0.35450  0.13940  Biso   1.000  H
  C31      1.0000 0.47580  0.47720  0.95970  Biso   1.000  C
  C32      1.0000 0.52420  0.52280  0.04030  Biso   1.000  C
  C33      1.0000 0.51110  0.35280  0.97250  Biso   1.000  C
  C34      1.0000 0.48890  0.64720  0.02750  Biso   1.000  C
  H27      1.0000 0.56560  0.29330  0.03360  Biso   1.000  H
  H28      1.0000 0.43440  0.70670  0.96640  Biso   1.000  H
  C35      1.0000 0.46780  0.31120  0.89610  Biso   1.000  C
  C36      1.0000 0.53220  0.68880  0.10390  Biso   1.000  C
  H29      1.0000 0.49650  0.22500  0.90620  Biso   1.000  H
  H30      1.0000 0.50350  0.77500  0.09380  Biso   1.000  H
  C37      1.0000 0.15770  0.24110  0.46230  Biso   1.000  C
  C38      1.0000 0.84230  0.75890  0.53770  Biso   1.000  C
  H31      1.0000 0.06520  0.25640  0.44830  Biso   1.000  H
  H32      1.0000 0.93480  0.74360  0.55170  Biso   1.000  H
  C39      1.0000 0.26080  0.17100  0.40730  Biso   1.000  C
  C40      1.0000 0.73920  0.82900  0.59270  Biso   1.000  C
