data_image0
_cell_length_a       16.7341
_cell_length_b       16.7341
_cell_length_c       19.613
_cell_angle_alpha    90
_cell_angle_beta     90
_cell_angle_gamma    90

_symmetry_space_group_name_H-M    "P 1"
_symmetry_int_tables_number       1

loop_
  _symmetry_equiv_pos_as_xyz
  'x, y, z'

loop_
  _atom_site_label
  _atom_site_occupancy
  _atom_site_fract_x
  _atom_site_fract_y
  _atom_site_fract_z
  _atom_site_thermal_displace_type
  _atom_site_B_iso_or_equiv
  _atom_site_type_symbol
  C1       1.0000 0.02480  0.14720  0.99510  Biso   1.000  C
  C2       1.0000 0.47520  0.35280  0.49510  Biso   1.000  C
  C3       1.0000 0.85280  0.52480  0.24510  Biso   1.000  C
  C4       1.0000 0.64720  0.97520  0.74510  Biso   1.000  C
  C5       1.0000 0.97520  0.35280  0.25490  Biso   1.000  C
  C6       1.0000 0.52480  0.14720  0.75490  Biso   1.000  C
  C7       1.0000 0.14720  0.97520  0.00490  Biso   1.000  C
  C8       1.0000 0.35280  0.52480  0.50490  Biso   1.000  C
  C9       1.0000 0.52480  0.64720  0.49510  Biso   1.000  C
  C10      1.0000 0.97520  0.85280  0.99510  Biso   1.000  C
  C11      1.0000 0.35280  0.02480  0.74510  Biso   1.000  C
  C12      1.0000 0.14720  0.47520  0.24510  Biso   1.000  C
  C13      1.0000 0.47520  0.85280  0.75490  Biso   1.000  C
  C14      1.0000 0.02480  0.64720  0.25490  Biso   1.000  C
  C15      1.0000 0.64720  0.47520  0.50490  Biso   1.000  C
  C16      1.0000 0.85280  0.02480  0.00490  Biso   1.000  C
  C17      1.0000 0.03770  0.23800  0.99540  Biso   1.000  C
  C18      1.0000 0.46230  0.26200  0.49540  Biso   1.000  C
  C19      1.0000 0.76200  0.53770  0.24540  Biso   1.000  C
  C20      1.0000 0.73800  0.96230  0.74540  Biso   1.000  C
  C21      1.0000 0.96230  0.26200  0.25460  Biso   1.000  C
  C22      1.0000 0.53770  0.23800  0.75460  Biso   1.000  C
  C23      1.0000 0.23800  0.96230  0.00460  Biso   1.000  C
  C24      1.0000 0.26200  0.53770  0.50460  Biso   1.000  C
  C25      1.0000 0.53770  0.73800  0.49540  Biso   1.000  C
  C26      1.0000 0.96230  0.76200  0.99540  Biso   1.000  C
  C27      1.0000 0.26200  0.03770  0.74540  Biso   1.000  C
  C28      1.0000 0.23800  0.46230  0.24540  Biso   1.000  C
  C29      1.0000 0.46230  0.76200  0.75460  Biso   1.000  C
  C30      1.0000 0.03770  0.73800  0.25460  Biso   1.000  C
  C31      1.0000 0.73800  0.46230  0.50460  Biso   1.000  C
  C32      1.0000 0.76200  0.03770  0.00460  Biso   1.000  C
  C33      1.0000 0.86940  0.07140  0.49460  Biso   1.000  C
  C34      1.0000 0.63060  0.42860  0.99460  Biso   1.000  C
  C35      1.0000 0.92860  0.36940  0.74460  Biso   1.000  C
  C36      1.0000 0.57140  0.13060  0.24460  Biso   1.000  C
  C37      1.0000 0.13060  0.42860  0.75540  Biso   1.000  C
  C38      1.0000 0.36940  0.07140  0.25540  Biso   1.000  C
  C39      1.0000 0.07140  0.13060  0.50540  Biso   1.000  C
  C40      1.0000 0.42860  0.36940  0.00540  Biso   1.000  C
  C41      1.0000 0.36940  0.57140  0.99460  Biso   1.000  C
  C42      1.0000 0.13060  0.92860  0.49460  Biso   1.000  C
  C43      1.0000 0.42860  0.86940  0.24460  Biso   1.000  C
  C44      1.0000 0.07140  0.63060  0.74460  Biso   1.000  C
  C45      1.0000 0.63060  0.92860  0.25540  Biso   1.000  C
  C46      1.0000 0.86940  0.57140  0.75540  Biso   1.000  C
  C47      1.0000 0.57140  0.63060  0.00540  Biso   1.000  C
  C48      1.0000 0.92860  0.86940  0.50540  Biso   1.000  C
  C49      1.0000 0.79330  0.12190  0.49360  Biso   1.000  C
  C50      1.0000 0.70670  0.37810  0.99360  Biso   1.000  C
  C51      1.0000 0.87810  0.29330  0.74360  Biso   1.000  C
  C52      1.0000 0.62190  0.20670  0.24360  Biso   1.000  C
  C53      1.0000 0.20670  0.37810  0.75640  Biso   1.000  C
  C54      1.0000 0.29330  0.12190  0.25640  Biso   1.000  C
  C55      1.0000 0.12190  0.20670  0.50640  Biso   1.000  C
  C56      1.0000 0.37810  0.29330  0.00640  Biso   1.000  C
  C57      1.0000 0.29330  0.62190  0.99360  Biso   1.000  C
  C58      1.0000 0.20670  0.87810  0.49360  Biso   1.000  C
  C59      1.0000 0.37810  0.79330  0.24360  Biso   1.000  C
  C60      1.0000 0.12190  0.70670  0.74360  Biso   1.000  C
  C61      1.0000 0.70670  0.87810  0.25640  Biso   1.000  C
  C62      1.0000 0.79330  0.62190  0.75640  Biso   1.000  C
  C63      1.0000 0.62190  0.70670  0.00640  Biso   1.000  C
  C64      1.0000 0.87810  0.79330  0.50640  Biso   1.000  C
  C65      1.0000 0.06320  0.97780  0.21480  Biso   1.000  C
  C66      1.0000 0.43680  0.52220  0.71480  Biso   1.000  C
  C67      1.0000 0.02220  0.56320  0.46480  Biso   1.000  C
  C68      1.0000 0.47780  0.93680  0.96480  Biso   1.000  C
  C69      1.0000 0.93680  0.52220  0.03520  Biso   1.000  C
  C70      1.0000 0.56320  0.97780  0.53520  Biso   1.000  C
  C71      1.0000 0.97780  0.93680  0.78520  Biso   1.000  C
  C72      1.0000 0.52220  0.56320  0.28520  Biso   1.000  C
  C73      1.0000 0.56320  0.47780  0.71480  Biso   1.000  C
  C74      1.0000 0.93680  0.02220  0.21480  Biso   1.000  C
  C75      1.0000 0.52220  0.06320  0.96480  Biso   1.000  C
  C76      1.0000 0.97780  0.43680  0.46480  Biso   1.000  C
  C77      1.0000 0.43680  0.02220  0.53520  Biso   1.000  C
  C78      1.0000 0.06320  0.47780  0.03520  Biso   1.000  C
  C79      1.0000 0.47780  0.43680  0.28520  Biso   1.000  C
  C80      1.0000 0.02220  0.06320  0.78520  Biso   1.000  C
  H1       1.0000 0.10870  0.96190  0.19130  Biso   1.000  H
  H2       1.0000 0.39130  0.53810  0.69130  Biso   1.000  H
  H3       1.0000 0.03810  0.60870  0.44130  Biso   1.000  H
  H4       1.0000 0.46190  0.89130  0.94130  Biso   1.000  H
  H5       1.0000 0.89130  0.53810  0.05870  Biso   1.000  H
  H6       1.0000 0.60870  0.96190  0.55870  Biso   1.000  H
  H7       1.0000 0.96190  0.89130  0.80870  Biso   1.000  H
  H8       1.0000 0.53810  0.60870  0.30870  Biso   1.000  H
  H9       1.0000 0.60870  0.46190  0.69130  Biso   1.000  H
  H10      1.0000 0.89130  0.03810  0.19130  Biso   1.000  H
  H11      1.0000 0.53810  0.10870  0.94130  Biso   1.000  H
  H12      1.0000 0.96190  0.39130  0.44130  Biso   1.000  H
  H13      1.0000 0.39130  0.03810  0.55870  Biso   1.000  H
  H14      1.0000 0.10870  0.46190  0.05870  Biso   1.000  H
  H15      1.0000 0.46190  0.39130  0.30870  Biso   1.000  H
  H16      1.0000 0.03810  0.10870  0.80870  Biso   1.000  H
  C81      1.0000 0.06480  0.97720  0.28520  Biso   1.000  C
  C82      1.0000 0.43520  0.52280  0.78520  Biso   1.000  C
  C83      1.0000 0.02280  0.56480  0.53520  Biso   1.000  C
  C84      1.0000 0.47720  0.93520  0.03520  Biso   1.000  C
  C85      1.0000 0.93520  0.52280  0.96480  Biso   1.000  C
  C86      1.0000 0.56480  0.97720  0.46480  Biso   1.000  C
  C87      1.0000 0.97720  0.93520  0.71480  Biso   1.000  C
  C88      1.0000 0.52280  0.56480  0.21480  Biso   1.000  C
  C89      1.0000 0.56480  0.47720  0.78520  Biso   1.000  C
  C90      1.0000 0.93520  0.02280  0.28520  Biso   1.000  C
  C91      1.0000 0.52280  0.06480  0.03520  Biso   1.000  C
  C92      1.0000 0.97720  0.43520  0.53520  Biso   1.000  C
  C93      1.0000 0.43520  0.02280  0.46480  Biso   1.000  C
  C94      1.0000 0.06480  0.47720  0.96480  Biso   1.000  C
  C95      1.0000 0.47720  0.43520  0.21480  Biso   1.000  C
  C96      1.0000 0.02280  0.06480  0.71480  Biso   1.000  C
  H17      1.0000 0.11070  0.96090  0.30820  Biso   1.000  H
  H18      1.0000 0.38930  0.53910  0.80820  Biso   1.000  H
  H19      1.0000 0.03910  0.61070  0.55820  Biso   1.000  H
  H20      1.0000 0.46090  0.88930  0.05820  Biso   1.000  H
  H21      1.0000 0.88930  0.53910  0.94180  Biso   1.000  H
  H22      1.0000 0.61070  0.96090  0.44180  Biso   1.000  H
  H23      1.0000 0.96090  0.88930  0.69180  Biso   1.000  H
  H24      1.0000 0.53910  0.61070  0.19180  Biso   1.000  H
  H25      1.0000 0.61070  0.46090  0.80820  Biso   1.000  H
  H26      1.0000 0.88930  0.03910  0.30820  Biso   1.000  H
  H27      1.0000 0.53910  0.11070  0.05820  Biso   1.000  H
  H28      1.0000 0.96090  0.38930  0.55820  Biso   1.000  H
  H29      1.0000 0.38930  0.03910  0.44180  Biso   1.000  H
  H30      1.0000 0.11070  0.46090  0.94180  Biso   1.000  H
  H31      1.0000 0.46090  0.38930  0.19180  Biso   1.000  H
  H32      1.0000 0.03910  0.11070  0.69180  Biso   1.000  H
  N1       1.0000 0.00000  0.00000  0.17920  Biso   1.000  N
  N2       1.0000 0.50000  0.50000  0.67920  Biso   1.000  N
  N3       1.0000 0.00000  0.50000  0.42920  Biso   1.000  N
  N4       1.0000 0.50000  0.00000  0.92920  Biso   1.000  N
  N5       1.0000 0.00000  0.50000  0.07080  Biso   1.000  N
  N6       1.0000 0.50000  0.00000  0.57080  Biso   1.000  N
  N7       1.0000 0.00000  0.00000  0.82080  Biso   1.000  N
  N8       1.0000 0.50000  0.50000  0.32080  Biso   1.000  N
  N9       1.0000 0.00000  0.00000  0.32020  Biso   1.000  N
  N10      1.0000 0.50000  0.50000  0.82020  Biso   1.000  N
  N11      1.0000 0.00000  0.50000  0.57020  Biso   1.000  N
  N12      1.0000 0.50000  0.00000  0.07020  Biso   1.000  N
  N13      1.0000 0.00000  0.50000  0.92980  Biso   1.000  N
  N14      1.0000 0.50000  0.00000  0.42980  Biso   1.000  N
  N15      1.0000 0.00000  0.00000  0.67980  Biso   1.000  N
  N16      1.0000 0.50000  0.50000  0.17980  Biso   1.000  N
  Cu1      1.0000 0.00000  0.00000  0.06968  Biso   1.000  Cu
  Cu2      1.0000 0.50000  0.50000  0.56968  Biso   1.000  Cu
  Cu3      1.0000 0.00000  0.50000  0.31968  Biso   1.000  Cu
  Cu4      1.0000 0.50000  0.00000  0.81968  Biso   1.000  Cu
  Cu5      1.0000 0.00000  0.50000  0.18032  Biso   1.000  Cu
  Cu6      1.0000 0.50000  0.00000  0.68032  Biso   1.000  Cu
  Cu7      1.0000 0.00000  0.00000  0.93032  Biso   1.000  Cu
  Cu8      1.0000 0.50000  0.50000  0.43032  Biso   1.000  Cu
  Cu9      1.0000 0.00000  0.00000  0.42967  Biso   1.000  Cu
  Cu10     1.0000 0.50000  0.50000  0.92967  Biso   1.000  Cu
  Cu11     1.0000 0.00000  0.50000  0.67967  Biso   1.000  Cu
  Cu12     1.0000 0.50000  0.00000  0.17967  Biso   1.000  Cu
  Cu13     1.0000 0.00000  0.50000  0.82033  Biso   1.000  Cu
  Cu14     1.0000 0.50000  0.00000  0.32033  Biso   1.000  Cu
  Cu15     1.0000 0.00000  0.00000  0.57033  Biso   1.000  Cu
  Cu16     1.0000 0.50000  0.50000  0.07033  Biso   1.000  Cu
  Cl1      1.0000 0.09000  0.26911  0.92209  Biso   1.000  Cl
  Cl2      1.0000 0.41000  0.23089  0.42209  Biso   1.000  Cl
  Cl3      1.0000 0.73089  0.59000  0.17209  Biso   1.000  Cl
  Cl4      1.0000 0.76911  0.91000  0.67209  Biso   1.000  Cl
  Cl5      1.0000 0.91000  0.23089  0.32791  Biso   1.000  Cl
  Cl6      1.0000 0.59000  0.26911  0.82791  Biso   1.000  Cl
  Cl7      1.0000 0.26911  0.91000  0.07791  Biso   1.000  Cl
  Cl8      1.0000 0.23089  0.59000  0.57791  Biso   1.000  Cl
  Cl9      1.0000 0.59000  0.76911  0.42209  Biso   1.000  Cl
  Cl10     1.0000 0.91000  0.73089  0.92209  Biso   1.000  Cl
  Cl11     1.0000 0.23089  0.09000  0.67209  Biso   1.000  Cl
  Cl12     1.0000 0.26911  0.41000  0.17209  Biso   1.000  Cl
  Cl13     1.0000 0.41000  0.73089  0.82791  Biso   1.000  Cl
  Cl14     1.0000 0.09000  0.76911  0.32791  Biso   1.000  Cl
  Cl15     1.0000 0.76911  0.41000  0.57791  Biso   1.000  Cl
  Cl16     1.0000 0.73089  0.09000  0.07791  Biso   1.000  Cl
  Cl17     1.0000 0.09104  0.26917  0.06813  Biso   1.000  Cl
  Cl18     1.0000 0.40896  0.23083  0.56813  Biso   1.000  Cl
  Cl19     1.0000 0.73083  0.59104  0.31813  Biso   1.000  Cl
  Cl20     1.0000 0.76917  0.90896  0.81813  Biso   1.000  Cl
  Cl21     1.0000 0.90896  0.23083  0.18187  Biso   1.000  Cl
  Cl22     1.0000 0.59104  0.26917  0.68187  Biso   1.000  Cl
  Cl23     1.0000 0.26917  0.90896  0.93187  Biso   1.000  Cl
  Cl24     1.0000 0.23083  0.59104  0.43187  Biso   1.000  Cl
  Cl25     1.0000 0.59104  0.76917  0.56813  Biso   1.000  Cl
  Cl26     1.0000 0.90896  0.73083  0.06813  Biso   1.000  Cl
  Cl27     1.0000 0.23083  0.09104  0.81813  Biso   1.000  Cl
  Cl28     1.0000 0.26917  0.40896  0.31813  Biso   1.000  Cl
  Cl29     1.0000 0.40896  0.73083  0.68187  Biso   1.000  Cl
  Cl30     1.0000 0.09104  0.76917  0.18187  Biso   1.000  Cl
  Cl31     1.0000 0.76917  0.40896  0.43187  Biso   1.000  Cl
  Cl32     1.0000 0.73083  0.09104  0.93187  Biso   1.000  Cl
  Cl33     1.0000 0.94223  0.28200  0.99597  Biso   1.000  Cl
  Cl34     1.0000 0.55777  0.21800  0.49597  Biso   1.000  Cl
  Cl35     1.0000 0.71800  0.44223  0.24597  Biso   1.000  Cl
  Cl36     1.0000 0.78200  0.05777  0.74597  Biso   1.000  Cl
  Cl37     1.0000 0.05777  0.21800  0.25403  Biso   1.000  Cl
  Cl38     1.0000 0.44223  0.28200  0.75403  Biso   1.000  Cl
  Cl39     1.0000 0.28200  0.05777  0.00403  Biso   1.000  Cl
  Cl40     1.0000 0.21800  0.44223  0.50403  Biso   1.000  Cl
  Cl41     1.0000 0.44223  0.78200  0.49597  Biso   1.000  Cl
  Cl42     1.0000 0.05777  0.71800  0.99597  Biso   1.000  Cl
  Cl43     1.0000 0.21800  0.94223  0.74597  Biso   1.000  Cl
  Cl44     1.0000 0.28200  0.55777  0.24597  Biso   1.000  Cl
  Cl45     1.0000 0.55777  0.71800  0.75403  Biso   1.000  Cl
  Cl46     1.0000 0.94223  0.78200  0.25403  Biso   1.000  Cl
  Cl47     1.0000 0.78200  0.55777  0.50403  Biso   1.000  Cl
  Cl48     1.0000 0.71800  0.94223  0.00403  Biso   1.000  Cl
  Cl49     1.0000 0.73366  0.10579  0.56622  Biso   1.000  Cl
  Cl50     1.0000 0.76634  0.39421  0.06622  Biso   1.000  Cl
  Cl51     1.0000 0.89421  0.23366  0.81622  Biso   1.000  Cl
  Cl52     1.0000 0.60579  0.26634  0.31622  Biso   1.000  Cl
  Cl53     1.0000 0.26634  0.39421  0.68378  Biso   1.000  Cl
  Cl54     1.0000 0.23366  0.10579  0.18378  Biso   1.000  Cl
  Cl55     1.0000 0.10579  0.26634  0.43378  Biso   1.000  Cl
  Cl56     1.0000 0.39421  0.23366  0.93378  Biso   1.000  Cl
  Cl57     1.0000 0.23366  0.60579  0.06622  Biso   1.000  Cl
  Cl58     1.0000 0.26634  0.89421  0.56622  Biso   1.000  Cl
  Cl59     1.0000 0.39421  0.73366  0.31622  Biso   1.000  Cl
  Cl60     1.0000 0.10579  0.76634  0.81622  Biso   1.000  Cl
  Cl61     1.0000 0.76634  0.89421  0.18378  Biso   1.000  Cl
  Cl62     1.0000 0.73366  0.60579  0.68378  Biso   1.000  Cl
  Cl63     1.0000 0.60579  0.76634  0.93378  Biso   1.000  Cl
  Cl64     1.0000 0.89421  0.73366  0.43378  Biso   1.000  Cl
  Cl65     1.0000 0.73487  0.10260  0.42021  Biso   1.000  Cl
  Cl66     1.0000 0.76513  0.39740  0.92021  Biso   1.000  Cl
  Cl67     1.0000 0.89740  0.23487  0.67021  Biso   1.000  Cl
  Cl68     1.0000 0.60260  0.26513  0.17021  Biso   1.000  Cl
  Cl69     1.0000 0.26513  0.39740  0.82979  Biso   1.000  Cl
  Cl70     1.0000 0.23487  0.10260  0.32979  Biso   1.000  Cl
  Cl71     1.0000 0.10260  0.26513  0.57979  Biso   1.000  Cl
  Cl72     1.0000 0.39740  0.23487  0.07979  Biso   1.000  Cl
  Cl73     1.0000 0.23487  0.60260  0.92021  Biso   1.000  Cl
  Cl74     1.0000 0.26513  0.89740  0.42021  Biso   1.000  Cl
  Cl75     1.0000 0.39740  0.73487  0.17021  Biso   1.000  Cl
  Cl76     1.0000 0.10260  0.76513  0.67021  Biso   1.000  Cl
  Cl77     1.0000 0.76513  0.89740  0.32979  Biso   1.000  Cl
  Cl78     1.0000 0.73487  0.60260  0.82979  Biso   1.000  Cl
  Cl79     1.0000 0.60260  0.76513  0.07979  Biso   1.000  Cl
  Cl80     1.0000 0.89740  0.73487  0.57979  Biso   1.000  Cl
  Cl81     1.0000 0.82400  0.22178  0.49159  Biso   1.000  Cl
  Cl82     1.0000 0.67600  0.27822  0.99159  Biso   1.000  Cl
  Cl83     1.0000 0.77822  0.32400  0.74159  Biso   1.000  Cl
  Cl84     1.0000 0.72178  0.17600  0.24159  Biso   1.000  Cl
  Cl85     1.0000 0.17600  0.27822  0.75841  Biso   1.000  Cl
  Cl86     1.0000 0.32400  0.22178  0.25841  Biso   1.000  Cl
  Cl87     1.0000 0.22178  0.17600  0.50841  Biso   1.000  Cl
  Cl88     1.0000 0.27822  0.32400  0.00841  Biso   1.000  Cl
  Cl89     1.0000 0.32400  0.72178  0.99159  Biso   1.000  Cl
  Cl90     1.0000 0.17600  0.77822  0.49159  Biso   1.000  Cl
  Cl91     1.0000 0.27822  0.82400  0.24159  Biso   1.000  Cl
  Cl92     1.0000 0.22178  0.67600  0.74159  Biso   1.000  Cl
  Cl93     1.0000 0.67600  0.77822  0.25841  Biso   1.000  Cl
  Cl94     1.0000 0.82400  0.72178  0.75841  Biso   1.000  Cl
  Cl95     1.0000 0.72178  0.67600  0.00841  Biso   1.000  Cl
  Cl96     1.0000 0.77822  0.82400  0.50841  Biso   1.000  Cl
  O1       1.0000 0.01990  0.11490  0.05170  Biso   1.000  O
  O2       1.0000 0.48010  0.38510  0.55170  Biso   1.000  O
  O3       1.0000 0.88510  0.51990  0.30170  Biso   1.000  O
  O4       1.0000 0.61490  0.98010  0.80170  Biso   1.000  O
  O5       1.0000 0.98010  0.38510  0.19830  Biso   1.000  O
  O6       1.0000 0.51990  0.11490  0.69830  Biso   1.000  O
  O7       1.0000 0.11490  0.98010  0.94830  Biso   1.000  O
  O8       1.0000 0.38510  0.51990  0.44830  Biso   1.000  O
  O9       1.0000 0.51990  0.61490  0.55170  Biso   1.000  O
  O10      1.0000 0.98010  0.88510  0.05170  Biso   1.000  O
  O11      1.0000 0.38510  0.01990  0.80170  Biso   1.000  O
  O12      1.0000 0.11490  0.48010  0.30170  Biso   1.000  O
  O13      1.0000 0.48010  0.88510  0.69830  Biso   1.000  O
  O14      1.0000 0.01990  0.61490  0.19830  Biso   1.000  O
  O15      1.0000 0.61490  0.48010  0.44830  Biso   1.000  O
  O16      1.0000 0.88510  0.01990  0.94830  Biso   1.000  O
  O17      1.0000 0.01880  0.11440  0.93880  Biso   1.000  O
  O18      1.0000 0.48120  0.38560  0.43880  Biso   1.000  O
  O19      1.0000 0.88560  0.51880  0.18880  Biso   1.000  O
  O20      1.0000 0.61440  0.98120  0.68880  Biso   1.000  O
  O21      1.0000 0.98120  0.38560  0.31120  Biso   1.000  O
  O22      1.0000 0.51880  0.11440  0.81120  Biso   1.000  O
  O23      1.0000 0.11440  0.98120  0.06120  Biso   1.000  O
  O24      1.0000 0.38560  0.51880  0.56120  Biso   1.000  O
  O25      1.0000 0.51880  0.61440  0.43880  Biso   1.000  O
  O26      1.0000 0.98120  0.88560  0.93880  Biso   1.000  O
  O27      1.0000 0.38560  0.01880  0.68880  Biso   1.000  O
  O28      1.0000 0.11440  0.48120  0.18880  Biso   1.000  O
  O29      1.0000 0.48120  0.88560  0.81120  Biso   1.000  O
  O30      1.0000 0.01880  0.61440  0.31120  Biso   1.000  O
  O31      1.0000 0.61440  0.48120  0.56120  Biso   1.000  O
  O32      1.0000 0.88560  0.01880  0.06120  Biso   1.000  O
  O33      1.0000 0.89770  0.05440  0.43780  Biso   1.000  O
  O34      1.0000 0.60230  0.44560  0.93780  Biso   1.000  O
  O35      1.0000 0.94560  0.39770  0.68780  Biso   1.000  O
  O36      1.0000 0.55440  0.10230  0.18780  Biso   1.000  O
  O37      1.0000 0.10230  0.44560  0.81220  Biso   1.000  O
  O38      1.0000 0.39770  0.05440  0.31220  Biso   1.000  O
  O39      1.0000 0.05440  0.10230  0.56220  Biso   1.000  O
  O40      1.0000 0.44560  0.39770  0.06220  Biso   1.000  O
  O41      1.0000 0.39770  0.55440  0.93780  Biso   1.000  O
  O42      1.0000 0.10230  0.94560  0.43780  Biso   1.000  O
  O43      1.0000 0.44560  0.89770  0.18780  Biso   1.000  O
  O44      1.0000 0.05440  0.60230  0.68780  Biso   1.000  O
  O45      1.0000 0.60230  0.94560  0.31220  Biso   1.000  O
  O46      1.0000 0.89770  0.55440  0.81220  Biso   1.000  O
  O47      1.0000 0.55440  0.60230  0.06220  Biso   1.000  O
  O48      1.0000 0.94560  0.89770  0.56220  Biso   1.000  O
  O49      1.0000 0.89730  0.05540  0.55110  Biso   1.000  O
  O50      1.0000 0.60270  0.44460  0.05110  Biso   1.000  O
  O51      1.0000 0.94460  0.39730  0.80110  Biso   1.000  O
  O52      1.0000 0.55540  0.10270  0.30110  Biso   1.000  O
  O53      1.0000 0.10270  0.44460  0.69890  Biso   1.000  O
  O54      1.0000 0.39730  0.05540  0.19890  Biso   1.000  O
  O55      1.0000 0.05540  0.10270  0.44890  Biso   1.000  O
  O56      1.0000 0.44460  0.39730  0.94890  Biso   1.000  O
  O57      1.0000 0.39730  0.55540  0.05110  Biso   1.000  O
  O58      1.0000 0.10270  0.94460  0.55110  Biso   1.000  O
  O59      1.0000 0.44460  0.89730  0.30110  Biso   1.000  O
  O60      1.0000 0.05540  0.60270  0.80110  Biso   1.000  O
  O61      1.0000 0.60270  0.94460  0.19890  Biso   1.000  O
  O62      1.0000 0.89730  0.55540  0.69890  Biso   1.000  O
  O63      1.0000 0.55540  0.60270  0.94890  Biso   1.000  O
  O64      1.0000 0.94460  0.89730  0.44890  Biso   1.000  O
