data_image0
_cell_length_a       22.346
_cell_length_b       22.346
_cell_length_c       14.2977
_cell_angle_alpha    90
_cell_angle_beta     90
_cell_angle_gamma    90

_symmetry_space_group_name_H-M    "P 1"
_symmetry_int_tables_number       1

loop_
  _symmetry_equiv_pos_as_xyz
  'x, y, z'

loop_
  _atom_site_label
  _atom_site_occupancy
  _atom_site_fract_x
  _atom_site_fract_y
  _atom_site_fract_z
  _atom_site_thermal_displace_type
  _atom_site_B_iso_or_equiv
  _atom_site_type_symbol
  Cu1      1.0000 0.50000  0.50000  0.00000  Biso   1.000  Cu
  Cu2      1.0000 0.00000  0.00000  0.50000  Biso   1.000  Cu
  Cu3      1.0000 0.50000  0.05845  0.00000  Biso   1.000  Cu
  Cu4      1.0000 0.50000  0.94155  0.00000  Biso   1.000  Cu
  Cu5      1.0000 0.94155  0.50000  0.00000  Biso   1.000  Cu
  Cu6      1.0000 0.05845  0.50000  0.00000  Biso   1.000  Cu
  Cu7      1.0000 0.00000  0.55845  0.50000  Biso   1.000  Cu
  Cu8      1.0000 0.00000  0.44155  0.50000  Biso   1.000  Cu
  Cu9      1.0000 0.44155  0.00000  0.50000  Biso   1.000  Cu
  Cu10     1.0000 0.55845  0.00000  0.50000  Biso   1.000  Cu
  O1       1.0000 0.43793  0.04988  0.90353  Biso   1.000  O
  O2       1.0000 0.56207  0.95012  0.90353  Biso   1.000  O
  O3       1.0000 0.95012  0.43793  0.90353  Biso   1.000  O
  O4       1.0000 0.04988  0.56207  0.90353  Biso   1.000  O
  O5       1.0000 0.93793  0.54988  0.40353  Biso   1.000  O
  O6       1.0000 0.06207  0.45012  0.40353  Biso   1.000  O
  O7       1.0000 0.45012  0.93793  0.40353  Biso   1.000  O
  O8       1.0000 0.54988  0.06207  0.40353  Biso   1.000  O
  O9       1.0000 0.43793  0.95012  0.09647  Biso   1.000  O
  O10      1.0000 0.56207  0.04988  0.09647  Biso   1.000  O
  O11      1.0000 0.95012  0.56207  0.09647  Biso   1.000  O
  O12      1.0000 0.04988  0.43793  0.09647  Biso   1.000  O
  O13      1.0000 0.93793  0.45012  0.59647  Biso   1.000  O
  O14      1.0000 0.06207  0.54988  0.59647  Biso   1.000  O
  O15      1.0000 0.45012  0.06207  0.59647  Biso   1.000  O
  O16      1.0000 0.54988  0.93793  0.59647  Biso   1.000  O
  O17      1.0000 0.56207  0.95012  0.09647  Biso   1.000  O
  O18      1.0000 0.43793  0.04988  0.09647  Biso   1.000  O
  O19      1.0000 0.04988  0.56207  0.09647  Biso   1.000  O
  O20      1.0000 0.95012  0.43793  0.09647  Biso   1.000  O
  O21      1.0000 0.06207  0.45012  0.59647  Biso   1.000  O
  O22      1.0000 0.93793  0.54988  0.59647  Biso   1.000  O
  O23      1.0000 0.54988  0.06207  0.59647  Biso   1.000  O
  O24      1.0000 0.45012  0.93793  0.59647  Biso   1.000  O
  O25      1.0000 0.56207  0.04988  0.90353  Biso   1.000  O
  O26      1.0000 0.43793  0.95012  0.90353  Biso   1.000  O
  O27      1.0000 0.04988  0.43793  0.90353  Biso   1.000  O
  O28      1.0000 0.95012  0.56207  0.90353  Biso   1.000  O
  O29      1.0000 0.06207  0.54988  0.40353  Biso   1.000  O
  O30      1.0000 0.93793  0.45012  0.40353  Biso   1.000  O
  O31      1.0000 0.54988  0.93793  0.40353  Biso   1.000  O
  O32      1.0000 0.45012  0.06207  0.40353  Biso   1.000  O
  N1       1.0000 0.56336  0.43664  0.00000  Biso   1.000  N
  N2       1.0000 0.43664  0.56336  0.00000  Biso   1.000  N
  N3       1.0000 0.56336  0.56336  0.00000  Biso   1.000  N
  N4       1.0000 0.43664  0.43664  0.00000  Biso   1.000  N
  N5       1.0000 0.06336  0.93664  0.50000  Biso   1.000  N
  N6       1.0000 0.93664  0.06336  0.50000  Biso   1.000  N
  N7       1.0000 0.06336  0.06336  0.50000  Biso   1.000  N
  N8       1.0000 0.93664  0.93664  0.50000  Biso   1.000  N
  N9       1.0000 0.50000  0.15531  0.00000  Biso   1.000  N
  N10      1.0000 0.50000  0.84469  0.00000  Biso   1.000  N
  N11      1.0000 0.84469  0.50000  0.00000  Biso   1.000  N
  N12      1.0000 0.15531  0.50000  0.00000  Biso   1.000  N
  N13      1.0000 0.00000  0.65531  0.50000  Biso   1.000  N
  N14      1.0000 0.00000  0.34469  0.50000  Biso   1.000  N
  N15      1.0000 0.34469  0.00000  0.50000  Biso   1.000  N
  N16      1.0000 0.65531  0.00000  0.50000  Biso   1.000  N
  C1       1.0000 0.55519  0.37564  0.00000  Biso   1.000  C
  C2       1.0000 0.44481  0.62436  0.00000  Biso   1.000  C
  C3       1.0000 0.62436  0.55519  0.00000  Biso   1.000  C
  C4       1.0000 0.37564  0.44481  0.00000  Biso   1.000  C
  C5       1.0000 0.05519  0.87564  0.50000  Biso   1.000  C
  C6       1.0000 0.94481  0.12436  0.50000  Biso   1.000  C
  C7       1.0000 0.12436  0.05519  0.50000  Biso   1.000  C
  C8       1.0000 0.87564  0.94481  0.50000  Biso   1.000  C
  C9       1.0000 0.55519  0.62436  0.00000  Biso   1.000  C
  C10      1.0000 0.44481  0.37564  0.00000  Biso   1.000  C
  C11      1.0000 0.62436  0.44481  0.00000  Biso   1.000  C
  C12      1.0000 0.37564  0.55519  0.00000  Biso   1.000  C
  C13      1.0000 0.05519  0.12436  0.50000  Biso   1.000  C
  C14      1.0000 0.94481  0.87564  0.50000  Biso   1.000  C
  C15      1.0000 0.12436  0.94481  0.50000  Biso   1.000  C
  C16      1.0000 0.87564  0.05519  0.50000  Biso   1.000  C
  C17      1.0000 0.61181  0.34605  0.00000  Biso   1.000  C
  C18      1.0000 0.38819  0.65395  0.00000  Biso   1.000  C
  C19      1.0000 0.65395  0.61181  0.00000  Biso   1.000  C
  C20      1.0000 0.34605  0.38819  0.00000  Biso   1.000  C
  C21      1.0000 0.11181  0.84605  0.50000  Biso   1.000  C
  C22      1.0000 0.88819  0.15395  0.50000  Biso   1.000  C
  C23      1.0000 0.15395  0.11181  0.50000  Biso   1.000  C
  C24      1.0000 0.84605  0.88819  0.50000  Biso   1.000  C
  C25      1.0000 0.61181  0.65395  0.00000  Biso   1.000  C
  C26      1.0000 0.38819  0.34605  0.00000  Biso   1.000  C
  C27      1.0000 0.65395  0.38819  0.00000  Biso   1.000  C
  C28      1.0000 0.34605  0.61181  0.00000  Biso   1.000  C
  C29      1.0000 0.11181  0.15395  0.50000  Biso   1.000  C
  C30      1.0000 0.88819  0.84605  0.50000  Biso   1.000  C
  C31      1.0000 0.15395  0.88819  0.50000  Biso   1.000  C
  C32      1.0000 0.84605  0.11181  0.50000  Biso   1.000  C
  H1       1.0000 0.61820  0.30400  0.00000  Biso   1.000  H
  H2       1.0000 0.38180  0.69600  0.00000  Biso   1.000  H
  H3       1.0000 0.69600  0.61820  0.00000  Biso   1.000  H
  H4       1.0000 0.30400  0.38180  0.00000  Biso   1.000  H
  H5       1.0000 0.11820  0.80400  0.50000  Biso   1.000  H
  H6       1.0000 0.88180  0.19600  0.50000  Biso   1.000  H
  H7       1.0000 0.19600  0.11820  0.50000  Biso   1.000  H
  H8       1.0000 0.80400  0.88180  0.50000  Biso   1.000  H
  H9       1.0000 0.61820  0.69600  0.00000  Biso   1.000  H
  H10      1.0000 0.38180  0.30400  0.00000  Biso   1.000  H
  H11      1.0000 0.69600  0.38180  0.00000  Biso   1.000  H
  H12      1.0000 0.30400  0.61820  0.00000  Biso   1.000  H
  H13      1.0000 0.11820  0.19600  0.50000  Biso   1.000  H
  H14      1.0000 0.88180  0.80400  0.50000  Biso   1.000  H
  H15      1.0000 0.19600  0.88180  0.50000  Biso   1.000  H
  H16      1.0000 0.80400  0.11820  0.50000  Biso   1.000  H
  C33      1.0000 0.50000  0.34673  0.00000  Biso   1.000  C
  C34      1.0000 0.50000  0.65327  0.00000  Biso   1.000  C
  C35      1.0000 0.65327  0.50000  0.00000  Biso   1.000  C
  C36      1.0000 0.34673  0.50000  0.00000  Biso   1.000  C
  C37      1.0000 0.00000  0.84673  0.50000  Biso   1.000  C
  C38      1.0000 0.00000  0.15327  0.50000  Biso   1.000  C
  C39      1.0000 0.15327  0.00000  0.50000  Biso   1.000  C
  C40      1.0000 0.84673  0.00000  0.50000  Biso   1.000  C
  C41      1.0000 0.50000  0.27964  0.00000  Biso   1.000  C
  C42      1.0000 0.50000  0.72036  0.00000  Biso   1.000  C
  C43      1.0000 0.72036  0.50000  0.00000  Biso   1.000  C
  C44      1.0000 0.27964  0.50000  0.00000  Biso   1.000  C
  C45      1.0000 0.00000  0.77964  0.50000  Biso   1.000  C
  C46      1.0000 0.00000  0.22036  0.50000  Biso   1.000  C
  C47      1.0000 0.22036  0.00000  0.50000  Biso   1.000  C
  C48      1.0000 0.77964  0.00000  0.50000  Biso   1.000  C
  C49      1.0000 0.52600  0.24796  0.92860  Biso   1.000  C
  C50      1.0000 0.47400  0.75204  0.92860  Biso   1.000  C
  C51      1.0000 0.75204  0.52600  0.92860  Biso   1.000  C
  C52      1.0000 0.24796  0.47400  0.92860  Biso   1.000  C
  C53      1.0000 0.02600  0.74796  0.42860  Biso   1.000  C
  C54      1.0000 0.97400  0.25204  0.42860  Biso   1.000  C
  C55      1.0000 0.25204  0.02600  0.42860  Biso   1.000  C
  C56      1.0000 0.74796  0.97400  0.42860  Biso   1.000  C
  C57      1.0000 0.52600  0.75204  0.07140  Biso   1.000  C
  C58      1.0000 0.47400  0.24796  0.07140  Biso   1.000  C
  C59      1.0000 0.75204  0.47400  0.07140  Biso   1.000  C
  C60      1.0000 0.24796  0.52600  0.07140  Biso   1.000  C
  C61      1.0000 0.02600  0.25204  0.57140  Biso   1.000  C
  C62      1.0000 0.97400  0.74796  0.57140  Biso   1.000  C
  C63      1.0000 0.25204  0.97400  0.57140  Biso   1.000  C
  C64      1.0000 0.74796  0.02600  0.57140  Biso   1.000  C
  C65      1.0000 0.47400  0.75204  0.07140  Biso   1.000  C
  C66      1.0000 0.52600  0.24796  0.07140  Biso   1.000  C
  C67      1.0000 0.24796  0.47400  0.07140  Biso   1.000  C
  C68      1.0000 0.75204  0.52600  0.07140  Biso   1.000  C
  C69      1.0000 0.97400  0.25204  0.57140  Biso   1.000  C
  C70      1.0000 0.02600  0.74796  0.57140  Biso   1.000  C
  C71      1.0000 0.74796  0.97400  0.57140  Biso   1.000  C
  C72      1.0000 0.25204  0.02600  0.57140  Biso   1.000  C
  C73      1.0000 0.47400  0.24796  0.92860  Biso   1.000  C
  C74      1.0000 0.52600  0.75204  0.92860  Biso   1.000  C
  C75      1.0000 0.24796  0.52600  0.92860  Biso   1.000  C
  C76      1.0000 0.75204  0.47400  0.92860  Biso   1.000  C
  C77      1.0000 0.97400  0.74796  0.42860  Biso   1.000  C
  C78      1.0000 0.02600  0.25204  0.42860  Biso   1.000  C
  C79      1.0000 0.74796  0.02600  0.42860  Biso   1.000  C
  C80      1.0000 0.25204  0.97400  0.42860  Biso   1.000  C
  C81      1.0000 0.52480  0.18540  0.92970  Biso   1.000  C
  C82      1.0000 0.47520  0.81460  0.92970  Biso   1.000  C
  C83      1.0000 0.81460  0.52480  0.92970  Biso   1.000  C
  C84      1.0000 0.18540  0.47520  0.92970  Biso   1.000  C
  C85      1.0000 0.02480  0.68540  0.42970  Biso   1.000  C
  C86      1.0000 0.97520  0.31460  0.42970  Biso   1.000  C
  C87      1.0000 0.31460  0.02480  0.42970  Biso   1.000  C
  C88      1.0000 0.68540  0.97520  0.42970  Biso   1.000  C
  C89      1.0000 0.52480  0.81460  0.07030  Biso   1.000  C
  C90      1.0000 0.47520  0.18540  0.07030  Biso   1.000  C
  C91      1.0000 0.81460  0.47520  0.07030  Biso   1.000  C
  C92      1.0000 0.18540  0.52480  0.07030  Biso   1.000  C
  C93      1.0000 0.02480  0.31460  0.57030  Biso   1.000  C
  C94      1.0000 0.97520  0.68540  0.57030  Biso   1.000  C
  C95      1.0000 0.31460  0.97520  0.57030  Biso   1.000  C
  C96      1.0000 0.68540  0.02480  0.57030  Biso   1.000  C
  C97      1.0000 0.47520  0.81460  0.07030  Biso   1.000  C
  C98      1.0000 0.52480  0.18540  0.07030  Biso   1.000  C
  C99      1.0000 0.18540  0.47520  0.07030  Biso   1.000  C
  C100     1.0000 0.81460  0.52480  0.07030  Biso   1.000  C
  C101     1.0000 0.97520  0.31460  0.57030  Biso   1.000  C
  C102     1.0000 0.02480  0.68540  0.57030  Biso   1.000  C
  C103     1.0000 0.68540  0.97520  0.57030  Biso   1.000  C
  C104     1.0000 0.31460  0.02480  0.57030  Biso   1.000  C
  C105     1.0000 0.47520  0.18540  0.92970  Biso   1.000  C
  C106     1.0000 0.52480  0.81460  0.92970  Biso   1.000  C
  C107     1.0000 0.18540  0.52480  0.92970  Biso   1.000  C
  C108     1.0000 0.81460  0.47520  0.92970  Biso   1.000  C
  C109     1.0000 0.97520  0.68540  0.42970  Biso   1.000  C
  C110     1.0000 0.02480  0.31460  0.42970  Biso   1.000  C
  C111     1.0000 0.68540  0.02480  0.42970  Biso   1.000  C
  C112     1.0000 0.31460  0.97520  0.42970  Biso   1.000  C
  C113     1.0000 0.41988  0.00000  0.87380  Biso   1.000  C
  C114     1.0000 0.58012  0.00000  0.87380  Biso   1.000  C
  C115     1.0000 0.00000  0.41988  0.87380  Biso   1.000  C
  C116     1.0000 0.00000  0.58012  0.87380  Biso   1.000  C
  C117     1.0000 0.91988  0.50000  0.37380  Biso   1.000  C
  C118     1.0000 0.08012  0.50000  0.37380  Biso   1.000  C
  C119     1.0000 0.50000  0.91988  0.37380  Biso   1.000  C
  C120     1.0000 0.50000  0.08012  0.37380  Biso   1.000  C
  C121     1.0000 0.41988  0.00000  0.12620  Biso   1.000  C
  C122     1.0000 0.58012  0.00000  0.12620  Biso   1.000  C
  C123     1.0000 0.00000  0.58012  0.12620  Biso   1.000  C
  C124     1.0000 0.00000  0.41988  0.12620  Biso   1.000  C
  C125     1.0000 0.91988  0.50000  0.62620  Biso   1.000  C
  C126     1.0000 0.08012  0.50000  0.62620  Biso   1.000  C
  C127     1.0000 0.50000  0.08012  0.62620  Biso   1.000  C
  C128     1.0000 0.50000  0.91988  0.62620  Biso   1.000  C
  C129     1.0000 0.37330  0.00000  0.80030  Biso   1.000  C
  C130     1.0000 0.62670  0.00000  0.80030  Biso   1.000  C
  C131     1.0000 0.00000  0.37330  0.80030  Biso   1.000  C
  C132     1.0000 0.00000  0.62670  0.80030  Biso   1.000  C
  C133     1.0000 0.87330  0.50000  0.30030  Biso   1.000  C
  C134     1.0000 0.12670  0.50000  0.30030  Biso   1.000  C
  C135     1.0000 0.50000  0.87330  0.30030  Biso   1.000  C
  C136     1.0000 0.50000  0.12670  0.30030  Biso   1.000  C
  C137     1.0000 0.37330  0.00000  0.19970  Biso   1.000  C
  C138     1.0000 0.62670  0.00000  0.19970  Biso   1.000  C
  C139     1.0000 0.00000  0.62670  0.19970  Biso   1.000  C
  C140     1.0000 0.00000  0.37330  0.19970  Biso   1.000  C
  C141     1.0000 0.87330  0.50000  0.69970  Biso   1.000  C
  C142     1.0000 0.12670  0.50000  0.69970  Biso   1.000  C
  C143     1.0000 0.50000  0.12670  0.69970  Biso   1.000  C
  C144     1.0000 0.50000  0.87330  0.69970  Biso   1.000  C
  H17      1.0000 0.38840  0.02080  0.74480  Biso   1.000  H
  H18      1.0000 0.61160  0.97920  0.74480  Biso   1.000  H
  H19      1.0000 0.97920  0.38840  0.74480  Biso   1.000  H
  H20      1.0000 0.02080  0.61160  0.74480  Biso   1.000  H
  H21      1.0000 0.88840  0.52080  0.24480  Biso   1.000  H
  H22      1.0000 0.11160  0.47920  0.24480  Biso   1.000  H
  H23      1.0000 0.47920  0.88840  0.24480  Biso   1.000  H
  H24      1.0000 0.52080  0.11160  0.24480  Biso   1.000  H
  H25      1.0000 0.38840  0.97920  0.25520  Biso   1.000  H
  H26      1.0000 0.61160  0.02080  0.25520  Biso   1.000  H
  H27      1.0000 0.97920  0.61160  0.25520  Biso   1.000  H
  H28      1.0000 0.02080  0.38840  0.25520  Biso   1.000  H
  H29      1.0000 0.88840  0.47920  0.75520  Biso   1.000  H
  H30      1.0000 0.11160  0.52080  0.75520  Biso   1.000  H
  H31      1.0000 0.47920  0.11160  0.75520  Biso   1.000  H
  H32      1.0000 0.52080  0.88840  0.75520  Biso   1.000  H
  H33      1.0000 0.61160  0.97920  0.25520  Biso   1.000  H
  H34      1.0000 0.38840  0.02080  0.25520  Biso   1.000  H
  H35      1.0000 0.02080  0.61160  0.25520  Biso   1.000  H
  H36      1.0000 0.97920  0.38840  0.25520  Biso   1.000  H
  H37      1.0000 0.11160  0.47920  0.75520  Biso   1.000  H
  H38      1.0000 0.88840  0.52080  0.75520  Biso   1.000  H
  H39      1.0000 0.52080  0.11160  0.75520  Biso   1.000  H
  H40      1.0000 0.47920  0.88840  0.75520  Biso   1.000  H
  H41      1.0000 0.61160  0.02080  0.74480  Biso   1.000  H
  H42      1.0000 0.38840  0.97920  0.74480  Biso   1.000  H
  H43      1.0000 0.02080  0.38840  0.74480  Biso   1.000  H
  H44      1.0000 0.97920  0.61160  0.74480  Biso   1.000  H
  H45      1.0000 0.11160  0.52080  0.24480  Biso   1.000  H
  H46      1.0000 0.88840  0.47920  0.24480  Biso   1.000  H
  H47      1.0000 0.52080  0.88840  0.24480  Biso   1.000  H
  H48      1.0000 0.47920  0.11160  0.24480  Biso   1.000  H
  H49      1.0000 0.33750  0.02050  0.82360  Biso   1.000  H
  H50      1.0000 0.66250  0.97950  0.82360  Biso   1.000  H
  H51      1.0000 0.97950  0.33750  0.82360  Biso   1.000  H
  H52      1.0000 0.02050  0.66250  0.82360  Biso   1.000  H
  H53      1.0000 0.83750  0.52050  0.32360  Biso   1.000  H
  H54      1.0000 0.16250  0.47950  0.32360  Biso   1.000  H
  H55      1.0000 0.47950  0.83750  0.32360  Biso   1.000  H
  H56      1.0000 0.52050  0.16250  0.32360  Biso   1.000  H
  H57      1.0000 0.33750  0.97950  0.17640  Biso   1.000  H
  H58      1.0000 0.66250  0.02050  0.17640  Biso   1.000  H
  H59      1.0000 0.97950  0.66250  0.17640  Biso   1.000  H
  H60      1.0000 0.02050  0.33750  0.17640  Biso   1.000  H
  H61      1.0000 0.83750  0.47950  0.67640  Biso   1.000  H
  H62      1.0000 0.16250  0.52050  0.67640  Biso   1.000  H
  H63      1.0000 0.47950  0.16250  0.67640  Biso   1.000  H
  H64      1.0000 0.52050  0.83750  0.67640  Biso   1.000  H
  H65      1.0000 0.66250  0.97950  0.17640  Biso   1.000  H
  H66      1.0000 0.33750  0.02050  0.17640  Biso   1.000  H
  H67      1.0000 0.02050  0.66250  0.17640  Biso   1.000  H
  H68      1.0000 0.97950  0.33750  0.17640  Biso   1.000  H
  H69      1.0000 0.16250  0.47950  0.67640  Biso   1.000  H
  H70      1.0000 0.83750  0.52050  0.67640  Biso   1.000  H
  H71      1.0000 0.52050  0.16250  0.67640  Biso   1.000  H
  H72      1.0000 0.47950  0.83750  0.67640  Biso   1.000  H
  H73      1.0000 0.66250  0.02050  0.82360  Biso   1.000  H
  H74      1.0000 0.33750  0.97950  0.82360  Biso   1.000  H
  H75      1.0000 0.02050  0.33750  0.82360  Biso   1.000  H
  H76      1.0000 0.97950  0.66250  0.82360  Biso   1.000  H
  H77      1.0000 0.16250  0.52050  0.32360  Biso   1.000  H
  H78      1.0000 0.83750  0.47950  0.32360  Biso   1.000  H
  H79      1.0000 0.52050  0.83750  0.32360  Biso   1.000  H
  H80      1.0000 0.47950  0.16250  0.32360  Biso   1.000  H
  H81      1.0000 0.36320  0.95870  0.78390  Biso   1.000  H
  H82      1.0000 0.63680  0.04130  0.78390  Biso   1.000  H
  H83      1.0000 0.04130  0.36320  0.78390  Biso   1.000  H
  H84      1.0000 0.95870  0.63680  0.78390  Biso   1.000  H
  H85      1.0000 0.86320  0.45870  0.28390  Biso   1.000  H
  H86      1.0000 0.13680  0.54130  0.28390  Biso   1.000  H
  H87      1.0000 0.54130  0.86320  0.28390  Biso   1.000  H
  H88      1.0000 0.45870  0.13680  0.28390  Biso   1.000  H
  H89      1.0000 0.36320  0.04130  0.21610  Biso   1.000  H
  H90      1.0000 0.63680  0.95870  0.21610  Biso   1.000  H
  H91      1.0000 0.04130  0.63680  0.21610  Biso   1.000  H
  H92      1.0000 0.95870  0.36320  0.21610  Biso   1.000  H
  H93      1.0000 0.86320  0.54130  0.71610  Biso   1.000  H
  H94      1.0000 0.13680  0.45870  0.71610  Biso   1.000  H
  H95      1.0000 0.54130  0.13680  0.71610  Biso   1.000  H
  H96      1.0000 0.45870  0.86320  0.71610  Biso   1.000  H
  H97      1.0000 0.63680  0.04130  0.21610  Biso   1.000  H
  H98      1.0000 0.36320  0.95870  0.21610  Biso   1.000  H
  H99      1.0000 0.95870  0.63680  0.21610  Biso   1.000  H
  H100     1.0000 0.04130  0.36320  0.21610  Biso   1.000  H
  H101     1.0000 0.13680  0.54130  0.71610  Biso   1.000  H
  H102     1.0000 0.86320  0.45870  0.71610  Biso   1.000  H
  H103     1.0000 0.45870  0.13680  0.71610  Biso   1.000  H
  H104     1.0000 0.54130  0.86320  0.71610  Biso   1.000  H
  H105     1.0000 0.63680  0.95870  0.78390  Biso   1.000  H
  H106     1.0000 0.36320  0.04130  0.78390  Biso   1.000  H
  H107     1.0000 0.95870  0.36320  0.78390  Biso   1.000  H
  H108     1.0000 0.04130  0.63680  0.78390  Biso   1.000  H
  H109     1.0000 0.13680  0.45870  0.28390  Biso   1.000  H
  H110     1.0000 0.86320  0.54130  0.28390  Biso   1.000  H
  H111     1.0000 0.45870  0.86320  0.28390  Biso   1.000  H
  H112     1.0000 0.54130  0.13680  0.28390  Biso   1.000  H
