data_image0
_cell_length_a       8.349
_cell_length_b       17.725
_cell_length_c       10.129
_cell_angle_alpha    90
_cell_angle_beta     90.866
_cell_angle_gamma    90

_symmetry_space_group_name_H-M    "P 1"
_symmetry_int_tables_number       1

loop_
  _symmetry_equiv_pos_as_xyz
  'x, y, z'

loop_
  _atom_site_label
  _atom_site_occupancy
  _atom_site_fract_x
  _atom_site_fract_y
  _atom_site_fract_z
  _atom_site_thermal_displace_type
  _atom_site_B_iso_or_equiv
  _atom_site_type_symbol
  Ag1      1.0000 0.47404  0.54725  0.38741  Biso   1.000  Ag
  Ag2      1.0000 0.02596  0.04725  0.11259  Biso   1.000  Ag
  Ag3      1.0000 0.52596  0.45275  0.61259  Biso   1.000  Ag
  Ag4      1.0000 0.97404  0.95275  0.88741  Biso   1.000  Ag
  Cu1      1.0000 0.76290  0.74042  0.44279  Biso   1.000  Cu
  Cu2      1.0000 0.73710  0.24042  0.05721  Biso   1.000  Cu
  Cu3      1.0000 0.23710  0.25958  0.55721  Biso   1.000  Cu
  Cu4      1.0000 0.26290  0.75958  0.94279  Biso   1.000  Cu
  O1       1.0000 0.78520  0.71410  0.25880  Biso   1.000  O
  O2       1.0000 0.71480  0.21410  0.24120  Biso   1.000  O
  O3       1.0000 0.21480  0.28590  0.74120  Biso   1.000  O
  O4       1.0000 0.28520  0.78590  0.75880  Biso   1.000  O
  O5       1.0000 0.92530  0.64250  0.12220  Biso   1.000  O
  O6       1.0000 0.57470  0.14250  0.37780  Biso   1.000  O
  O7       1.0000 0.07470  0.35750  0.87780  Biso   1.000  O
  O8       1.0000 0.42530  0.85750  0.62220  Biso   1.000  O
  O9       1.0000 0.66390  0.61040  0.50340  Biso   1.000  O
  O10      1.0000 0.83610  0.11040  0.99660  Biso   1.000  O
  O11      1.0000 0.33610  0.38960  0.49660  Biso   1.000  O
  O12      1.0000 0.16390  0.88960  0.00340  Biso   1.000  O
  O13      1.0000 0.75380  0.51830  0.63420  Biso   1.000  O
  O14      1.0000 0.74620  0.01830  0.86580  Biso   1.000  O
  O15      1.0000 0.24620  0.48170  0.36580  Biso   1.000  O
  O16      1.0000 0.25380  0.98170  0.13420  Biso   1.000  O
  O17      1.0000 0.68530  0.91520  0.37960  Biso   1.000  O
  O18      1.0000 0.81470  0.41520  0.12040  Biso   1.000  O
  O19      1.0000 0.31470  0.08480  0.62040  Biso   1.000  O
  O20      1.0000 0.18530  0.58480  0.87960  Biso   1.000  O
  O21      1.0000 0.70250  0.48870  0.26810  Biso   1.000  O
  O22      1.0000 0.79750  0.98870  0.23190  Biso   1.000  O
  O23      1.0000 0.29750  0.51130  0.73190  Biso   1.000  O
  O24      1.0000 0.20250  0.01130  0.76810  Biso   1.000  O
  O25      1.0000 0.37700  0.65820  0.28390  Biso   1.000  O
  O26      1.0000 0.12300  0.15820  0.21610  Biso   1.000  O
  O27      1.0000 0.62300  0.34180  0.71610  Biso   1.000  O
  O28      1.0000 0.87700  0.84180  0.78390  Biso   1.000  O
  O29      1.0000 0.76760  0.77260  0.62610  Biso   1.000  O
  O30      1.0000 0.73240  0.27260  0.87390  Biso   1.000  O
  O31      1.0000 0.23240  0.22740  0.37390  Biso   1.000  O
  O32      1.0000 0.26760  0.72740  0.12610  Biso   1.000  O
  O33      1.0000 0.53540  0.77160  0.41530  Biso   1.000  O
  O34      1.0000 0.96460  0.27160  0.08470  Biso   1.000  O
  O35      1.0000 0.46460  0.22840  0.58470  Biso   1.000  O
  O36      1.0000 0.03540  0.72840  0.91530  Biso   1.000  O
  O37      1.0000 0.43440  0.99730  0.36460  Biso   1.000  O
  O38      1.0000 0.06560  0.49730  0.13540  Biso   1.000  O
  O39      1.0000 0.56560  0.00270  0.63540  Biso   1.000  O
  O40      1.0000 0.93440  0.50270  0.86460  Biso   1.000  O
  N1       1.0000 0.95940  0.67130  0.47710  Biso   1.000  N
  N2       1.0000 0.54060  0.17130  0.02290  Biso   1.000  N
  N3       1.0000 0.04060  0.32870  0.52290  Biso   1.000  N
  N4       1.0000 0.45940  0.82870  0.97710  Biso   1.000  N
  N5       1.0000 0.95720  0.83570  0.43360  Biso   1.000  N
  N6       1.0000 0.54280  0.33570  0.06640  Biso   1.000  N
  N7       1.0000 0.04280  0.16430  0.56640  Biso   1.000  N
  N8       1.0000 0.45720  0.66430  0.93360  Biso   1.000  N
  C1       1.0000 0.09800  0.71970  0.50880  Biso   1.000  C
  C2       1.0000 0.40200  0.21970  0.99120  Biso   1.000  C
  C3       1.0000 0.90200  0.28030  0.49120  Biso   1.000  C
  C4       1.0000 0.59800  0.78030  0.00880  Biso   1.000  C
  C5       1.0000 0.10300  0.78840  0.42060  Biso   1.000  C
  C6       1.0000 0.39700  0.28840  0.07940  Biso   1.000  C
  C7       1.0000 0.89700  0.21160  0.57940  Biso   1.000  C
  C8       1.0000 0.60300  0.71160  0.92060  Biso   1.000  C
  C9       1.0000 0.98240  0.62920  0.35060  Biso   1.000  C
  C10      1.0000 0.51760  0.12920  0.14940  Biso   1.000  C
  C11      1.0000 0.01760  0.37080  0.64940  Biso   1.000  C
  C12      1.0000 0.48240  0.87080  0.85060  Biso   1.000  C
  C13      1.0000 0.89440  0.66450  0.23340  Biso   1.000  C
  C14      1.0000 0.60560  0.16450  0.26660  Biso   1.000  C
  C15      1.0000 0.10560  0.33550  0.76660  Biso   1.000  C
  C16      1.0000 0.39440  0.83550  0.73340  Biso   1.000  C
  C17      1.0000 0.93110  0.61780  0.58540  Biso   1.000  C
  C18      1.0000 0.56890  0.11780  0.91460  Biso   1.000  C
  C19      1.0000 0.06890  0.38220  0.41460  Biso   1.000  C
  C20      1.0000 0.43110  0.88220  0.08540  Biso   1.000  C
  C21      1.0000 0.76870  0.57910  0.57180  Biso   1.000  C
  C22      1.0000 0.73130  0.07910  0.92820  Biso   1.000  C
  C23      1.0000 0.23130  0.42090  0.42820  Biso   1.000  C
  C24      1.0000 0.26870  0.92090  0.07180  Biso   1.000  C
  C25      1.0000 0.95640  0.89180  0.32730  Biso   1.000  C
  C26      1.0000 0.54360  0.39180  0.17270  Biso   1.000  C
  C27      1.0000 0.04360  0.10820  0.67270  Biso   1.000  C
  C28      1.0000 0.45640  0.60820  0.82730  Biso   1.000  C
  C29      1.0000 0.80510  0.93680  0.30810  Biso   1.000  C
  C30      1.0000 0.69490  0.43680  0.19190  Biso   1.000  C
  C31      1.0000 0.19490  0.06320  0.69190  Biso   1.000  C
  C32      1.0000 0.30510  0.56320  0.80810  Biso   1.000  C
  C33      1.0000 0.95040  0.87080  0.56440  Biso   1.000  C
  C34      1.0000 0.54960  0.37080  0.93560  Biso   1.000  C
  C35      1.0000 0.04960  0.12920  0.43560  Biso   1.000  C
  C36      1.0000 0.45040  0.62920  0.06440  Biso   1.000  C
  C37      1.0000 0.85770  0.82460  0.66430  Biso   1.000  C
  C38      1.0000 0.64230  0.32460  0.83570  Biso   1.000  C
  C39      1.0000 0.14230  0.17540  0.33570  Biso   1.000  C
  C40      1.0000 0.35770  0.67540  0.16430  Biso   1.000  C
  H1       1.0000 0.57900  0.93300  0.40900  Biso   1.000  H
  H2       1.0000 0.92100  0.43300  0.09100  Biso   1.000  H
  H3       1.0000 0.42100  0.06700  0.59100  Biso   1.000  H
  H4       1.0000 0.07900  0.56700  0.90900  Biso   1.000  H
  H5       1.0000 0.49000  0.72200  0.41300  Biso   1.000  H
  H6       1.0000 0.01000  0.22200  0.08700  Biso   1.000  H
  H7       1.0000 0.51000  0.27800  0.58700  Biso   1.000  H
  H8       1.0000 0.99000  0.77800  0.91300  Biso   1.000  H
  H9       1.0000 0.50900  0.79100  0.50000  Biso   1.000  H
  H10      1.0000 0.99100  0.29100  0.00000  Biso   1.000  H
  H11      1.0000 0.49100  0.20900  0.50000  Biso   1.000  H
  H12      1.0000 0.00900  0.70900  0.00000  Biso   1.000  H
  H13      1.0000 0.39200  0.99600  0.27600  Biso   1.000  H
  H14      1.0000 0.10800  0.49600  0.22400  Biso   1.000  H
  H15      1.0000 0.60800  0.00400  0.72400  Biso   1.000  H
  H16      1.0000 0.89200  0.50400  0.77600  Biso   1.000  H
  H17      1.0000 0.45000  0.05000  0.38300  Biso   1.000  H
  H18      1.0000 0.05000  0.55000  0.11700  Biso   1.000  H
  H19      1.0000 0.55000  0.95000  0.61700  Biso   1.000  H
  H20      1.0000 0.95000  0.45000  0.88300  Biso   1.000  H
  H21      1.0000 0.09900  0.73600  0.60000  Biso   1.000  H
  H22      1.0000 0.40100  0.23600  0.90000  Biso   1.000  H
  H23      1.0000 0.90100  0.26400  0.40000  Biso   1.000  H
  H24      1.0000 0.59900  0.76400  0.10000  Biso   1.000  H
  H25      1.0000 0.18500  0.68500  0.49200  Biso   1.000  H
  H26      1.0000 0.31500  0.18500  0.00800  Biso   1.000  H
  H27      1.0000 0.81500  0.31500  0.50800  Biso   1.000  H
  H28      1.0000 0.68500  0.81500  0.99200  Biso   1.000  H
  H29      1.0000 0.19700  0.81800  0.44500  Biso   1.000  H
  H30      1.0000 0.30300  0.31800  0.05500  Biso   1.000  H
  H31      1.0000 0.80300  0.18200  0.55500  Biso   1.000  H
  H32      1.0000 0.69700  0.68200  0.94500  Biso   1.000  H
  H33      1.0000 0.10900  0.77200  0.33000  Biso   1.000  H
  H34      1.0000 0.39100  0.27200  0.17000  Biso   1.000  H
  H35      1.0000 0.89100  0.22800  0.67000  Biso   1.000  H
  H36      1.0000 0.60900  0.72800  0.83000  Biso   1.000  H
  H37      1.0000 0.93800  0.57900  0.36100  Biso   1.000  H
  H38      1.0000 0.56200  0.07900  0.13900  Biso   1.000  H
  H39      1.0000 0.06200  0.42100  0.63900  Biso   1.000  H
  H40      1.0000 0.43800  0.92100  0.86100  Biso   1.000  H
  H41      1.0000 0.09500  0.62600  0.32600  Biso   1.000  H
  H42      1.0000 0.40500  0.12600  0.17400  Biso   1.000  H
  H43      1.0000 0.90500  0.37400  0.67400  Biso   1.000  H
  H44      1.0000 0.59500  0.87400  0.82600  Biso   1.000  H
  H45      1.0000 0.93000  0.65000  0.66400  Biso   1.000  H
  H46      1.0000 0.57000  0.15000  0.83600  Biso   1.000  H
  H47      1.0000 0.07000  0.35000  0.33600  Biso   1.000  H
  H48      1.0000 0.43000  0.85000  0.16400  Biso   1.000  H
  H49      1.0000 0.02400  0.58500  0.58700  Biso   1.000  H
  H50      1.0000 0.47600  0.08500  0.91300  Biso   1.000  H
  H51      1.0000 0.97600  0.41500  0.41300  Biso   1.000  H
  H52      1.0000 0.52400  0.91500  0.08700  Biso   1.000  H
  H53      1.0000 0.96600  0.86600  0.24300  Biso   1.000  H
  H54      1.0000 0.53400  0.36600  0.25700  Biso   1.000  H
  H55      1.0000 0.03400  0.13400  0.75700  Biso   1.000  H
  H56      1.0000 0.46600  0.63400  0.74300  Biso   1.000  H
  H57      1.0000 0.03500  0.93200  0.33500  Biso   1.000  H
  H58      1.0000 0.46500  0.43200  0.16500  Biso   1.000  H
  H59      1.0000 0.96500  0.06800  0.66500  Biso   1.000  H
  H60      1.0000 0.53500  0.56800  0.83500  Biso   1.000  H
  H61      1.0000 0.89900  0.91900  0.55000  Biso   1.000  H
  H62      1.0000 0.60100  0.41900  0.95000  Biso   1.000  H
  H63      1.0000 0.10100  0.08100  0.45000  Biso   1.000  H
  H64      1.0000 0.39900  0.58100  0.05000  Biso   1.000  H
  H65      1.0000 0.06000  0.87800  0.59700  Biso   1.000  H
  H66      1.0000 0.44000  0.37800  0.90300  Biso   1.000  H
  H67      1.0000 0.94000  0.12200  0.40300  Biso   1.000  H
  H68      1.0000 0.56000  0.62200  0.09700  Biso   1.000  H
