data_image0
_cell_length_a       13.4391
_cell_length_b       15.439
_cell_length_c       16.5396
_cell_angle_alpha    84.3998
_cell_angle_beta     68.9788
_cell_angle_gamma    88.1873

_symmetry_space_group_name_H-M    "P 1"
_symmetry_int_tables_number       1

loop_
  _symmetry_equiv_pos_as_xyz
  'x, y, z'

loop_
  _atom_site_label
  _atom_site_occupancy
  _atom_site_fract_x
  _atom_site_fract_y
  _atom_site_fract_z
  _atom_site_thermal_displace_type
  _atom_site_B_iso_or_equiv
  _atom_site_type_symbol
  Cu1      1.0000 0.55416  0.46323  0.41680  Biso   1.000  Cu
  Cu2      1.0000 0.44584  0.53677  0.58320  Biso   1.000  Cu
  Cu3      1.0000 0.14710  0.25589  0.41115  Biso   1.000  Cu
  Cu4      1.0000 0.85290  0.74411  0.58885  Biso   1.000  Cu
  Cu5      1.0000 0.11050  0.10167  0.06026  Biso   1.000  Cu
  Cu6      1.0000 0.88950  0.89833  0.93974  Biso   1.000  Cu
  S1       1.0000 0.28284  0.44629  0.46367  Biso   1.000  S
  S2       1.0000 0.71716  0.55371  0.53633  Biso   1.000  S
  S3       1.0000 0.05368  0.09566  0.29598  Biso   1.000  S
  S4       1.0000 0.94632  0.90434  0.70402  Biso   1.000  S
  S5       1.0000 0.91510  0.95184  0.14400  Biso   1.000  S
  S6       1.0000 0.08490  0.04816  0.85600  Biso   1.000  S
  P1       1.0000 0.53415  0.07521  0.68996  Biso   1.000  P
  P2       1.0000 0.46585  0.92479  0.31004  Biso   1.000  P
  P3       1.0000 0.70992  0.41982  0.88336  Biso   1.000  P
  P4       1.0000 0.29008  0.58018  0.11664  Biso   1.000  P
  F1       1.0000 0.64150  0.02185  0.68022  Biso   1.000  F
  F2       1.0000 0.35850  0.97815  0.31978  Biso   1.000  F
  F3       1.0000 0.42775  0.12918  0.70003  Biso   1.000  F
  F4       1.0000 0.57225  0.87082  0.29997  Biso   1.000  F
  F5       1.0000 0.58380  0.11158  0.58959  Biso   1.000  F
  F6       1.0000 0.41620  0.88842  0.41041  Biso   1.000  F
  F7       1.0000 0.48490  0.03900  0.79068  Biso   1.000  F
  F8       1.0000 0.51510  0.96100  0.20932  Biso   1.000  F
  F9       1.0000 0.48530  0.99332  0.66477  Biso   1.000  F
  F10      1.0000 0.51470  0.00668  0.33523  Biso   1.000  F
  F11      1.0000 0.58346  0.15643  0.71614  Biso   1.000  F
  F12      1.0000 0.41654  0.84357  0.28386  Biso   1.000  F
  F13      1.0000 0.81870  0.36810  0.85660  Biso   1.000  F
  F14      1.0000 0.18130  0.63190  0.14340  Biso   1.000  F
  F15      1.0000 0.60010  0.46990  0.91170  Biso   1.000  F
  F16      1.0000 0.39990  0.53010  0.08830  Biso   1.000  F
  F17      1.0000 0.75370  0.47960  0.79393  Biso   1.000  F
  F18      1.0000 0.24630  0.52040  0.20607  Biso   1.000  F
  F19      1.0000 0.66630  0.35971  0.97331  Biso   1.000  F
  F20      1.0000 0.33370  0.64029  0.02669  Biso   1.000  F
  F21      1.0000 0.75750  0.48540  0.92816  Biso   1.000  F
  F22      1.0000 0.24250  0.51460  0.07184  Biso   1.000  F
  F23      1.0000 0.66440  0.35280  0.83857  Biso   1.000  F
  F24      1.0000 0.33560  0.64720  0.16143  Biso   1.000  F
  O1       1.0000 0.38800  0.41526  0.41141  Biso   1.000  O
  O2       1.0000 0.61200  0.58474  0.58859  Biso   1.000  O
  O3       1.0000 0.19957  0.38663  0.46554  Biso   1.000  O
  O4       1.0000 0.80043  0.61337  0.53446  Biso   1.000  O
  O5       1.0000 0.27425  0.46541  0.55034  Biso   1.000  O
  O6       1.0000 0.72575  0.53459  0.44966  Biso   1.000  O
  O7       1.0000 0.09395  0.13786  0.35352  Biso   1.000  O
  O8       1.0000 0.90605  0.86214  0.64648  Biso   1.000  O
  O9       1.0000 0.10882  0.12700  0.20473  Biso   1.000  O
  O10      1.0000 0.89118  0.87300  0.79527  Biso   1.000  O
  O11      1.0000 0.93871  0.10170  0.32222  Biso   1.000  O
  O12      1.0000 0.06129  0.89830  0.67778  Biso   1.000  O
  O13      1.0000 0.97480  0.03292  0.10497  Biso   1.000  O
  O14      1.0000 0.02520  0.96708  0.89503  Biso   1.000  O
  O15      1.0000 0.87380  0.91600  0.08460  Biso   1.000  O
  O16      1.0000 0.12620  0.08400  0.91540  Biso   1.000  O
  O17      1.0000 0.97420  0.88971  0.17995  Biso   1.000  O
  O18      1.0000 0.02580  0.11029  0.82005  Biso   1.000  O
  O19      1.0000 0.48918  0.57030  0.45910  Biso   1.000  O
  O20      1.0000 0.51082  0.42970  0.54090  Biso   1.000  O
  O21      1.0000 0.90750  0.71390  0.23527  Biso   1.000  O
  O22      1.0000 0.09250  0.28610  0.76473  Biso   1.000  O
  N1       1.0000 0.62130  0.34713  0.38515  Biso   1.000  N
  N2       1.0000 0.37870  0.65287  0.61485  Biso   1.000  N
  N3       1.0000 0.62100  0.50780  0.29068  Biso   1.000  N
  N4       1.0000 0.37900  0.49220  0.70932  Biso   1.000  N
  N5       1.0000 0.28390  0.25929  0.30375  Biso   1.000  N
  N6       1.0000 0.71610  0.74071  0.69625  Biso   1.000  N
  N7       1.0000 0.07460  0.34533  0.35182  Biso   1.000  N
  N8       1.0000 0.92540  0.65467  0.64818  Biso   1.000  N
  N9       1.0000 0.01110  0.24608  0.51808  Biso   1.000  N
  N10      1.0000 0.98890  0.75392  0.48192  Biso   1.000  N
  N11      1.0000 0.22030  0.17295  0.47381  Biso   1.000  N
  N12      1.0000 0.77970  0.82705  0.52619  Biso   1.000  N
  N13      1.0000 0.20290  0.99728  0.06022  Biso   1.000  N
  N14      1.0000 0.79710  0.00272  0.93978  Biso   1.000  N
  N15      1.0000 0.24040  0.18051  0.00954  Biso   1.000  N
  N16      1.0000 0.75960  0.81949  0.99046  Biso   1.000  N
  N17      1.0000 0.01470  0.20545  0.06043  Biso   1.000  N
  N18      1.0000 0.98530  0.79455  0.93957  Biso   1.000  N
  C1       1.0000 0.57270  0.28570  0.36110  Biso   1.000  C
  C2       1.0000 0.42730  0.71430  0.63890  Biso   1.000  C
  C3       1.0000 0.61740  0.20430  0.34320  Biso   1.000  C
  C4       1.0000 0.38260  0.79570  0.65680  Biso   1.000  C
  C5       1.0000 0.71600  0.18770  0.34930  Biso   1.000  C
  C6       1.0000 0.28400  0.81230  0.65070  Biso   1.000  C
  C7       1.0000 0.76750  0.25120  0.37100  Biso   1.000  C
  C8       1.0000 0.23250  0.74880  0.62900  Biso   1.000  C
  C9       1.0000 0.71730  0.33070  0.38980  Biso   1.000  C
  C10      1.0000 0.28270  0.66930  0.61020  Biso   1.000  C
  C11      1.0000 0.71890  0.54210  0.26150  Biso   1.000  C
  C12      1.0000 0.28110  0.45790  0.73850  Biso   1.000  C
  C13      1.0000 0.77520  0.56270  0.17450  Biso   1.000  C
  C14      1.0000 0.22480  0.43730  0.82550  Biso   1.000  C
  C15      1.0000 0.73120  0.54550  0.11460  Biso   1.000  C
  C16      1.0000 0.26880  0.45450  0.88540  Biso   1.000  C
  C17      1.0000 0.63230  0.51000  0.14370  Biso   1.000  C
  C18      1.0000 0.36770  0.49000  0.85630  Biso   1.000  C
  C19      1.0000 0.57760  0.49330  0.23240  Biso   1.000  C
  C20      1.0000 0.42240  0.50670  0.76760  Biso   1.000  C
  C21      1.0000 0.33430  0.18380  0.27790  Biso   1.000  C
  C22      1.0000 0.66570  0.81620  0.72210  Biso   1.000  C
  C23      1.0000 0.42920  0.18130  0.20810  Biso   1.000  C
  C24      1.0000 0.57080  0.81870  0.79190  Biso   1.000  C
  C25      1.0000 0.47300  0.25900  0.16150  Biso   1.000  C
  C26      1.0000 0.52700  0.74100  0.83850  Biso   1.000  C
  C27      1.0000 0.42130  0.33670  0.18690  Biso   1.000  C
  C28      1.0000 0.57870  0.66330  0.81310  Biso   1.000  C
  C29      1.0000 0.32750  0.33370  0.25870  Biso   1.000  C
  C30      1.0000 0.67250  0.66630  0.74130  Biso   1.000  C
  C31      1.0000 0.07450  0.33850  0.27150  Biso   1.000  C
  C32      1.0000 0.92550  0.66150  0.72850  Biso   1.000  C
  C33      1.0000 0.03330  0.40080  0.22760  Biso   1.000  C
  C34      1.0000 0.96670  0.59920  0.77240  Biso   1.000  C
  C35      1.0000 0.98830  0.47450  0.26740  Biso   1.000  C
  C36      1.0000 0.01170  0.52550  0.73260  Biso   1.000  C
  C37      1.0000 0.98390  0.48160  0.35170  Biso   1.000  C
  C38      1.0000 0.01610  0.51840  0.64830  Biso   1.000  C
  C39      1.0000 0.02790  0.41670  0.39100  Biso   1.000  C
  C40      1.0000 0.97210  0.58330  0.60900  Biso   1.000  C
  C41      1.0000 0.92210  0.21070  0.51440  Biso   1.000  C
  C42      1.0000 0.07790  0.78930  0.48560  Biso   1.000  C
  C43      1.0000 0.82640  0.20660  0.58400  Biso   1.000  C
  C44      1.0000 0.17360  0.79340  0.41600  Biso   1.000  C
  C45      1.0000 0.82140  0.23930  0.66050  Biso   1.000  C
  C46      1.0000 0.17860  0.76070  0.33950  Biso   1.000  C
  C47      1.0000 0.91290  0.27380  0.66500  Biso   1.000  C
  C48      1.0000 0.08710  0.72620  0.33500  Biso   1.000  C
  C49      1.0000 0.00580  0.27560  0.59280  Biso   1.000  C
  C50      1.0000 0.99420  0.72440  0.40720  Biso   1.000  C
  C51      1.0000 0.18780  0.08970  0.49660  Biso   1.000  C
  C52      1.0000 0.81220  0.91030  0.50340  Biso   1.000  C
  C53      1.0000 0.24270  0.02800  0.52940  Biso   1.000  C
  C54      1.0000 0.75730  0.97200  0.47060  Biso   1.000  C
  C55      1.0000 0.33460  0.05200  0.54040  Biso   1.000  C
  C56      1.0000 0.66540  0.94800  0.45960  Biso   1.000  C
  C57      1.0000 0.36740  0.13820  0.51900  Biso   1.000  C
  C58      1.0000 0.63260  0.86180  0.48100  Biso   1.000  C
  C59      1.0000 0.30890  0.19620  0.48620  Biso   1.000  C
  C60      1.0000 0.69110  0.80380  0.51380  Biso   1.000  C
  C61      1.0000 0.27820  0.99790  0.09630  Biso   1.000  C
  C62      1.0000 0.72180  0.00210  0.90370  Biso   1.000  C
  C63      1.0000 0.34260  0.92700  0.09940  Biso   1.000  C
  C64      1.0000 0.65740  0.07300  0.90060  Biso   1.000  C
  C65      1.0000 0.32930  0.85250  0.06510  Biso   1.000  C
  C66      1.0000 0.67070  0.14750  0.93490  Biso   1.000  C
  C67      1.0000 0.25180  0.85150  0.02760  Biso   1.000  C
  C68      1.0000 0.74820  0.14850  0.97240  Biso   1.000  C
  C69      1.0000 0.19040  0.92440  0.02630  Biso   1.000  C
  C70      1.0000 0.80960  0.07560  0.97370  Biso   1.000  C
  C71      1.0000 0.24820  0.24910  0.05100  Biso   1.000  C
  C72      1.0000 0.75180  0.75090  0.94900  Biso   1.000  C
  C73      1.0000 0.33410  0.30550  0.01930  Biso   1.000  C
  C74      1.0000 0.66590  0.69450  0.98070  Biso   1.000  C
  C75      1.0000 0.41520  0.29020  0.94290  Biso   1.000  C
  C76      1.0000 0.58480  0.70980  0.05710  Biso   1.000  C
  C77      1.0000 0.40860  0.21960  0.90090  Biso   1.000  C
  C78      1.0000 0.59140  0.78040  0.09910  Biso   1.000  C
  C79      1.0000 0.31970  0.16590  0.93570  Biso   1.000  C
  C80      1.0000 0.68030  0.83410  0.06430  Biso   1.000  C
  C81      1.0000 0.02670  0.25370  0.98520  Biso   1.000  C
  C82      1.0000 0.97330  0.74630  0.01480  Biso   1.000  C
  C83      1.0000 0.95590  0.31930  0.97920  Biso   1.000  C
  C84      1.0000 0.04410  0.68070  0.02080  Biso   1.000  C
  C85      1.0000 0.87130  0.33590  0.05270  Biso   1.000  C
  C86      1.0000 0.12870  0.66410  0.94730  Biso   1.000  C
  C87      1.0000 0.85990  0.28710  0.13050  Biso   1.000  C
  C88      1.0000 0.14010  0.71290  0.86950  Biso   1.000  C
  C89      1.0000 0.93200  0.22280  0.13210  Biso   1.000  C
  C90      1.0000 0.06800  0.77720  0.86790  Biso   1.000  C
  C91      1.0000 0.26290  0.54600  0.40980  Biso   1.000  C
  C92      1.0000 0.73710  0.45400  0.59020  Biso   1.000  C
  C93      1.0000 0.08590  0.98430  0.30710  Biso   1.000  C
  C94      1.0000 0.91410  0.01570  0.69290  Biso   1.000  C
  C95      1.0000 0.80380  0.98380  0.22980  Biso   1.000  C
  C96      1.0000 0.19620  0.01620  0.77020  Biso   1.000  C
  C97      1.0000 0.51760  0.65480  0.41760  Biso   1.000  C
  C98      1.0000 0.48240  0.34520  0.58240  Biso   1.000  C
  C99      1.0000 0.80750  0.73960  0.29480  Biso   1.000  C
  C100     1.0000 0.19250  0.26040  0.70520  Biso   1.000  C
  H1       1.0000 0.50530  0.29810  0.35600  Biso   1.000  H
  H2       1.0000 0.49470  0.70190  0.64400  Biso   1.000  H
  H3       1.0000 0.58100  0.16110  0.32720  Biso   1.000  H
  H4       1.0000 0.41900  0.83890  0.67280  Biso   1.000  H
  H5       1.0000 0.74790  0.13220  0.33840  Biso   1.000  H
  H6       1.0000 0.25210  0.86780  0.66160  Biso   1.000  H
  H7       1.0000 0.83660  0.24130  0.37330  Biso   1.000  H
  H8       1.0000 0.16340  0.75870  0.62670  Biso   1.000  H
  H9       1.0000 0.75230  0.37450  0.40630  Biso   1.000  H
  H10      1.0000 0.24770  0.62550  0.59370  Biso   1.000  H
  H11      1.0000 0.75080  0.55260  0.30230  Biso   1.000  H
  H12      1.0000 0.24920  0.44740  0.69770  Biso   1.000  H
  H13      1.0000 0.84380  0.58860  0.15610  Biso   1.000  H
  H14      1.0000 0.15620  0.41140  0.84390  Biso   1.000  H
  H15      1.0000 0.76930  0.55820  0.05410  Biso   1.000  H
  H16      1.0000 0.23070  0.44180  0.94590  Biso   1.000  H
  H17      1.0000 0.60060  0.49660  0.10350  Biso   1.000  H
  H18      1.0000 0.39940  0.50340  0.89650  Biso   1.000  H
  H19      1.0000 0.50710  0.47080  0.25210  Biso   1.000  H
  H20      1.0000 0.49290  0.52920  0.74790  Biso   1.000  H
  H21      1.0000 0.30310  0.13040  0.30900  Biso   1.000  H
  H22      1.0000 0.69690  0.86960  0.69100  Biso   1.000  H
  H23      1.0000 0.46360  0.12750  0.19230  Biso   1.000  H
  H24      1.0000 0.53640  0.87250  0.80770  Biso   1.000  H
  H25      1.0000 0.53770  0.25920  0.11280  Biso   1.000  H
  H26      1.0000 0.46230  0.74080  0.88720  Biso   1.000  H
  H27      1.0000 0.44960  0.39070  0.15560  Biso   1.000  H
  H28      1.0000 0.55040  0.60930  0.84440  Biso   1.000  H
  H29      1.0000 0.29280  0.38690  0.27660  Biso   1.000  H
  H30      1.0000 0.70720  0.61310  0.72340  Biso   1.000  H
  H31      1.0000 0.10460  0.28790  0.24360  Biso   1.000  H
  H32      1.0000 0.89540  0.71210  0.75640  Biso   1.000  H
  H33      1.0000 0.03560  0.39350  0.17050  Biso   1.000  H
  H34      1.0000 0.96440  0.60650  0.82950  Biso   1.000  H
  H35      1.0000 0.96090  0.51940  0.23780  Biso   1.000  H
  H36      1.0000 0.03910  0.48060  0.76220  Biso   1.000  H
  H37      1.0000 0.95120  0.53040  0.38160  Biso   1.000  H
  H38      1.0000 0.04880  0.46960  0.61840  Biso   1.000  H
  H39      1.0000 0.02540  0.42220  0.44840  Biso   1.000  H
  H40      1.0000 0.97460  0.57780  0.55160  Biso   1.000  H
  H41      1.0000 0.92550  0.18780  0.46220  Biso   1.000  H
  H42      1.0000 0.07450  0.81220  0.53780  Biso   1.000  H
  H43      1.0000 0.76500  0.18190  0.57950  Biso   1.000  H
  H44      1.0000 0.23500  0.81810  0.42050  Biso   1.000  H
  H45      1.0000 0.75640  0.23810  0.70900  Biso   1.000  H
  H46      1.0000 0.24360  0.76190  0.29100  Biso   1.000  H
  H47      1.0000 0.91190  0.29600  0.71690  Biso   1.000  H
  H48      1.0000 0.08810  0.70400  0.28310  Biso   1.000  H
  H49      1.0000 0.06850  0.29880  0.59650  Biso   1.000  H
  H50      1.0000 0.93150  0.70120  0.40350  Biso   1.000  H
  H51      1.0000 0.12410  0.07280  0.48970  Biso   1.000  H
  H52      1.0000 0.87590  0.92720  0.51030  Biso   1.000  H
  H53      1.0000 0.21770  0.96960  0.54420  Biso   1.000  H
  H54      1.0000 0.78230  0.03040  0.45580  Biso   1.000  H
  H55      1.0000 0.37460  0.01040  0.56220  Biso   1.000  H
  H56      1.0000 0.62540  0.98960  0.43780  Biso   1.000  H
  H57      1.0000 0.42970  0.15690  0.52690  Biso   1.000  H
  H58      1.0000 0.57030  0.84310  0.47310  Biso   1.000  H
  H59      1.0000 0.33180  0.25510  0.47170  Biso   1.000  H
  H60      1.0000 0.66820  0.74490  0.52830  Biso   1.000  H
  H61      1.0000 0.28730  0.04910  0.12060  Biso   1.000  H
  H62      1.0000 0.71270  0.95090  0.87940  Biso   1.000  H
  H63      1.0000 0.39540  0.92970  0.12480  Biso   1.000  H
  H64      1.0000 0.60460  0.07030  0.87520  Biso   1.000  H
  H65      1.0000 0.37220  0.80270  0.06690  Biso   1.000  H
  H66      1.0000 0.62780  0.19730  0.93310  Biso   1.000  H
  H67      1.0000 0.24120  0.80100  0.00310  Biso   1.000  H
  H68      1.0000 0.75880  0.19900  0.99690  Biso   1.000  H
  H69      1.0000 0.13760  0.92330  0.00060  Biso   1.000  H
  H70      1.0000 0.86240  0.07670  0.99940  Biso   1.000  H
  H71      1.0000 0.19250  0.25920  0.10410  Biso   1.000  H
  H72      1.0000 0.80750  0.74080  0.89590  Biso   1.000  H
  H73      1.0000 0.33710  0.35400  0.04960  Biso   1.000  H
  H74      1.0000 0.66290  0.64600  0.95040  Biso   1.000  H
  H75      1.0000 0.47500  0.32820  0.91960  Biso   1.000  H
  H76      1.0000 0.52500  0.67180  0.08040  Biso   1.000  H
  H77      1.0000 0.46430  0.20760  0.84860  Biso   1.000  H
  H78      1.0000 0.53570  0.79240  0.15140  Biso   1.000  H
  H79      1.0000 0.31500  0.11730  0.90610  Biso   1.000  H
  H80      1.0000 0.68500  0.88270  0.09390  Biso   1.000  H
  H81      1.0000 0.08560  0.24250  0.93450  Biso   1.000  H
  H82      1.0000 0.91440  0.75750  0.06550  Biso   1.000  H
  H83      1.0000 0.96570  0.35210  0.92520  Biso   1.000  H
  H84      1.0000 0.03430  0.64790  0.07480  Biso   1.000  H
  H85      1.0000 0.82140  0.38010  0.05020  Biso   1.000  H
  H86      1.0000 0.17860  0.61990  0.94980  Biso   1.000  H
  H87      1.0000 0.80260  0.29810  0.18230  Biso   1.000  H
  H88      1.0000 0.19740  0.70190  0.81770  Biso   1.000  H
  H89      1.0000 0.92320  0.18930  0.18550  Biso   1.000  H
  H90      1.0000 0.07680  0.81070  0.81450  Biso   1.000  H
  H91      1.0000 0.19730  0.57320  0.44620  Biso   1.000  H
  H92      1.0000 0.80270  0.42680  0.55380  Biso   1.000  H
  H93      1.0000 0.25680  0.53550  0.35430  Biso   1.000  H
  H94      1.0000 0.74320  0.46450  0.64570  Biso   1.000  H
  H95      1.0000 0.32360  0.58480  0.39900  Biso   1.000  H
  H96      1.0000 0.67640  0.41520  0.60100  Biso   1.000  H
  H97      1.0000 0.16240  0.97850  0.29580  Biso   1.000  H
  H98      1.0000 0.83760  0.02150  0.70420  Biso   1.000  H
  H99      1.0000 0.06740  0.95340  0.26550  Biso   1.000  H
  H100     1.0000 0.93260  0.04660  0.73450  Biso   1.000  H
  H101     1.0000 0.04560  0.95940  0.36640  Biso   1.000  H
  H102     1.0000 0.95440  0.04060  0.63360  Biso   1.000  H
  H103     1.0000 0.82730  0.01050  0.27130  Biso   1.000  H
  H104     1.0000 0.17270  0.98950  0.72870  Biso   1.000  H
  H105     1.0000 0.75930  0.93280  0.25930  Biso   1.000  H
  H106     1.0000 0.24070  0.06720  0.74070  Biso   1.000  H
  H107     1.0000 0.76220  0.02610  0.20700  Biso   1.000  H
  H108     1.0000 0.23780  0.97390  0.79300  Biso   1.000  H
  H109     1.0000 0.50960  0.65910  0.36080  Biso   1.000  H
  H110     1.0000 0.49040  0.34090  0.63920  Biso   1.000  H
  H111     1.0000 0.59190  0.66660  0.40970  Biso   1.000  H
  H112     1.0000 0.40810  0.33340  0.59030  Biso   1.000  H
  H113     1.0000 0.47110  0.69740  0.45360  Biso   1.000  H
  H114     1.0000 0.52890  0.30260  0.54640  Biso   1.000  H
