data_image0
_cell_length_a       15.024
_cell_length_b       7.662
_cell_length_c       12.51
_cell_angle_alpha    90
_cell_angle_beta     114.14
_cell_angle_gamma    90

_symmetry_space_group_name_H-M    "P 1"
_symmetry_int_tables_number       1

loop_
  _symmetry_equiv_pos_as_xyz
  'x, y, z'

loop_
  _atom_site_label
  _atom_site_occupancy
  _atom_site_fract_x
  _atom_site_fract_y
  _atom_site_fract_z
  _atom_site_thermal_displace_type
  _atom_site_B_iso_or_equiv
  _atom_site_type_symbol
  Y1       1.0000 0.25505  0.57944  0.25688  Biso   1.000  Y
  Y2       1.0000 0.74495  0.57944  0.74312  Biso   1.000  Y
  Y3       1.0000 0.75505  0.07944  0.25688  Biso   1.000  Y
  Y4       1.0000 0.24495  0.07944  0.74312  Biso   1.000  Y
  Cu1      1.0000 0.00000  0.07640  0.00000  Biso   1.000  Cu
  Cu2      1.0000 0.50000  0.57640  0.00000  Biso   1.000  Cu
  O1       1.0000 0.15520  0.36290  0.13620  Biso   1.000  O
  O2       1.0000 0.84480  0.36290  0.86380  Biso   1.000  O
  O3       1.0000 0.65520  0.86290  0.13620  Biso   1.000  O
  O4       1.0000 0.34480  0.86290  0.86380  Biso   1.000  O
  O5       1.0000 0.07460  0.25530  0.95810  Biso   1.000  O
  O6       1.0000 0.92540  0.25530  0.04190  Biso   1.000  O
  O7       1.0000 0.57460  0.75530  0.95810  Biso   1.000  O
  O8       1.0000 0.42540  0.75530  0.04190  Biso   1.000  O
  O9       1.0000 0.26930  0.54550  0.07350  Biso   1.000  O
  O10      1.0000 0.73070  0.54550  0.92650  Biso   1.000  O
  O11      1.0000 0.76930  0.04550  0.07350  Biso   1.000  O
  O12      1.0000 0.23070  0.04550  0.92650  Biso   1.000  O
  O13      1.0000 0.07600  0.90640  0.95700  Biso   1.000  O
  O14      1.0000 0.92400  0.90640  0.04300  Biso   1.000  O
  O15      1.0000 0.57600  0.40640  0.95700  Biso   1.000  O
  O16      1.0000 0.42400  0.40640  0.04300  Biso   1.000  O
  O17      1.0000 0.13170  0.72890  0.10650  Biso   1.000  O
  O18      1.0000 0.86830  0.72890  0.89350  Biso   1.000  O
  O19      1.0000 0.63170  0.22890  0.10650  Biso   1.000  O
  O20      1.0000 0.36830  0.22890  0.89350  Biso   1.000  O
  C1       1.0000 0.13500  0.35690  0.03030  Biso   1.000  C
  C2       1.0000 0.86500  0.35690  0.96970  Biso   1.000  C
  C3       1.0000 0.63500  0.85690  0.03030  Biso   1.000  C
  C4       1.0000 0.36500  0.85690  0.96970  Biso   1.000  C
  C5       1.0000 0.18460  0.47960  0.97990  Biso   1.000  C
  C6       1.0000 0.81540  0.47960  0.02010  Biso   1.000  C
  C7       1.0000 0.68460  0.97960  0.97990  Biso   1.000  C
  C8       1.0000 0.31540  0.97960  0.02010  Biso   1.000  C
  H1       1.0000 0.20380  0.41680  0.92440  Biso   1.000  H
  H2       1.0000 0.79620  0.41680  0.07560  Biso   1.000  H
  H3       1.0000 0.70380  0.91680  0.92440  Biso   1.000  H
  H4       1.0000 0.29620  0.91680  0.07560  Biso   1.000  H
  C9       1.0000 0.11920  0.63100  0.91830  Biso   1.000  C
  C10      1.0000 0.88080  0.63100  0.08170  Biso   1.000  C
  C11      1.0000 0.61920  0.13100  0.91830  Biso   1.000  C
  C12      1.0000 0.38080  0.13100  0.08170  Biso   1.000  C
  H5       1.0000 0.05530  0.58640  0.86790  Biso   1.000  H
  H6       1.0000 0.94470  0.58640  0.13210  Biso   1.000  H
  H7       1.0000 0.55530  0.08640  0.86790  Biso   1.000  H
  H8       1.0000 0.44470  0.08640  0.13210  Biso   1.000  H
  H9       1.0000 0.14590  0.68900  0.86900  Biso   1.000  H
  H10      1.0000 0.85410  0.68900  0.13100  Biso   1.000  H
  H11      1.0000 0.64590  0.18900  0.86900  Biso   1.000  H
  H12      1.0000 0.35410  0.18900  0.13100  Biso   1.000  H
  C13      1.0000 0.10780  0.76360  0.00180  Biso   1.000  C
  C14      1.0000 0.89220  0.76360  0.99820  Biso   1.000  C
  C15      1.0000 0.60780  0.26360  0.00180  Biso   1.000  C
  C16      1.0000 0.39220  0.26360  0.99820  Biso   1.000  C
  O21      1.0000 0.35480  0.64620  0.44690  Biso   1.000  O
  O22      1.0000 0.64520  0.64620  0.55310  Biso   1.000  O
  O23      1.0000 0.85480  0.14620  0.44690  Biso   1.000  O
  O24      1.0000 0.14520  0.14620  0.55310  Biso   1.000  O
  O25      1.0000 0.43110  0.83410  0.58880  Biso   1.000  O
  O26      1.0000 0.56890  0.83410  0.41120  Biso   1.000  O
  O27      1.0000 0.93110  0.33410  0.58880  Biso   1.000  O
  O28      1.0000 0.06890  0.33410  0.41120  Biso   1.000  O
  O29      1.0000 0.25230  0.87510  0.30160  Biso   1.000  O
  O30      1.0000 0.74770  0.87510  0.69840  Biso   1.000  O
  O31      1.0000 0.75230  0.37510  0.30160  Biso   1.000  O
  O32      1.0000 0.24770  0.37510  0.69840  Biso   1.000  O
  O33      1.0000 0.25490  0.30860  0.36770  Biso   1.000  O
  O34      1.0000 0.74510  0.30860  0.63230  Biso   1.000  O
  O35      1.0000 0.75490  0.80860  0.36770  Biso   1.000  O
  O36      1.0000 0.24510  0.80860  0.63230  Biso   1.000  O
  O37      1.0000 0.36410  0.34890  0.30200  Biso   1.000  O
  O38      1.0000 0.63590  0.34890  0.69800  Biso   1.000  O
  O39      1.0000 0.86410  0.84890  0.30200  Biso   1.000  O
  O40      1.0000 0.13590  0.84890  0.69800  Biso   1.000  O
  C17      1.0000 0.37080  0.79830  0.48950  Biso   1.000  C
  C18      1.0000 0.62920  0.79830  0.51050  Biso   1.000  C
  C19      1.0000 0.87080  0.29830  0.48950  Biso   1.000  C
  C20      1.0000 0.12920  0.29830  0.51050  Biso   1.000  C
  C21      1.0000 0.30970  0.94400  0.41240  Biso   1.000  C
  C22      1.0000 0.69030  0.94400  0.58760  Biso   1.000  C
  C23      1.0000 0.80970  0.44400  0.41240  Biso   1.000  C
  C24      1.0000 0.19030  0.44400  0.58760  Biso   1.000  C
  H13      1.0000 0.26690  0.99120  0.44710  Biso   1.000  H
  H14      1.0000 0.73310  0.99120  0.55290  Biso   1.000  H
  H15      1.0000 0.76690  0.49120  0.44710  Biso   1.000  H
  H16      1.0000 0.23310  0.49120  0.55290  Biso   1.000  H
  C25      1.0000 0.37350  0.08580  0.40280  Biso   1.000  C
  C26      1.0000 0.62650  0.08580  0.59720  Biso   1.000  C
  C27      1.0000 0.87350  0.58580  0.40280  Biso   1.000  C
  C28      1.0000 0.12650  0.58580  0.59720  Biso   1.000  C
  H17      1.0000 0.42440  0.10640  0.48010  Biso   1.000  H
  H18      1.0000 0.57560  0.10640  0.51990  Biso   1.000  H
  H19      1.0000 0.92440  0.60640  0.48010  Biso   1.000  H
  H20      1.0000 0.07560  0.60640  0.51990  Biso   1.000  H
  H21      1.0000 0.40490  0.04440  0.35360  Biso   1.000  H
  H22      1.0000 0.59510  0.04440  0.64640  Biso   1.000  H
  H23      1.0000 0.90490  0.54440  0.35360  Biso   1.000  H
  H24      1.0000 0.09510  0.54440  0.64640  Biso   1.000  H
  C29      1.0000 0.32650  0.25490  0.35550  Biso   1.000  C
  C30      1.0000 0.67350  0.25490  0.64450  Biso   1.000  C
  C31      1.0000 0.82650  0.75490  0.35550  Biso   1.000  C
  C32      1.0000 0.17350  0.75490  0.64450  Biso   1.000  C
  O41      1.0000 0.40160  0.70400  0.25170  Biso   1.000  O
  O42      1.0000 0.59840  0.70400  0.74830  Biso   1.000  O
  O43      1.0000 0.90160  0.20400  0.25170  Biso   1.000  O
  O44      1.0000 0.09840  0.20400  0.74830  Biso   1.000  O
  O45      1.0000 0.12730  0.59740  0.31470  Biso   1.000  O
  O46      1.0000 0.87270  0.59740  0.68530  Biso   1.000  O
  O47      1.0000 0.62730  0.09740  0.31470  Biso   1.000  O
  O48      1.0000 0.37270  0.09740  0.68530  Biso   1.000  O
  O49      1.0000 0.09780  0.07260  0.20720  Biso   1.000  O
  O50      1.0000 0.90220  0.07260  0.79280  Biso   1.000  O
  O51      1.0000 0.59780  0.57260  0.20720  Biso   1.000  O
  O52      1.0000 0.40220  0.57260  0.79280  Biso   1.000  O
  O53      1.0000 0.55900  0.39790  0.37450  Biso   1.000  O
  O54      1.0000 0.44100  0.39790  0.62550  Biso   1.000  O
  O55      1.0000 0.05900  0.89790  0.37450  Biso   1.000  O
  O56      1.0000 0.94100  0.89790  0.62550  Biso   1.000  O
