data_image0
_cell_length_a       15.188
_cell_length_b       7.7706
_cell_length_c       12.701
_cell_angle_alpha    90
_cell_angle_beta     113.989
_cell_angle_gamma    90

_symmetry_space_group_name_H-M    "P 1"
_symmetry_int_tables_number       1

loop_
  _symmetry_equiv_pos_as_xyz
  'x, y, z'

loop_
  _atom_site_label
  _atom_site_occupancy
  _atom_site_fract_x
  _atom_site_fract_y
  _atom_site_fract_z
  _atom_site_thermal_displace_type
  _atom_site_B_iso_or_equiv
  _atom_site_type_symbol
  Tb1      1.0000 0.74543  0.66865  0.24359  Biso   1.000  Tb
  Tb2      1.0000 0.25457  0.66865  0.75641  Biso   1.000  Tb
  Tb3      1.0000 0.24543  0.16865  0.24359  Biso   1.000  Tb
  Tb4      1.0000 0.75457  0.16865  0.75641  Biso   1.000  Tb
  Cu1      1.0000 0.00000  0.16710  0.50000  Biso   1.000  Cu
  Cu2      1.0000 0.50000  0.66710  0.50000  Biso   1.000  Cu
  O1       1.0000 0.87110  0.81740  0.39690  Biso   1.000  O
  O2       1.0000 0.12890  0.81740  0.60310  Biso   1.000  O
  O3       1.0000 0.37110  0.31740  0.39690  Biso   1.000  O
  O4       1.0000 0.62890  0.31740  0.60310  Biso   1.000  O
  O5       1.0000 0.92390  0.99940  0.54290  Biso   1.000  O
  O6       1.0000 0.07610  0.99940  0.45710  Biso   1.000  O
  O7       1.0000 0.42390  0.49940  0.54290  Biso   1.000  O
  O8       1.0000 0.57610  0.49940  0.45710  Biso   1.000  O
  O9       1.0000 0.73210  0.63620  0.42920  Biso   1.000  O
  O10      1.0000 0.26790  0.63620  0.57080  Biso   1.000  O
  O11      1.0000 0.23210  0.13620  0.42920  Biso   1.000  O
  O12      1.0000 0.76790  0.13620  0.57080  Biso   1.000  O
  O13      1.0000 0.84490  0.45050  0.36590  Biso   1.000  O
  O14      1.0000 0.15510  0.45050  0.63410  Biso   1.000  O
  O15      1.0000 0.34490  0.95050  0.36590  Biso   1.000  O
  O16      1.0000 0.65510  0.95050  0.63410  Biso   1.000  O
  O17      1.0000 0.92620  0.34610  0.54260  Biso   1.000  O
  O18      1.0000 0.07380  0.34610  0.45740  Biso   1.000  O
  O19      1.0000 0.42620  0.84610  0.54260  Biso   1.000  O
  O20      1.0000 0.57380  0.84610  0.45740  Biso   1.000  O
  C1       1.0000 0.89290  0.85140  0.49800  Biso   1.000  C
  C2       1.0000 0.10710  0.85140  0.50200  Biso   1.000  C
  C3       1.0000 0.39290  0.35140  0.49800  Biso   1.000  C
  C4       1.0000 0.60710  0.35140  0.50200  Biso   1.000  C
  C5       1.0000 0.88130  0.72280  0.58130  Biso   1.000  C
  C6       1.0000 0.11870  0.72280  0.41870  Biso   1.000  C
  C7       1.0000 0.38130  0.22280  0.58130  Biso   1.000  C
  C8       1.0000 0.61870  0.22280  0.41870  Biso   1.000  C
  H1       1.0000 0.85500  0.78170  0.62940  Biso   1.000  H
  H2       1.0000 0.14500  0.78170  0.37060  Biso   1.000  H
  H3       1.0000 0.35500  0.28170  0.62940  Biso   1.000  H
  H4       1.0000 0.64500  0.28170  0.37060  Biso   1.000  H
  H5       1.0000 0.94430  0.67890  0.63120  Biso   1.000  H
  H6       1.0000 0.05570  0.67890  0.36880  Biso   1.000  H
  H7       1.0000 0.44430  0.17890  0.63120  Biso   1.000  H
  H8       1.0000 0.55570  0.17890  0.36880  Biso   1.000  H
  C9       1.0000 0.81600  0.57180  0.52210  Biso   1.000  C
  C10      1.0000 0.18400  0.57180  0.47790  Biso   1.000  C
  C11      1.0000 0.31600  0.07180  0.52210  Biso   1.000  C
  C12      1.0000 0.68400  0.07180  0.47790  Biso   1.000  C
  H9       1.0000 0.79690  0.51220  0.57750  Biso   1.000  H
  H10      1.0000 0.20310  0.51220  0.42250  Biso   1.000  H
  H11      1.0000 0.29690  0.01220  0.57750  Biso   1.000  H
  H12      1.0000 0.70310  0.01220  0.42250  Biso   1.000  H
  C13      1.0000 0.86590  0.44610  0.47320  Biso   1.000  C
  C14      1.0000 0.13410  0.44610  0.52680  Biso   1.000  C
  C15      1.0000 0.36590  0.94610  0.47320  Biso   1.000  C
  C16      1.0000 0.63410  0.94610  0.52680  Biso   1.000  C
  O21      1.0000 0.64430  0.73890  0.05170  Biso   1.000  O
  O22      1.0000 0.35570  0.73890  0.94830  Biso   1.000  O
  O23      1.0000 0.14430  0.23890  0.05170  Biso   1.000  O
  O24      1.0000 0.85570  0.23890  0.94830  Biso   1.000  O
  O25      1.0000 0.56940  0.92560  0.91210  Biso   1.000  O
  O26      1.0000 0.43060  0.92560  0.08790  Biso   1.000  O
  O27      1.0000 0.06940  0.42560  0.91210  Biso   1.000  O
  O28      1.0000 0.93060  0.42560  0.08790  Biso   1.000  O
  O29      1.0000 0.74780  0.96590  0.19660  Biso   1.000  O
  O30      1.0000 0.25220  0.96590  0.80340  Biso   1.000  O
  O31      1.0000 0.24780  0.46590  0.19660  Biso   1.000  O
  O32      1.0000 0.75220  0.46590  0.80340  Biso   1.000  O
  O33      1.0000 0.63490  0.43590  0.19720  Biso   1.000  O
  O34      1.0000 0.36510  0.43590  0.80280  Biso   1.000  O
  O35      1.0000 0.13490  0.93590  0.19720  Biso   1.000  O
  O36      1.0000 0.86510  0.93590  0.80280  Biso   1.000  O
  O37      1.0000 0.74520  0.39680  0.13210  Biso   1.000  O
  O38      1.0000 0.25480  0.39680  0.86790  Biso   1.000  O
  O39      1.0000 0.24520  0.89680  0.13210  Biso   1.000  O
  O40      1.0000 0.75480  0.89680  0.86790  Biso   1.000  O
  C17      1.0000 0.62950  0.88700  0.01020  Biso   1.000  C
  C18      1.0000 0.37050  0.88700  0.98980  Biso   1.000  C
  C19      1.0000 0.12950  0.38700  0.01020  Biso   1.000  C
  C20      1.0000 0.87050  0.38700  0.98980  Biso   1.000  C
  C21      1.0000 0.68950  0.03430  0.08570  Biso   1.000  C
  C22      1.0000 0.31050  0.03430  0.91430  Biso   1.000  C
  C23      1.0000 0.18950  0.53430  0.08570  Biso   1.000  C
  C24      1.0000 0.81050  0.53430  0.91430  Biso   1.000  C
  H13      1.0000 0.73150  0.08100  0.05100  Biso   1.000  H
  H14      1.0000 0.26850  0.08100  0.94900  Biso   1.000  H
  H15      1.0000 0.23150  0.58100  0.05100  Biso   1.000  H
  H16      1.0000 0.76850  0.58100  0.94900  Biso   1.000  H
  C25      1.0000 0.62560  0.17550  0.09550  Biso   1.000  C
  C26      1.0000 0.37440  0.17550  0.90450  Biso   1.000  C
  C27      1.0000 0.12560  0.67550  0.09550  Biso   1.000  C
  C28      1.0000 0.87440  0.67550  0.90450  Biso   1.000  C
  H17      1.0000 0.57560  0.19660  0.01940  Biso   1.000  H
  H18      1.0000 0.42440  0.19660  0.98060  Biso   1.000  H
  H19      1.0000 0.07560  0.69660  0.01940  Biso   1.000  H
  H20      1.0000 0.92440  0.69660  0.98060  Biso   1.000  H
  H21      1.0000 0.59430  0.13440  0.14370  Biso   1.000  H
  H22      1.0000 0.40570  0.13440  0.85630  Biso   1.000  H
  H23      1.0000 0.09430  0.63440  0.14370  Biso   1.000  H
  H24      1.0000 0.90570  0.63440  0.85630  Biso   1.000  H
  C29      1.0000 0.67360  0.34400  0.14360  Biso   1.000  C
  C30      1.0000 0.32640  0.34400  0.85640  Biso   1.000  C
  C31      1.0000 0.17360  0.84400  0.14360  Biso   1.000  C
  C32      1.0000 0.82640  0.84400  0.85640  Biso   1.000  C
  O41      1.0000 0.59700  0.79440  0.24890  Biso   1.000  O
  O42      1.0000 0.40300  0.79440  0.75110  Biso   1.000  O
  O43      1.0000 0.09700  0.29440  0.24890  Biso   1.000  O
  O44      1.0000 0.90300  0.29440  0.75110  Biso   1.000  O
  O45      1.0000 0.87400  0.68700  0.18390  Biso   1.000  O
  O46      1.0000 0.12600  0.68700  0.81610  Biso   1.000  O
  O47      1.0000 0.37400  0.18700  0.18390  Biso   1.000  O
  O48      1.0000 0.62600  0.18700  0.81610  Biso   1.000  O
  O49      1.0000 0.09770  0.16120  0.70670  Biso   1.000  O
  O50      1.0000 0.90230  0.16120  0.29330  Biso   1.000  O
  O51      1.0000 0.59770  0.66120  0.70670  Biso   1.000  O
  O52      1.0000 0.40230  0.66120  0.29330  Biso   1.000  O
  O53      1.0000 0.05910  0.98750  0.87480  Biso   1.000  O
  O54      1.0000 0.94090  0.98750  0.12520  Biso   1.000  O
  O55      1.0000 0.55910  0.48750  0.87480  Biso   1.000  O
  O56      1.0000 0.44090  0.48750  0.12520  Biso   1.000  O
