data_image0
_cell_length_a       18.4973
_cell_length_b       18.4973
_cell_length_c       39.459
_cell_angle_alpha    90
_cell_angle_beta     90
_cell_angle_gamma    120

_symmetry_space_group_name_H-M    "P 1"
_symmetry_int_tables_number       1

loop_
  _symmetry_equiv_pos_as_xyz
  'x, y, z'

loop_
  _atom_site_label
  _atom_site_occupancy
  _atom_site_fract_x
  _atom_site_fract_y
  _atom_site_fract_z
  _atom_site_thermal_displace_type
  _atom_site_B_iso_or_equiv
  _atom_site_type_symbol
  Cu1      1.0000 0.85720  0.14280  0.13906  Biso   1.000  Cu
  Cu2      1.0000 0.85720  0.71440  0.13906  Biso   1.000  Cu
  Cu3      1.0000 0.28560  0.14280  0.13906  Biso   1.000  Cu
  Cu4      1.0000 0.14280  0.85720  0.86094  Biso   1.000  Cu
  Cu5      1.0000 0.71440  0.85720  0.86094  Biso   1.000  Cu
  Cu6      1.0000 0.14280  0.28560  0.86094  Biso   1.000  Cu
  Cu7      1.0000 0.52387  0.47613  0.47239  Biso   1.000  Cu
  Cu8      1.0000 0.52387  0.04773  0.47239  Biso   1.000  Cu
  Cu9      1.0000 0.95227  0.47613  0.47239  Biso   1.000  Cu
  Cu10     1.0000 0.80947  0.19053  0.19428  Biso   1.000  Cu
  Cu11     1.0000 0.38107  0.19053  0.19428  Biso   1.000  Cu
  Cu12     1.0000 0.80947  0.61893  0.19428  Biso   1.000  Cu
  Cu13     1.0000 0.19053  0.80947  0.80572  Biso   1.000  Cu
  Cu14     1.0000 0.19053  0.38107  0.80572  Biso   1.000  Cu
  Cu15     1.0000 0.61893  0.80947  0.80572  Biso   1.000  Cu
  Cu16     1.0000 0.47613  0.52387  0.52761  Biso   1.000  Cu
  Cu17     1.0000 0.04773  0.52387  0.52761  Biso   1.000  Cu
  Cu18     1.0000 0.47613  0.95227  0.52761  Biso   1.000  Cu
  O1       1.0000 0.81430  0.03820  0.16336  Biso   1.000  O
  O2       1.0000 0.96180  0.77610  0.16336  Biso   1.000  O
  O3       1.0000 0.22390  0.18570  0.16336  Biso   1.000  O
  O4       1.0000 0.03820  0.81430  0.83664  Biso   1.000  O
  O5       1.0000 0.77610  0.96180  0.83664  Biso   1.000  O
  O6       1.0000 0.18570  0.22390  0.83664  Biso   1.000  O
  O7       1.0000 0.48097  0.37153  0.49669  Biso   1.000  O
  O8       1.0000 0.62847  0.10943  0.49669  Biso   1.000  O
  O9       1.0000 0.89057  0.51903  0.49669  Biso   1.000  O
  O10      1.0000 0.70487  0.14763  0.16997  Biso   1.000  O
  O11      1.0000 0.44277  0.29513  0.16997  Biso   1.000  O
  O12      1.0000 0.85237  0.55723  0.16997  Biso   1.000  O
  O13      1.0000 0.14763  0.70487  0.83003  Biso   1.000  O
  O14      1.0000 0.29513  0.44277  0.83003  Biso   1.000  O
  O15      1.0000 0.55723  0.85237  0.83003  Biso   1.000  O
  O16      1.0000 0.37153  0.48097  0.50331  Biso   1.000  O
  O17      1.0000 0.10943  0.62847  0.50331  Biso   1.000  O
  O18      1.0000 0.51903  0.89057  0.50331  Biso   1.000  O
  O19      1.0000 0.18570  0.96180  0.83664  Biso   1.000  O
  O20      1.0000 0.03820  0.22390  0.83664  Biso   1.000  O
  O21      1.0000 0.77610  0.81430  0.83664  Biso   1.000  O
  O22      1.0000 0.96180  0.18570  0.16336  Biso   1.000  O
  O23      1.0000 0.22390  0.03820  0.16336  Biso   1.000  O
  O24      1.0000 0.81430  0.77610  0.16336  Biso   1.000  O
  O25      1.0000 0.85237  0.29513  0.16997  Biso   1.000  O
  O26      1.0000 0.70487  0.55723  0.16997  Biso   1.000  O
  O27      1.0000 0.44277  0.14763  0.16997  Biso   1.000  O
  O28      1.0000 0.62847  0.51903  0.49669  Biso   1.000  O
  O29      1.0000 0.89057  0.37153  0.49669  Biso   1.000  O
  O30      1.0000 0.48097  0.10943  0.49669  Biso   1.000  O
  O31      1.0000 0.51903  0.62847  0.50331  Biso   1.000  O
  O32      1.0000 0.37153  0.89057  0.50331  Biso   1.000  O
  O33      1.0000 0.10943  0.48097  0.50331  Biso   1.000  O
  O34      1.0000 0.29513  0.85237  0.83003  Biso   1.000  O
  O35      1.0000 0.55723  0.70487  0.83003  Biso   1.000  O
  O36      1.0000 0.14763  0.44277  0.83003  Biso   1.000  O
  O37      1.0000 0.77370  0.07700  0.20966  Biso   1.000  O
  O38      1.0000 0.92300  0.69670  0.20966  Biso   1.000  O
  O39      1.0000 0.30330  0.22630  0.20966  Biso   1.000  O
  O40      1.0000 0.07700  0.77370  0.79034  Biso   1.000  O
  O41      1.0000 0.69670  0.92300  0.79034  Biso   1.000  O
  O42      1.0000 0.22630  0.30330  0.79034  Biso   1.000  O
  O43      1.0000 0.44037  0.41033  0.54299  Biso   1.000  O
  O44      1.0000 0.58967  0.03003  0.54299  Biso   1.000  O
  O45      1.0000 0.96997  0.55963  0.54299  Biso   1.000  O
  O46      1.0000 0.74367  0.10703  0.12367  Biso   1.000  O
  O47      1.0000 0.36337  0.25633  0.12367  Biso   1.000  O
  O48      1.0000 0.89297  0.63663  0.12367  Biso   1.000  O
  O49      1.0000 0.10703  0.74367  0.87633  Biso   1.000  O
  O50      1.0000 0.25633  0.36337  0.87633  Biso   1.000  O
  O51      1.0000 0.63663  0.89297  0.87633  Biso   1.000  O
  O52      1.0000 0.41033  0.44037  0.45701  Biso   1.000  O
  O53      1.0000 0.03003  0.58967  0.45701  Biso   1.000  O
  O54      1.0000 0.55963  0.96997  0.45701  Biso   1.000  O
  O55      1.0000 0.22630  0.92300  0.79034  Biso   1.000  O
  O56      1.0000 0.07700  0.30330  0.79034  Biso   1.000  O
  O57      1.0000 0.69670  0.77370  0.79034  Biso   1.000  O
  O58      1.0000 0.92300  0.22630  0.20966  Biso   1.000  O
  O59      1.0000 0.30330  0.07700  0.20966  Biso   1.000  O
  O60      1.0000 0.77370  0.69670  0.20966  Biso   1.000  O
  O61      1.0000 0.89297  0.25633  0.12367  Biso   1.000  O
  O62      1.0000 0.74367  0.63663  0.12367  Biso   1.000  O
  O63      1.0000 0.36337  0.10703  0.12367  Biso   1.000  O
  O64      1.0000 0.58967  0.55963  0.54299  Biso   1.000  O
  O65      1.0000 0.96997  0.41033  0.54299  Biso   1.000  O
  O66      1.0000 0.44037  0.03003  0.54299  Biso   1.000  O
  O67      1.0000 0.55963  0.58967  0.45701  Biso   1.000  O
  O68      1.0000 0.41033  0.96997  0.45701  Biso   1.000  O
  O69      1.0000 0.03003  0.44037  0.45701  Biso   1.000  O
  O70      1.0000 0.25633  0.89297  0.87633  Biso   1.000  O
  O71      1.0000 0.63663  0.74367  0.87633  Biso   1.000  O
  O72      1.0000 0.10703  0.36337  0.87633  Biso   1.000  O
  O73      1.0000 0.89410  0.10590  0.09444  Biso   1.000  O
  O74      1.0000 0.89410  0.78820  0.09444  Biso   1.000  O
  O75      1.0000 0.21180  0.10590  0.09444  Biso   1.000  O
  O76      1.0000 0.10590  0.89410  0.90556  Biso   1.000  O
  O77      1.0000 0.78820  0.89410  0.90556  Biso   1.000  O
  O78      1.0000 0.10590  0.21180  0.90556  Biso   1.000  O
  O79      1.0000 0.56077  0.43923  0.42777  Biso   1.000  O
  O80      1.0000 0.56077  0.12153  0.42777  Biso   1.000  O
  O81      1.0000 0.87847  0.43923  0.42777  Biso   1.000  O
  O82      1.0000 0.77257  0.22743  0.23889  Biso   1.000  O
  O83      1.0000 0.45487  0.22743  0.23889  Biso   1.000  O
  O84      1.0000 0.77257  0.54513  0.23889  Biso   1.000  O
  O85      1.0000 0.22743  0.77257  0.76111  Biso   1.000  O
  O86      1.0000 0.22743  0.45487  0.76111  Biso   1.000  O
  O87      1.0000 0.54513  0.77257  0.76111  Biso   1.000  O
  O88      1.0000 0.43923  0.56077  0.57223  Biso   1.000  O
  O89      1.0000 0.12153  0.56077  0.57223  Biso   1.000  O
  O90      1.0000 0.43923  0.87847  0.57223  Biso   1.000  O
  C1       1.0000 0.78450  0.02670  0.19225  Biso   1.000  C
  C2       1.0000 0.97330  0.75780  0.19225  Biso   1.000  C
  C3       1.0000 0.24220  0.21550  0.19225  Biso   1.000  C
  C4       1.0000 0.02670  0.78450  0.80775  Biso   1.000  C
  C5       1.0000 0.75780  0.97330  0.80775  Biso   1.000  C
  C6       1.0000 0.21550  0.24220  0.80775  Biso   1.000  C
  C7       1.0000 0.45117  0.36003  0.52558  Biso   1.000  C
  C8       1.0000 0.63997  0.09113  0.52558  Biso   1.000  C
  C9       1.0000 0.90887  0.54883  0.52558  Biso   1.000  C
  C10      1.0000 0.69337  0.11783  0.14108  Biso   1.000  C
  C11      1.0000 0.42447  0.30663  0.14108  Biso   1.000  C
  C12      1.0000 0.88217  0.57553  0.14108  Biso   1.000  C
  C13      1.0000 0.11783  0.69337  0.85892  Biso   1.000  C
  C14      1.0000 0.30663  0.42447  0.85892  Biso   1.000  C
  C15      1.0000 0.57553  0.88217  0.85892  Biso   1.000  C
  C16      1.0000 0.36003  0.45117  0.47442  Biso   1.000  C
  C17      1.0000 0.09113  0.63997  0.47442  Biso   1.000  C
  C18      1.0000 0.54883  0.90887  0.47442  Biso   1.000  C
  C19      1.0000 0.21550  0.97330  0.80775  Biso   1.000  C
  C20      1.0000 0.02670  0.24220  0.80775  Biso   1.000  C
  C21      1.0000 0.75780  0.78450  0.80775  Biso   1.000  C
  C22      1.0000 0.97330  0.21550  0.19225  Biso   1.000  C
  C23      1.0000 0.24220  0.02670  0.19225  Biso   1.000  C
  C24      1.0000 0.78450  0.75780  0.19225  Biso   1.000  C
  C25      1.0000 0.88217  0.30663  0.14108  Biso   1.000  C
  C26      1.0000 0.69337  0.57553  0.14108  Biso   1.000  C
  C27      1.0000 0.42447  0.11783  0.14108  Biso   1.000  C
  C28      1.0000 0.63997  0.54883  0.52558  Biso   1.000  C
  C29      1.0000 0.90887  0.36003  0.52558  Biso   1.000  C
  C30      1.0000 0.45117  0.09113  0.52558  Biso   1.000  C
  C31      1.0000 0.54883  0.63997  0.47442  Biso   1.000  C
  C32      1.0000 0.36003  0.90887  0.47442  Biso   1.000  C
  C33      1.0000 0.09113  0.45117  0.47442  Biso   1.000  C
  C34      1.0000 0.30663  0.88217  0.85892  Biso   1.000  C
  C35      1.0000 0.57553  0.69337  0.85892  Biso   1.000  C
  C36      1.0000 0.11783  0.42447  0.85892  Biso   1.000  C
  C37      1.0000 0.75570  0.94330  0.20833  Biso   1.000  C
  C38      1.0000 0.05670  0.81240  0.20833  Biso   1.000  C
  C39      1.0000 0.18760  0.24430  0.20833  Biso   1.000  C
  C40      1.0000 0.94330  0.75570  0.79167  Biso   1.000  C
  C41      1.0000 0.81240  0.05670  0.79167  Biso   1.000  C
  C42      1.0000 0.24430  0.18760  0.79167  Biso   1.000  C
  C43      1.0000 0.42237  0.27663  0.54166  Biso   1.000  C
  C44      1.0000 0.72337  0.14573  0.54166  Biso   1.000  C
  C45      1.0000 0.85427  0.57763  0.54166  Biso   1.000  C
  C46      1.0000 0.60997  0.08903  0.12500  Biso   1.000  C
  C47      1.0000 0.47907  0.39003  0.12500  Biso   1.000  C
  C48      1.0000 0.91097  0.52093  0.12500  Biso   1.000  C
  C49      1.0000 0.08903  0.60997  0.87500  Biso   1.000  C
  C50      1.0000 0.39003  0.47907  0.87500  Biso   1.000  C
  C51      1.0000 0.52093  0.91097  0.87500  Biso   1.000  C
  C52      1.0000 0.27663  0.42237  0.45834  Biso   1.000  C
  C53      1.0000 0.14573  0.72337  0.45834  Biso   1.000  C
  C54      1.0000 0.57763  0.85427  0.45834  Biso   1.000  C
  C55      1.0000 0.24430  0.05670  0.79167  Biso   1.000  C
  C56      1.0000 0.94330  0.18760  0.79167  Biso   1.000  C
  C57      1.0000 0.81240  0.75570  0.79167  Biso   1.000  C
  C58      1.0000 0.05670  0.24430  0.20833  Biso   1.000  C
  C59      1.0000 0.18760  0.94330  0.20833  Biso   1.000  C
  C60      1.0000 0.75570  0.81240  0.20833  Biso   1.000  C
  C61      1.0000 0.91097  0.39003  0.12500  Biso   1.000  C
  C62      1.0000 0.60997  0.52093  0.12500  Biso   1.000  C
  C63      1.0000 0.47907  0.08903  0.12500  Biso   1.000  C
  C64      1.0000 0.72337  0.57763  0.54166  Biso   1.000  C
  C65      1.0000 0.85427  0.27663  0.54166  Biso   1.000  C
  C66      1.0000 0.42237  0.14573  0.54166  Biso   1.000  C
  C67      1.0000 0.57763  0.72337  0.45834  Biso   1.000  C
  C68      1.0000 0.27663  0.85427  0.45834  Biso   1.000  C
  C69      1.0000 0.14573  0.42237  0.45834  Biso   1.000  C
  C70      1.0000 0.39003  0.91097  0.87500  Biso   1.000  C
  C71      1.0000 0.52093  0.60997  0.87500  Biso   1.000  C
  C72      1.0000 0.08903  0.47907  0.87500  Biso   1.000  C
  C73      1.0000 0.77560  0.88780  0.19221  Biso   1.000  C
  C74      1.0000 0.11220  0.88780  0.19221  Biso   1.000  C
  C75      1.0000 0.11220  0.22440  0.19221  Biso   1.000  C
  C76      1.0000 0.88780  0.77560  0.80779  Biso   1.000  C
  C77      1.0000 0.88780  0.11220  0.80779  Biso   1.000  C
  C78      1.0000 0.22440  0.11220  0.80779  Biso   1.000  C
  C79      1.0000 0.44227  0.22113  0.52554  Biso   1.000  C
  C80      1.0000 0.77887  0.22113  0.52554  Biso   1.000  C
  C81      1.0000 0.77887  0.55773  0.52554  Biso   1.000  C
  C82      1.0000 0.55447  0.10893  0.14112  Biso   1.000  C
  C83      1.0000 0.55447  0.44553  0.14112  Biso   1.000  C
  C84      1.0000 0.89107  0.44553  0.14112  Biso   1.000  C
  C85      1.0000 0.10893  0.55447  0.85888  Biso   1.000  C
  C86      1.0000 0.44553  0.55447  0.85888  Biso   1.000  C
  C87      1.0000 0.44553  0.89107  0.85888  Biso   1.000  C
  C88      1.0000 0.22113  0.44227  0.47446  Biso   1.000  C
  C89      1.0000 0.22113  0.77887  0.47446  Biso   1.000  C
  C90      1.0000 0.55773  0.77887  0.47446  Biso   1.000  C
  H1       1.0000 0.80160  0.90080  0.17110  Biso   1.000  H
  H2       1.0000 0.09920  0.90080  0.17110  Biso   1.000  H
  H3       1.0000 0.09920  0.19840  0.17110  Biso   1.000  H
  H4       1.0000 0.90080  0.80160  0.82890  Biso   1.000  H
  H5       1.0000 0.90080  0.09920  0.82890  Biso   1.000  H
  H6       1.0000 0.19840  0.09920  0.82890  Biso   1.000  H
  H7       1.0000 0.46827  0.23413  0.50443  Biso   1.000  H
  H8       1.0000 0.76587  0.23413  0.50443  Biso   1.000  H
  H9       1.0000 0.76587  0.53173  0.50443  Biso   1.000  H
  H10      1.0000 0.56747  0.13493  0.16223  Biso   1.000  H
  H11      1.0000 0.56747  0.43253  0.16223  Biso   1.000  H
  H12      1.0000 0.86507  0.43253  0.16223  Biso   1.000  H
  H13      1.0000 0.13493  0.56747  0.83777  Biso   1.000  H
  H14      1.0000 0.43253  0.56747  0.83777  Biso   1.000  H
  H15      1.0000 0.43253  0.86507  0.83777  Biso   1.000  H
  H16      1.0000 0.23413  0.46827  0.49557  Biso   1.000  H
  H17      1.0000 0.23413  0.76587  0.49557  Biso   1.000  H
  H18      1.0000 0.53173  0.76587  0.49557  Biso   1.000  H
  C91      1.0000 0.71330  0.92050  0.23860  Biso   1.000  C
  C92      1.0000 0.07950  0.79280  0.23860  Biso   1.000  C
  C93      1.0000 0.20720  0.28670  0.23860  Biso   1.000  C
  C94      1.0000 0.92050  0.71330  0.76140  Biso   1.000  C
  C95      1.0000 0.79280  0.07950  0.76140  Biso   1.000  C
  C96      1.0000 0.28670  0.20720  0.76140  Biso   1.000  C
  C97      1.0000 0.37997  0.25383  0.57193  Biso   1.000  C
  C98      1.0000 0.74617  0.12613  0.57193  Biso   1.000  C
  C99      1.0000 0.87387  0.62003  0.57193  Biso   1.000  C
  C100     1.0000 0.58717  0.04663  0.09473  Biso   1.000  C
  C101     1.0000 0.45947  0.41283  0.09473  Biso   1.000  C
  C102     1.0000 0.95337  0.54053  0.09473  Biso   1.000  C
  C103     1.0000 0.04663  0.58717  0.90527  Biso   1.000  C
  C104     1.0000 0.41283  0.45947  0.90527  Biso   1.000  C
  C105     1.0000 0.54053  0.95337  0.90527  Biso   1.000  C
  C106     1.0000 0.25383  0.37997  0.42807  Biso   1.000  C
  C107     1.0000 0.12613  0.74617  0.42807  Biso   1.000  C
  C108     1.0000 0.62003  0.87387  0.42807  Biso   1.000  C
  C109     1.0000 0.28670  0.07950  0.76140  Biso   1.000  C
  C110     1.0000 0.92050  0.20720  0.76140  Biso   1.000  C
  C111     1.0000 0.79280  0.71330  0.76140  Biso   1.000  C
  C112     1.0000 0.07950  0.28670  0.23860  Biso   1.000  C
  C113     1.0000 0.20720  0.92050  0.23860  Biso   1.000  C
  C114     1.0000 0.71330  0.79280  0.23860  Biso   1.000  C
  C115     1.0000 0.95337  0.41283  0.09473  Biso   1.000  C
  C116     1.0000 0.58717  0.54053  0.09473  Biso   1.000  C
  C117     1.0000 0.45947  0.04663  0.09473  Biso   1.000  C
  C118     1.0000 0.74617  0.62003  0.57193  Biso   1.000  C
  C119     1.0000 0.87387  0.25383  0.57193  Biso   1.000  C
  C120     1.0000 0.37997  0.12613  0.57193  Biso   1.000  C
  C121     1.0000 0.62003  0.74617  0.42807  Biso   1.000  C
  C122     1.0000 0.25383  0.87387  0.42807  Biso   1.000  C
  C123     1.0000 0.12613  0.37997  0.42807  Biso   1.000  C
  C124     1.0000 0.41283  0.95337  0.90527  Biso   1.000  C
  C125     1.0000 0.54053  0.58717  0.90527  Biso   1.000  C
  C126     1.0000 0.04663  0.45947  0.90527  Biso   1.000  C
  H19      1.0000 0.69940  0.95710  0.24900  Biso   1.000  H
  H20      1.0000 0.04290  0.74230  0.24900  Biso   1.000  H
  H21      1.0000 0.25770  0.30060  0.24900  Biso   1.000  H
  H22      1.0000 0.95710  0.69940  0.75100  Biso   1.000  H
  H23      1.0000 0.74230  0.04290  0.75100  Biso   1.000  H
  H24      1.0000 0.30060  0.25770  0.75100  Biso   1.000  H
  H25      1.0000 0.36607  0.29043  0.58233  Biso   1.000  H
  H26      1.0000 0.70957  0.07563  0.58233  Biso   1.000  H
  H27      1.0000 0.92437  0.63393  0.58233  Biso   1.000  H
  H28      1.0000 0.62377  0.03273  0.08433  Biso   1.000  H
  H29      1.0000 0.40897  0.37623  0.08433  Biso   1.000  H
  H30      1.0000 0.96727  0.59103  0.08433  Biso   1.000  H
  H31      1.0000 0.03273  0.62377  0.91567  Biso   1.000  H
  H32      1.0000 0.37623  0.40897  0.91567  Biso   1.000  H
  H33      1.0000 0.59103  0.96727  0.91567  Biso   1.000  H
  H34      1.0000 0.29043  0.36607  0.41767  Biso   1.000  H
  H35      1.0000 0.07563  0.70957  0.41767  Biso   1.000  H
  H36      1.0000 0.63393  0.92437  0.41767  Biso   1.000  H
  H37      1.0000 0.30060  0.04290  0.75100  Biso   1.000  H
  H38      1.0000 0.95710  0.25770  0.75100  Biso   1.000  H
  H39      1.0000 0.74230  0.69940  0.75100  Biso   1.000  H
  H40      1.0000 0.04290  0.30060  0.24900  Biso   1.000  H
  H41      1.0000 0.25770  0.95710  0.24900  Biso   1.000  H
  H42      1.0000 0.69940  0.74230  0.24900  Biso   1.000  H
  H43      1.0000 0.96727  0.37623  0.08433  Biso   1.000  H
  H44      1.0000 0.62377  0.59103  0.08433  Biso   1.000  H
  H45      1.0000 0.40897  0.03273  0.08433  Biso   1.000  H
  H46      1.0000 0.70957  0.63393  0.58233  Biso   1.000  H
  H47      1.0000 0.92437  0.29043  0.58233  Biso   1.000  H
  H48      1.0000 0.36607  0.07563  0.58233  Biso   1.000  H
  H49      1.0000 0.63393  0.70957  0.41767  Biso   1.000  H
  H50      1.0000 0.29043  0.92437  0.41767  Biso   1.000  H
  H51      1.0000 0.07563  0.36607  0.41767  Biso   1.000  H
  H52      1.0000 0.37623  0.96727  0.91567  Biso   1.000  H
  H53      1.0000 0.59103  0.62377  0.91567  Biso   1.000  H
  H54      1.0000 0.03273  0.40897  0.91567  Biso   1.000  H
  C127     1.0000 0.69060  0.84530  0.25410  Biso   1.000  C
  C128     1.0000 0.15470  0.84530  0.25410  Biso   1.000  C
  C129     1.0000 0.15470  0.30940  0.25410  Biso   1.000  C
  C130     1.0000 0.84530  0.69060  0.74590  Biso   1.000  C
  C131     1.0000 0.84530  0.15470  0.74590  Biso   1.000  C
  C132     1.0000 0.30940  0.15470  0.74590  Biso   1.000  C
  C133     1.0000 0.35727  0.17863  0.58743  Biso   1.000  C
  C134     1.0000 0.82137  0.17863  0.58743  Biso   1.000  C
  C135     1.0000 0.82137  0.64273  0.58743  Biso   1.000  C
  C136     1.0000 0.51197  0.02393  0.07923  Biso   1.000  C
  C137     1.0000 0.51197  0.48803  0.07923  Biso   1.000  C
  C138     1.0000 0.97607  0.48803  0.07923  Biso   1.000  C
  C139     1.0000 0.02393  0.51197  0.92077  Biso   1.000  C
  C140     1.0000 0.48803  0.51197  0.92077  Biso   1.000  C
  C141     1.0000 0.48803  0.97607  0.92077  Biso   1.000  C
  C142     1.0000 0.17863  0.35727  0.41257  Biso   1.000  C
  C143     1.0000 0.17863  0.82137  0.41257  Biso   1.000  C
  C144     1.0000 0.64273  0.82137  0.41257  Biso   1.000  C
  C145     1.0000 0.64770  0.82390  0.28780  Biso   1.000  C
  C146     1.0000 0.17610  0.82380  0.28780  Biso   1.000  C
  C147     1.0000 0.17620  0.35230  0.28780  Biso   1.000  C
  C148     1.0000 0.82390  0.64770  0.71220  Biso   1.000  C
  C149     1.0000 0.82380  0.17610  0.71220  Biso   1.000  C
  C150     1.0000 0.35230  0.17620  0.71220  Biso   1.000  C
  C151     1.0000 0.31437  0.15723  0.62113  Biso   1.000  C
  C152     1.0000 0.84277  0.15713  0.62113  Biso   1.000  C
  C153     1.0000 0.84287  0.68563  0.62113  Biso   1.000  C
  C154     1.0000 0.49057  0.98103  0.04553  Biso   1.000  C
  C155     1.0000 0.49047  0.50943  0.04553  Biso   1.000  C
  C156     1.0000 0.01897  0.50953  0.04553  Biso   1.000  C
  C157     1.0000 0.98103  0.49057  0.95447  Biso   1.000  C
  C158     1.0000 0.50943  0.49047  0.95447  Biso   1.000  C
  C159     1.0000 0.50953  0.01897  0.95447  Biso   1.000  C
  C160     1.0000 0.15723  0.31437  0.37887  Biso   1.000  C
  C161     1.0000 0.15713  0.84277  0.37887  Biso   1.000  C
  C162     1.0000 0.68563  0.84287  0.37887  Biso   1.000  C
  C163     1.0000 0.56180  0.78090  0.28630  Biso   1.000  C
  C164     1.0000 0.21910  0.78090  0.28630  Biso   1.000  C
  C165     1.0000 0.21910  0.43820  0.28630  Biso   1.000  C
  C166     1.0000 0.78090  0.56180  0.71370  Biso   1.000  C
  C167     1.0000 0.78090  0.21910  0.71370  Biso   1.000  C
  C168     1.0000 0.43820  0.21910  0.71370  Biso   1.000  C
  C169     1.0000 0.22847  0.11423  0.61963  Biso   1.000  C
  C170     1.0000 0.88577  0.11423  0.61963  Biso   1.000  C
  C171     1.0000 0.88577  0.77153  0.61963  Biso   1.000  C
  C172     1.0000 0.44757  0.89513  0.04703  Biso   1.000  C
  C173     1.0000 0.44757  0.55243  0.04703  Biso   1.000  C
  C174     1.0000 0.10487  0.55243  0.04703  Biso   1.000  C
  C175     1.0000 0.89513  0.44757  0.95297  Biso   1.000  C
  C176     1.0000 0.55243  0.44757  0.95297  Biso   1.000  C
  C177     1.0000 0.55243  0.10487  0.95297  Biso   1.000  C
  C178     1.0000 0.11423  0.22847  0.38037  Biso   1.000  C
  C179     1.0000 0.11423  0.88577  0.38037  Biso   1.000  C
  C180     1.0000 0.77153  0.88577  0.38037  Biso   1.000  C
  H55      1.0000 0.53320  0.76660  0.26580  Biso   1.000  H
  H56      1.0000 0.23340  0.76660  0.26580  Biso   1.000  H
  H57      1.0000 0.23340  0.46680  0.26580  Biso   1.000  H
  H58      1.0000 0.76660  0.53320  0.73420  Biso   1.000  H
  H59      1.0000 0.76660  0.23340  0.73420  Biso   1.000  H
  H60      1.0000 0.46680  0.23340  0.73420  Biso   1.000  H
  H61      1.0000 0.19987  0.09993  0.59913  Biso   1.000  H
  H62      1.0000 0.90007  0.09993  0.59913  Biso   1.000  H
  H63      1.0000 0.90007  0.80013  0.59913  Biso   1.000  H
  H64      1.0000 0.43327  0.86653  0.06753  Biso   1.000  H
  H65      1.0000 0.43327  0.56673  0.06753  Biso   1.000  H
  H66      1.0000 0.13347  0.56673  0.06753  Biso   1.000  H
  H67      1.0000 0.86653  0.43327  0.93247  Biso   1.000  H
  H68      1.0000 0.56673  0.43327  0.93247  Biso   1.000  H
  H69      1.0000 0.56673  0.13347  0.93247  Biso   1.000  H
  H70      1.0000 0.09993  0.19987  0.40087  Biso   1.000  H
  H71      1.0000 0.09993  0.90007  0.40087  Biso   1.000  H
  H72      1.0000 0.80013  0.90007  0.40087  Biso   1.000  H
  C181     1.0000 0.68790  0.84390  0.31759  Biso   1.000  C
  C182     1.0000 0.15610  0.84400  0.31759  Biso   1.000  C
  C183     1.0000 0.15600  0.31210  0.31759  Biso   1.000  C
  C184     1.0000 0.84390  0.68790  0.68241  Biso   1.000  C
  C185     1.0000 0.84400  0.15610  0.68241  Biso   1.000  C
  C186     1.0000 0.31210  0.15600  0.68241  Biso   1.000  C
  C187     1.0000 0.35457  0.17723  0.65092  Biso   1.000  C
  C188     1.0000 0.82277  0.17733  0.65092  Biso   1.000  C
  C189     1.0000 0.82267  0.64543  0.65092  Biso   1.000  C
  C190     1.0000 0.51057  0.02123  0.01574  Biso   1.000  C
  C191     1.0000 0.51067  0.48943  0.01574  Biso   1.000  C
  C192     1.0000 0.97877  0.48933  0.01574  Biso   1.000  C
  C193     1.0000 0.02123  0.51057  0.98426  Biso   1.000  C
  C194     1.0000 0.48943  0.51067  0.98426  Biso   1.000  C
  C195     1.0000 0.48933  0.97877  0.98426  Biso   1.000  C
  C196     1.0000 0.17723  0.35457  0.34908  Biso   1.000  C
  C197     1.0000 0.17733  0.82277  0.34908  Biso   1.000  C
  C198     1.0000 0.64543  0.82267  0.34908  Biso   1.000  C
  C199     1.0000 0.77440  0.88720  0.31800  Biso   1.000  C
  C200     1.0000 0.11280  0.88720  0.31800  Biso   1.000  C
  C201     1.0000 0.11280  0.22560  0.31800  Biso   1.000  C
  C202     1.0000 0.88720  0.77440  0.68200  Biso   1.000  C
  C203     1.0000 0.88720  0.11280  0.68200  Biso   1.000  C
  C204     1.0000 0.22560  0.11280  0.68200  Biso   1.000  C
  C205     1.0000 0.44107  0.22053  0.65133  Biso   1.000  C
  C206     1.0000 0.77947  0.22053  0.65133  Biso   1.000  C
  C207     1.0000 0.77947  0.55893  0.65133  Biso   1.000  C
  C208     1.0000 0.55387  0.10773  0.01533  Biso   1.000  C
  C209     1.0000 0.55387  0.44613  0.01533  Biso   1.000  C
  C210     1.0000 0.89227  0.44613  0.01533  Biso   1.000  C
  C211     1.0000 0.10773  0.55387  0.98467  Biso   1.000  C
  C212     1.0000 0.44613  0.55387  0.98467  Biso   1.000  C
  C213     1.0000 0.44613  0.89227  0.98467  Biso   1.000  C
  C214     1.0000 0.22053  0.44107  0.34867  Biso   1.000  C
  C215     1.0000 0.22053  0.77947  0.34867  Biso   1.000  C
  C216     1.0000 0.55893  0.77947  0.34867  Biso   1.000  C
  H73      1.0000 0.80310  0.90150  0.29750  Biso   1.000  H
  H74      1.0000 0.09850  0.90160  0.29750  Biso   1.000  H
  H75      1.0000 0.09840  0.19690  0.29750  Biso   1.000  H
  H76      1.0000 0.90150  0.80310  0.70250  Biso   1.000  H
  H77      1.0000 0.90160  0.09850  0.70250  Biso   1.000  H
  H78      1.0000 0.19690  0.09840  0.70250  Biso   1.000  H
  H79      1.0000 0.46977  0.23483  0.63083  Biso   1.000  H
  H80      1.0000 0.76517  0.23493  0.63083  Biso   1.000  H
  H81      1.0000 0.76507  0.53023  0.63083  Biso   1.000  H
  H82      1.0000 0.56817  0.13643  0.03583  Biso   1.000  H
  H83      1.0000 0.56827  0.43183  0.03583  Biso   1.000  H
  H84      1.0000 0.86357  0.43173  0.03583  Biso   1.000  H
  H85      1.0000 0.13643  0.56817  0.96417  Biso   1.000  H
  H86      1.0000 0.43183  0.56827  0.96417  Biso   1.000  H
  H87      1.0000 0.43173  0.86357  0.96417  Biso   1.000  H
  H88      1.0000 0.23483  0.46977  0.36917  Biso   1.000  H
  H89      1.0000 0.23493  0.76517  0.36917  Biso   1.000  H
  H90      1.0000 0.53023  0.76507  0.36917  Biso   1.000  H
  C217     1.0000 0.81710  0.90860  0.34640  Biso   1.000  C
  C218     1.0000 0.09140  0.90850  0.34640  Biso   1.000  C
  C219     1.0000 0.09150  0.18290  0.34640  Biso   1.000  C
  C220     1.0000 0.90860  0.81710  0.65360  Biso   1.000  C
  C221     1.0000 0.90850  0.09140  0.65360  Biso   1.000  C
  C222     1.0000 0.18290  0.09150  0.65360  Biso   1.000  C
  C223     1.0000 0.48377  0.24193  0.67973  Biso   1.000  C
  C224     1.0000 0.75807  0.24183  0.67973  Biso   1.000  C
  C225     1.0000 0.75817  0.51623  0.67973  Biso   1.000  C
  C226     1.0000 0.57527  0.15043  0.98693  Biso   1.000  C
  C227     1.0000 0.57517  0.42473  0.98693  Biso   1.000  C
  C228     1.0000 0.84957  0.42483  0.98693  Biso   1.000  C
  C229     1.0000 0.15043  0.57527  0.01307  Biso   1.000  C
  C230     1.0000 0.42473  0.57517  0.01307  Biso   1.000  C
  C231     1.0000 0.42483  0.84957  0.01307  Biso   1.000  C
  C232     1.0000 0.24193  0.48377  0.32027  Biso   1.000  C
  C233     1.0000 0.24183  0.75807  0.32027  Biso   1.000  C
  C234     1.0000 0.51623  0.75817  0.32027  Biso   1.000  C
  H91      1.0000 0.87510  0.93760  0.34580  Biso   1.000  H
  H92      1.0000 0.06240  0.93750  0.34580  Biso   1.000  H
  H93      1.0000 0.06250  0.12490  0.34580  Biso   1.000  H
  H94      1.0000 0.93760  0.87510  0.65420  Biso   1.000  H
  H95      1.0000 0.93750  0.06240  0.65420  Biso   1.000  H
  H96      1.0000 0.12490  0.06250  0.65420  Biso   1.000  H
  H97      1.0000 0.54177  0.27093  0.67913  Biso   1.000  H
  H98      1.0000 0.72907  0.27083  0.67913  Biso   1.000  H
  H99      1.0000 0.72917  0.45823  0.67913  Biso   1.000  H
  H100     1.0000 0.60427  0.20843  0.98753  Biso   1.000  H
  H101     1.0000 0.60417  0.39573  0.98753  Biso   1.000  H
  H102     1.0000 0.79157  0.39583  0.98753  Biso   1.000  H
  H103     1.0000 0.20843  0.60427  0.01247  Biso   1.000  H
  H104     1.0000 0.39573  0.60417  0.01247  Biso   1.000  H
  H105     1.0000 0.39583  0.79157  0.01247  Biso   1.000  H
  H106     1.0000 0.27093  0.54177  0.32087  Biso   1.000  H
  H107     1.0000 0.27083  0.72907  0.32087  Biso   1.000  H
  H108     1.0000 0.45823  0.72917  0.32087  Biso   1.000  H
