data_image0
_cell_length_a       7.6963
_cell_length_b       11.1028
_cell_length_c       12.9739
_cell_angle_alpha    90
_cell_angle_beta     123.707
_cell_angle_gamma    90

_symmetry_space_group_name_H-M    "P 1"
_symmetry_int_tables_number       1

loop_
  _symmetry_equiv_pos_as_xyz
  'x, y, z'

loop_
  _atom_site_label
  _atom_site_occupancy
  _atom_site_fract_x
  _atom_site_fract_y
  _atom_site_fract_z
  _atom_site_thermal_displace_type
  _atom_site_B_iso_or_equiv
  _atom_site_type_symbol
  C1       1.0000 0.12980  0.52360  0.73280  Biso   1.000  C
  C2       1.0000 0.87020  0.52360  0.76720  Biso   1.000  C
  C3       1.0000 0.87020  0.47640  0.26720  Biso   1.000  C
  C4       1.0000 0.12980  0.47640  0.23280  Biso   1.000  C
  H1       1.0000 0.22250  0.48110  0.72170  Biso   1.000  H
  H2       1.0000 0.77750  0.48110  0.77830  Biso   1.000  H
  H3       1.0000 0.77750  0.51890  0.27830  Biso   1.000  H
  H4       1.0000 0.22250  0.51890  0.22170  Biso   1.000  H
  C5       1.0000 0.13430  0.64630  0.73040  Biso   1.000  C
  C6       1.0000 0.86570  0.64630  0.76960  Biso   1.000  C
  C7       1.0000 0.86570  0.35370  0.26960  Biso   1.000  C
  C8       1.0000 0.13430  0.35370  0.23040  Biso   1.000  C
  H5       1.0000 0.22550  0.68580  0.71600  Biso   1.000  H
  H6       1.0000 0.77450  0.68580  0.78400  Biso   1.000  H
  H7       1.0000 0.77450  0.31420  0.28400  Biso   1.000  H
  H8       1.0000 0.22550  0.31420  0.21600  Biso   1.000  H
  C9       1.0000 0.00000  0.71210  0.75000  Biso   1.000  C
  C10      1.0000 0.00000  0.28790  0.25000  Biso   1.000  C
  C11      1.0000 0.00000  0.84520  0.75000  Biso   1.000  C
  C12      1.0000 0.00000  0.15480  0.25000  Biso   1.000  C
  C13      1.0000 0.97100  0.90990  0.64990  Biso   1.000  C
  C14      1.0000 0.02900  0.90990  0.85010  Biso   1.000  C
  C15      1.0000 0.02900  0.09010  0.35010  Biso   1.000  C
  C16      1.0000 0.97100  0.09010  0.14990  Biso   1.000  C
  H9       1.0000 0.95320  0.87010  0.58160  Biso   1.000  H
  H10      1.0000 0.04680  0.87010  0.91840  Biso   1.000  H
  H11      1.0000 0.04680  0.12990  0.41840  Biso   1.000  H
  H12      1.0000 0.95320  0.12990  0.08160  Biso   1.000  H
  C17      1.0000 0.96910  0.03350  0.65340  Biso   1.000  C
  C18      1.0000 0.03090  0.03350  0.84660  Biso   1.000  C
  C19      1.0000 0.03090  0.96650  0.34660  Biso   1.000  C
  C20      1.0000 0.96910  0.96650  0.15340  Biso   1.000  C
  H13      1.0000 0.94480  0.07530  0.58440  Biso   1.000  H
  H14      1.0000 0.05520  0.07530  0.91560  Biso   1.000  H
  H15      1.0000 0.05520  0.92470  0.41560  Biso   1.000  H
  H16      1.0000 0.94480  0.92470  0.08440  Biso   1.000  H
  C21      1.0000 0.48740  0.27270  0.63090  Biso   1.000  C
  C22      1.0000 0.51260  0.27270  0.86910  Biso   1.000  C
  C23      1.0000 0.51260  0.72730  0.36910  Biso   1.000  C
  C24      1.0000 0.48740  0.72730  0.13090  Biso   1.000  C
  C25      1.0000 0.49750  0.15660  0.69580  Biso   1.000  C
  C26      1.0000 0.50250  0.15660  0.80420  Biso   1.000  C
  C27      1.0000 0.50250  0.84340  0.30420  Biso   1.000  C
  C28      1.0000 0.49750  0.84340  0.19580  Biso   1.000  C
  C29      1.0000 0.49190  0.04770  0.64100  Biso   1.000  C
  C30      1.0000 0.50810  0.04770  0.85900  Biso   1.000  C
  C31      1.0000 0.50810  0.95230  0.35900  Biso   1.000  C
  C32      1.0000 0.49190  0.95230  0.14100  Biso   1.000  C
  H17      1.0000 0.48570  0.04770  0.56740  Biso   1.000  H
  H18      1.0000 0.51430  0.04770  0.93260  Biso   1.000  H
  H19      1.0000 0.51430  0.95230  0.43260  Biso   1.000  H
  H20      1.0000 0.48570  0.95230  0.06740  Biso   1.000  H
  C33      1.0000 0.49560  0.93800  0.69550  Biso   1.000  C
  C34      1.0000 0.50440  0.93800  0.80450  Biso   1.000  C
  C35      1.0000 0.50440  0.06200  0.30450  Biso   1.000  C
  C36      1.0000 0.49560  0.06200  0.19550  Biso   1.000  C
  H21      1.0000 0.49200  0.86560  0.65830  Biso   1.000  H
  H22      1.0000 0.50800  0.86560  0.84170  Biso   1.000  H
  H23      1.0000 0.50800  0.13440  0.34170  Biso   1.000  H
  H24      1.0000 0.49200  0.13440  0.15830  Biso   1.000  H
  Cu1      1.0000 0.00000  0.27973  0.75000  Biso   1.000  Cu
  Cu2      1.0000 0.00000  0.72027  0.25000  Biso   1.000  Cu
  N1       1.0000 0.00000  0.46100  0.75000  Biso   1.000  N
  N2       1.0000 0.00000  0.53900  0.25000  Biso   1.000  N
  N3       1.0000 0.00000  0.09810  0.75000  Biso   1.000  N
  N4       1.0000 0.00000  0.90190  0.25000  Biso   1.000  N
  O1       1.0000 0.34020  0.58810  0.55970  Biso   1.000  O
  O2       1.0000 0.65980  0.58810  0.94030  Biso   1.000  O
  O3       1.0000 0.65980  0.41190  0.44030  Biso   1.000  O
  O4       1.0000 0.34020  0.41190  0.05970  Biso   1.000  O
  H25      1.0000 0.31900  0.51200  0.52300  Biso   1.000  H
  H26      1.0000 0.68100  0.51200  0.97700  Biso   1.000  H
  H27      1.0000 0.68100  0.48800  0.47700  Biso   1.000  H
  H28      1.0000 0.31900  0.48800  0.02300  Biso   1.000  H
  H29      1.0000 0.44500  0.62200  0.56500  Biso   1.000  H
  H30      1.0000 0.55500  0.62200  0.93500  Biso   1.000  H
  H31      1.0000 0.55500  0.37800  0.43500  Biso   1.000  H
  H32      1.0000 0.44500  0.37800  0.06500  Biso   1.000  H
  O5       1.0000 0.00250  0.28200  0.59590  Biso   1.000  O
  O6       1.0000 0.99750  0.28200  0.90410  Biso   1.000  O
  O7       1.0000 0.99750  0.71800  0.40410  Biso   1.000  O
  O8       1.0000 0.00250  0.71800  0.09590  Biso   1.000  O
  H33      1.0000 0.86500  0.30100  0.53700  Biso   1.000  H
  H34      1.0000 0.13500  0.30100  0.96300  Biso   1.000  H
  H35      1.0000 0.13500  0.69900  0.46300  Biso   1.000  H
  H36      1.0000 0.86500  0.69900  0.03700  Biso   1.000  H
  H37      1.0000 0.04200  0.33500  0.58400  Biso   1.000  H
  H38      1.0000 0.95800  0.33500  0.91600  Biso   1.000  H
  H39      1.0000 0.95800  0.66500  0.41600  Biso   1.000  H
  H40      1.0000 0.04200  0.66500  0.08400  Biso   1.000  H
  O9       1.0000 0.62500  0.29030  0.61040  Biso   1.000  O
  O10      1.0000 0.37500  0.29030  0.88960  Biso   1.000  O
  O11      1.0000 0.37500  0.70970  0.38960  Biso   1.000  O
  O12      1.0000 0.62500  0.70970  0.11040  Biso   1.000  O
  O13      1.0000 0.33870  0.34300  0.60180  Biso   1.000  O
  O14      1.0000 0.66130  0.34300  0.89820  Biso   1.000  O
  O15      1.0000 0.66130  0.65700  0.39820  Biso   1.000  O
  O16      1.0000 0.33870  0.65700  0.10180  Biso   1.000  O
