data_image0
_cell_length_a       8.505
_cell_length_b       11.136
_cell_length_c       13.465
_cell_angle_alpha    104.846
_cell_angle_beta     94.273
_cell_angle_gamma    90.621

_symmetry_space_group_name_H-M    "P 1"
_symmetry_int_tables_number       1

loop_
  _symmetry_equiv_pos_as_xyz
  'x, y, z'

loop_
  _atom_site_label
  _atom_site_occupancy
  _atom_site_fract_x
  _atom_site_fract_y
  _atom_site_fract_z
  _atom_site_thermal_displace_type
  _atom_site_B_iso_or_equiv
  _atom_site_type_symbol
  Cu1      1.0000 0.98507  0.23055  0.77472  Biso   1.000  Cu
  Cu2      1.0000 0.01493  0.76945  0.22528  Biso   1.000  Cu
  O1       1.0000 0.14325  0.33967  0.86170  Biso   1.000  O
  O2       1.0000 0.85675  0.66033  0.13830  Biso   1.000  O
  O3       1.0000 0.31201  0.19488  0.88293  Biso   1.000  O
  O4       1.0000 0.68799  0.80512  0.11707  Biso   1.000  O
  O5       1.0000 0.61543  0.40995  0.33459  Biso   1.000  O
  O6       1.0000 0.38457  0.59005  0.66541  Biso   1.000  O
  O7       1.0000 0.80600  0.31879  0.25137  Biso   1.000  O
  O8       1.0000 0.19400  0.68121  0.74863  Biso   1.000  O
  O9       1.0000 0.58510  0.21869  0.24836  Biso   1.000  O
  O10      1.0000 0.41490  0.78131  0.75164  Biso   1.000  O
  O11      1.0000 0.78240  0.01665  0.26265  Biso   1.000  O
  O12      1.0000 0.21760  0.98335  0.73735  Biso   1.000  O
  H1       1.0000 0.75900  0.96200  0.22000  Biso   1.000  H
  H2       1.0000 0.24100  0.03800  0.78000  Biso   1.000  H
  H3       1.0000 0.71000  0.07100  0.25200  Biso   1.000  H
  H4       1.0000 0.29000  0.92900  0.74800  Biso   1.000  H
  N1       1.0000 0.89710  0.14039  0.87192  Biso   1.000  N
  N2       1.0000 0.10290  0.85961  0.12808  Biso   1.000  N
  N3       1.0000 0.85794  0.10158  0.67712  Biso   1.000  N
  N4       1.0000 0.14206  0.89842  0.32288  Biso   1.000  N
  N5       1.0000 0.03020  0.27076  0.64013  Biso   1.000  N
  N6       1.0000 0.96980  0.72924  0.35987  Biso   1.000  N
  N7       1.0000 0.28361  0.55007  0.25174  Biso   1.000  N
  N8       1.0000 0.71639  0.44993  0.74826  Biso   1.000  N
  N9       1.0000 0.16770  0.58531  0.19032  Biso   1.000  N
  N10      1.0000 0.83230  0.41469  0.80968  Biso   1.000  N
  N11      1.0000 0.16940  0.37661  0.15892  Biso   1.000  N
  N12      1.0000 0.83060  0.62339  0.84108  Biso   1.000  N
  N13      1.0000 0.67040  0.31650  0.27796  Biso   1.000  N
  N14      1.0000 0.32960  0.68350  0.72204  Biso   1.000  N
  C1       1.0000 0.92220  0.17100  0.97462  Biso   1.000  C
  C2       1.0000 0.07780  0.82900  0.02538  Biso   1.000  C
  H5       1.0000 0.99440  0.23760  0.00700  Biso   1.000  H
  H6       1.0000 0.00560  0.76240  0.99300  Biso   1.000  H
  C3       1.0000 0.84730  0.10940  0.03537  Biso   1.000  C
  C4       1.0000 0.15270  0.89060  0.96463  Biso   1.000  C
  H7       1.0000 0.86710  0.13370  0.10820  Biso   1.000  H
  H8       1.0000 0.13290  0.86630  0.89180  Biso   1.000  H
  C5       1.0000 0.74280  0.01200  0.98864  Biso   1.000  C
  C6       1.0000 0.25720  0.98800  0.01136  Biso   1.000  C
  H9       1.0000 0.68910  0.96880  0.02900  Biso   1.000  H
  H10      1.0000 0.31090  0.03120  0.97100  Biso   1.000  H
  C7       1.0000 0.71730  0.97810  0.88183  Biso   1.000  C
  C8       1.0000 0.28270  0.02190  0.11817  Biso   1.000  C
  H11      1.0000 0.64690  0.91070  0.84810  Biso   1.000  H
  H12      1.0000 0.35310  0.08930  0.15190  Biso   1.000  H
  C9       1.0000 0.79540  0.04370  0.82568  Biso   1.000  C
  C10      1.0000 0.20460  0.95630  0.17432  Biso   1.000  C
  C11      1.0000 0.77660  0.01977  0.71199  Biso   1.000  C
  C12      1.0000 0.22340  0.98023  0.28801  Biso   1.000  C
  C13      1.0000 0.68230  0.92702  0.64459  Biso   1.000  C
  C14      1.0000 0.31770  0.07298  0.35541  Biso   1.000  C
  H13      1.0000 0.62300  0.87010  0.67000  Biso   1.000  H
  H14      1.0000 0.37700  0.12990  0.33000  Biso   1.000  H
  C15      1.0000 0.67570  0.91821  0.53811  Biso   1.000  C
  C16      1.0000 0.32430  0.08179  0.46189  Biso   1.000  C
  C17      1.0000 0.76370  0.00534  0.50487  Biso   1.000  C
  C18      1.0000 0.23630  0.99466  0.49513  Biso   1.000  C
  H15      1.0000 0.76160  0.00210  0.43360  Biso   1.000  H
  H16      1.0000 0.23840  0.99790  0.56640  Biso   1.000  H
  C19      1.0000 0.85350  0.09613  0.57650  Biso   1.000  C
  C20      1.0000 0.14650  0.90387  0.42350  Biso   1.000  C
  C21      1.0000 0.94940  0.19724  0.55480  Biso   1.000  C
  C22      1.0000 0.05060  0.80276  0.44520  Biso   1.000  C
  C23      1.0000 0.95520  0.21826  0.45859  Biso   1.000  C
  C24      1.0000 0.04480  0.78174  0.54141  Biso   1.000  C
  H17      1.0000 0.89870  0.16510  0.40000  Biso   1.000  H
  H18      1.0000 0.10130  0.83490  0.60000  Biso   1.000  H
  C25      1.0000 0.04570  0.31900  0.44913  Biso   1.000  C
  C26      1.0000 0.95430  0.68100  0.55087  Biso   1.000  C
  H19      1.0000 0.05200  0.33590  0.38380  Biso   1.000  H
  H20      1.0000 0.94800  0.66410  0.61620  Biso   1.000  H
  C27      1.0000 0.12600  0.39380  0.53591  Biso   1.000  C
  C28      1.0000 0.87400  0.60620  0.46409  Biso   1.000  C
  H21      1.0000 0.18790  0.46330  0.53110  Biso   1.000  H
  H22      1.0000 0.81210  0.53670  0.46890  Biso   1.000  H
  C29      1.0000 0.11620  0.36728  0.63007  Biso   1.000  C
  C30      1.0000 0.88380  0.63272  0.36993  Biso   1.000  C
  H23      1.0000 0.17240  0.41930  0.68940  Biso   1.000  H
  H24      1.0000 0.82760  0.58070  0.31060  Biso   1.000  H
  C31      1.0000 0.57530  0.82078  0.46339  Biso   1.000  C
  C32      1.0000 0.42470  0.17922  0.53661  Biso   1.000  C
  C33      1.0000 0.50620  0.72328  0.49381  Biso   1.000  C
  C34      1.0000 0.49380  0.27672  0.50619  Biso   1.000  C
  H25      1.0000 0.52480  0.71820  0.56310  Biso   1.000  H
  H26      1.0000 0.47520  0.28180  0.43690  Biso   1.000  H
  C35      1.0000 0.41060  0.63344  0.42424  Biso   1.000  C
  C36      1.0000 0.58940  0.36656  0.57576  Biso   1.000  C
  H27      1.0000 0.36350  0.56760  0.44580  Biso   1.000  H
  H28      1.0000 0.63650  0.43240  0.55420  Biso   1.000  H
  C37      1.0000 0.38460  0.64062  0.32336  Biso   1.000  C
  C38      1.0000 0.61540  0.35938  0.67664  Biso   1.000  C
  C39      1.0000 0.45360  0.73560  0.29063  Biso   1.000  C
  C40      1.0000 0.54640  0.26440  0.70937  Biso   1.000  C
  H29      1.0000 0.43550  0.73960  0.22110  Biso   1.000  H
  H30      1.0000 0.56450  0.26040  0.77890  Biso   1.000  H
  C41      1.0000 0.54920  0.82445  0.36041  Biso   1.000  C
  C42      1.0000 0.45080  0.17555  0.63959  Biso   1.000  C
  H31      1.0000 0.59790  0.88900  0.33800  Biso   1.000  H
  H32      1.0000 0.40210  0.11100  0.66200  Biso   1.000  H
  C43      1.0000 0.28190  0.42610  0.23154  Biso   1.000  C
  C44      1.0000 0.71810  0.57390  0.76846  Biso   1.000  C
  H33      1.0000 0.35170  0.38000  0.26480  Biso   1.000  H
  H34      1.0000 0.64830  0.62000  0.73520  Biso   1.000  H
  C45      1.0000 0.10330  0.47700  0.13741  Biso   1.000  C
  C46      1.0000 0.89670  0.52300  0.86259  Biso   1.000  C
  H35      1.0000 0.01630  0.47060  0.08760  Biso   1.000  H
  H36      1.0000 0.98370  0.52940  0.91240  Biso   1.000  H
  C47      1.0000 0.39060  0.40643  0.94976  Biso   1.000  C
  C48      1.0000 0.60940  0.59357  0.05024  Biso   1.000  C
  C49      1.0000 0.37320  0.52610  0.93860  Biso   1.000  C
  C50      1.0000 0.62680  0.47390  0.06140  Biso   1.000  C
  H37      1.0000 0.28650  0.54410  0.89660  Biso   1.000  H
  H38      1.0000 0.71350  0.45590  0.10340  Biso   1.000  H
  C51      1.0000 0.51760  0.38060  0.01127  Biso   1.000  C
  C52      1.0000 0.48240  0.61940  0.98873  Biso   1.000  C
  H39      1.0000 0.52980  0.29870  0.01900  Biso   1.000  H
  H40      1.0000 0.47020  0.70130  0.98100  Biso   1.000  H
  C53      1.0000 0.27510  0.30321  0.89448  Biso   1.000  C
  C54      1.0000 0.72490  0.69679  0.10552  Biso   1.000  C
