data_image0
_cell_length_a       10.637
_cell_length_b       12.5138
_cell_length_c       15.3015
_cell_angle_alpha    93.662
_cell_angle_beta     92.369
_cell_angle_gamma    104.387

_symmetry_space_group_name_H-M    "P 1"
_symmetry_int_tables_number       1

loop_
  _symmetry_equiv_pos_as_xyz
  'x, y, z'

loop_
  _atom_site_label
  _atom_site_occupancy
  _atom_site_fract_x
  _atom_site_fract_y
  _atom_site_fract_z
  _atom_site_thermal_displace_type
  _atom_site_B_iso_or_equiv
  _atom_site_type_symbol
  Cu1      1.0000 0.50205  0.89466  0.48743  Biso   1.000  Cu
  Cu2      1.0000 0.49795  0.10534  0.51257  Biso   1.000  Cu
  Cu3      1.0000 0.43798  0.49536  0.07283  Biso   1.000  Cu
  Cu4      1.0000 0.56202  0.50464  0.92717  Biso   1.000  Cu
  O1       1.0000 0.55850  0.91220  0.61290  Biso   1.000  O
  O2       1.0000 0.44150  0.08780  0.38710  Biso   1.000  O
  O3       1.0000 0.67760  0.96990  0.45510  Biso   1.000  O
  O4       1.0000 0.32240  0.03010  0.54490  Biso   1.000  O
  O5       1.0000 0.56090  0.09130  0.63444  Biso   1.000  O
  O6       1.0000 0.43910  0.90870  0.36556  Biso   1.000  O
  O7       1.0000 0.68030  0.14880  0.48103  Biso   1.000  O
  O8       1.0000 0.31970  0.85120  0.51897  Biso   1.000  O
  O9       1.0000 0.56100  0.64100  0.10180  Biso   1.000  O
  O10      1.0000 0.43900  0.35900  0.89820  Biso   1.000  O
  O11      1.0000 0.32070  0.56880  0.01210  Biso   1.000  O
  O12      1.0000 0.67930  0.43120  0.98790  Biso   1.000  O
  O13      1.0000 0.42750  0.57890  0.88940  Biso   1.000  O
  O14      1.0000 0.57250  0.42110  0.11060  Biso   1.000  O
  O15      1.0000 0.67000  0.64650  0.97890  Biso   1.000  O
  O16      1.0000 0.33000  0.35350  0.02110  Biso   1.000  O
  N1       1.0000 0.63370  0.63540  0.36450  Biso   1.000  N
  N2       1.0000 0.36630  0.36460  0.63550  Biso   1.000  N
  N3       1.0000 0.60660  0.57980  0.43640  Biso   1.000  N
  N4       1.0000 0.39340  0.42020  0.56360  Biso   1.000  N
  N5       1.0000 0.54890  0.74030  0.44950  Biso   1.000  N
  N6       1.0000 0.45110  0.25970  0.55050  Biso   1.000  N
  N7       1.0000 0.28820  0.55510  0.31710  Biso   1.000  N
  N8       1.0000 0.71180  0.44490  0.68290  Biso   1.000  N
  N9       1.0000 0.29490  0.45330  0.33080  Biso   1.000  N
  N10      1.0000 0.70510  0.54670  0.66920  Biso   1.000  N
  N11      1.0000 0.35630  0.49420  0.19770  Biso   1.000  N
  N12      1.0000 0.64370  0.50580  0.80230  Biso   1.000  N
  C1       1.0000 0.55650  0.64750  0.48530  Biso   1.000  C
  C2       1.0000 0.44350  0.35250  0.51470  Biso   1.000  C
  H1       1.0000 0.52850  0.63170  0.54090  Biso   1.000  H
  H2       1.0000 0.47150  0.36830  0.45910  Biso   1.000  H
  C3       1.0000 0.60010  0.72970  0.37400  Biso   1.000  C
  C4       1.0000 0.39990  0.27030  0.62600  Biso   1.000  C
  H3       1.0000 0.61130  0.78200  0.33250  Biso   1.000  H
  H4       1.0000 0.38870  0.21800  0.66750  Biso   1.000  H
  C5       1.0000 0.69460  0.59060  0.29160  Biso   1.000  C
  C6       1.0000 0.30540  0.40940  0.70840  Biso   1.000  C
  H5       1.0000 0.68680  0.63070  0.24030  Biso   1.000  H
  H6       1.0000 0.31320  0.36930  0.75970  Biso   1.000  H
  H7       1.0000 0.64980  0.51350  0.27720  Biso   1.000  H
  H8       1.0000 0.35020  0.48650  0.72280  Biso   1.000  H
  C7       1.0000 0.83630  0.59970  0.31490  Biso   1.000  C
  C8       1.0000 0.16370  0.40030  0.68510  Biso   1.000  C
  C9       1.0000 0.87210  0.51950  0.35740  Biso   1.000  C
  C10      1.0000 0.12790  0.48050  0.64260  Biso   1.000  C
  H9       1.0000 0.80880  0.45820  0.37160  Biso   1.000  H
  H10      1.0000 0.19120  0.54180  0.62840  Biso   1.000  H
  C11      1.0000 0.00340  0.52730  0.38050  Biso   1.000  C
  C12      1.0000 0.99660  0.47270  0.61950  Biso   1.000  C
  H11      1.0000 0.02670  0.47210  0.41050  Biso   1.000  H
  H12      1.0000 0.97330  0.52790  0.58950  Biso   1.000  H
  C13      1.0000 0.09620  0.61560  0.35880  Biso   1.000  C
  C14      1.0000 0.90380  0.38440  0.64120  Biso   1.000  C
  C15      1.0000 0.06090  0.69630  0.31710  Biso   1.000  C
  C16      1.0000 0.93910  0.30370  0.68290  Biso   1.000  C
  H13      1.0000 0.12410  0.75790  0.30330  Biso   1.000  H
  H14      1.0000 0.87590  0.24210  0.69670  Biso   1.000  H
  C17      1.0000 0.92960  0.68800  0.29430  Biso   1.000  C
  C18      1.0000 0.07040  0.31200  0.70570  Biso   1.000  C
  H15      1.0000 0.90640  0.74360  0.26490  Biso   1.000  H
  H16      1.0000 0.09360  0.25640  0.73510  Biso   1.000  H
  C19      1.0000 0.23780  0.62220  0.38230  Biso   1.000  C
  C20      1.0000 0.76220  0.37780  0.61770  Biso   1.000  C
  H17      1.0000 0.28800  0.69860  0.38430  Biso   1.000  H
  H18      1.0000 0.71200  0.30140  0.61570  Biso   1.000  H
  H19      1.0000 0.24620  0.59560  0.43990  Biso   1.000  H
  H20      1.0000 0.75380  0.40440  0.56010  Biso   1.000  H
  C21      1.0000 0.33750  0.42150  0.25780  Biso   1.000  C
  C22      1.0000 0.66250  0.57850  0.74220  Biso   1.000  C
  H21      1.0000 0.35370  0.35210  0.24850  Biso   1.000  H
  H22      1.0000 0.64630  0.64790  0.75150  Biso   1.000  H
  C23      1.0000 0.32310  0.57650  0.23880  Biso   1.000  C
  C24      1.0000 0.67690  0.42350  0.76120  Biso   1.000  C
  H23      1.0000 0.32440  0.64310  0.21470  Biso   1.000  H
  H24      1.0000 0.67560  0.35690  0.78530  Biso   1.000  H
  C25      1.0000 0.87280  0.10300  0.43590  Biso   1.000  C
  C26      1.0000 0.12720  0.89700  0.56410  Biso   1.000  C
  C27      1.0000 0.94630  0.20800  0.45180  Biso   1.000  C
  C28      1.0000 0.05370  0.79200  0.54820  Biso   1.000  C
  H25      1.0000 0.90740  0.26210  0.47390  Biso   1.000  H
  H26      1.0000 0.09260  0.73790  0.52610  Biso   1.000  H
  C29      1.0000 0.07810  0.23800  0.43610  Biso   1.000  C
  C30      1.0000 0.92190  0.76200  0.56390  Biso   1.000  C
  H27      1.0000 0.12740  0.31040  0.44850  Biso   1.000  H
  H28      1.0000 0.87260  0.68960  0.55150  Biso   1.000  H
  C31      1.0000 0.13320  0.15720  0.40170  Biso   1.000  C
  C32      1.0000 0.86680  0.84280  0.59830  Biso   1.000  C
  H29      1.0000 0.22120  0.17490  0.39110  Biso   1.000  H
  H30      1.0000 0.77880  0.82510  0.60890  Biso   1.000  H
  C33      1.0000 0.06010  0.05170  0.38310  Biso   1.000  C
  C34      1.0000 0.93990  0.94830  0.61690  Biso   1.000  C
  H31      1.0000 0.09790  0.99860  0.35790  Biso   1.000  H
  H32      1.0000 0.90210  0.00140  0.64210  Biso   1.000  H
  C35      1.0000 0.92940  0.02250  0.40150  Biso   1.000  C
  C36      1.0000 0.07060  0.97750  0.59850  Biso   1.000  C
  H33      1.0000 0.88070  0.94970  0.39070  Biso   1.000  H
  H34      1.0000 0.11930  0.05030  0.60930  Biso   1.000  H
  C37      1.0000 0.73290  0.07100  0.45920  Biso   1.000  C
  C38      1.0000 0.26710  0.92900  0.54080  Biso   1.000  C
  C39      1.0000 0.60840  0.99770  0.75580  Biso   1.000  C
  C40      1.0000 0.39160  0.00230  0.24420  Biso   1.000  C
  C41      1.0000 0.61720  0.90320  0.79000  Biso   1.000  C
  C42      1.0000 0.38280  0.09680  0.21000  Biso   1.000  C
  H35      1.0000 0.60370  0.83880  0.75320  Biso   1.000  H
  H36      1.0000 0.39630  0.16120  0.24680  Biso   1.000  H
  C43      1.0000 0.64610  0.89990  0.87870  Biso   1.000  C
  C44      1.0000 0.35390  0.10010  0.12130  Biso   1.000  C
  H37      1.0000 0.65200  0.83400  0.90120  Biso   1.000  H
  H38      1.0000 0.34800  0.16600  0.09880  Biso   1.000  H
  C45      1.0000 0.66560  0.99410  0.93280  Biso   1.000  C
  C46      1.0000 0.33440  0.00590  0.06720  Biso   1.000  C
  H39      1.0000 0.68250  0.99200  0.99270  Biso   1.000  H
  H40      1.0000 0.31750  0.00800  0.00730  Biso   1.000  H
  C47      1.0000 0.66050  0.09010  0.89970  Biso   1.000  C
  C48      1.0000 0.33950  0.90990  0.10030  Biso   1.000  C
  H41      1.0000 0.67610  0.15470  0.93640  Biso   1.000  H
  H42      1.0000 0.32390  0.84530  0.06360  Biso   1.000  H
  C49      1.0000 0.63170  0.09250  0.81020  Biso   1.000  C
  C50      1.0000 0.36830  0.90750  0.18980  Biso   1.000  C
  H43      1.0000 0.62830  0.15890  0.78740  Biso   1.000  H
  H44      1.0000 0.37170  0.84110  0.21260  Biso   1.000  H
  C51      1.0000 0.57360  0.00170  0.65990  Biso   1.000  C
  C52      1.0000 0.42640  0.99830  0.34010  Biso   1.000  C
  C53      1.0000 0.74340  0.79150  0.08970  Biso   1.000  C
  C54      1.0000 0.25660  0.20850  0.91030  Biso   1.000  C
  C55      1.0000 0.70350  0.85920  0.15130  Biso   1.000  C
  C56      1.0000 0.29650  0.14080  0.84870  Biso   1.000  C
  H45      1.0000 0.61980  0.83960  0.17090  Biso   1.000  H
  H46      1.0000 0.38020  0.16040  0.82910  Biso   1.000  H
  C57      1.0000 0.79020  0.95680  0.18370  Biso   1.000  C
  C58      1.0000 0.20980  0.04320  0.81630  Biso   1.000  C
  H47      1.0000 0.76350  0.00410  0.22410  Biso   1.000  H
  H48      1.0000 0.23650  0.99590  0.77590  Biso   1.000  H
  C59      1.0000 0.91340  0.98460  0.15720  Biso   1.000  C
  C60      1.0000 0.08660  0.01540  0.84280  Biso   1.000  C
  H49      1.0000 0.97150  0.04930  0.18090  Biso   1.000  H
  H50      1.0000 0.02850  0.95070  0.81910  Biso   1.000  H
  C61      1.0000 0.95170  0.91810  0.09630  Biso   1.000  C
  C62      1.0000 0.04830  0.08190  0.90370  Biso   1.000  C
  H51      1.0000 0.03590  0.93780  0.07760  Biso   1.000  H
  H52      1.0000 0.96410  0.06220  0.92240  Biso   1.000  H
  C63      1.0000 0.86680  0.82140  0.06190  Biso   1.000  C
  C64      1.0000 0.13320  0.17860  0.93810  Biso   1.000  C
  H53      1.0000 0.89350  0.77630  0.01970  Biso   1.000  H
  H54      1.0000 0.10650  0.22370  0.98030  Biso   1.000  H
  C65      1.0000 0.65130  0.68590  0.05400  Biso   1.000  C
  C66      1.0000 0.34870  0.31410  0.94600  Biso   1.000  C
  C67      1.0000 0.23320  0.63720  0.88980  Biso   1.000  C
  C68      1.0000 0.76680  0.36280  0.11020  Biso   1.000  C
  C69      1.0000 0.26070  0.69440  0.81730  Biso   1.000  C
  C70      1.0000 0.73930  0.30560  0.18270  Biso   1.000  C
  H55      1.0000 0.34360  0.70910  0.79640  Biso   1.000  H
  H56      1.0000 0.65640  0.29090  0.20360  Biso   1.000  H
  C71      1.0000 0.16210  0.73050  0.77520  Biso   1.000  C
  C72      1.0000 0.83790  0.26950  0.22480  Biso   1.000  C
  H57      1.0000 0.18080  0.77340  0.72780  Biso   1.000  H
  H58      1.0000 0.81920  0.22660  0.27220  Biso   1.000  H
  C73      1.0000 0.03930  0.70400  0.80240  Biso   1.000  C
  C74      1.0000 0.96070  0.29600  0.19760  Biso   1.000  C
  H59      1.0000 0.97320  0.72410  0.77100  Biso   1.000  H
  H60      1.0000 0.02680  0.27590  0.22900  Biso   1.000  H
  C75      1.0000 0.01310  0.64890  0.87420  Biso   1.000  C
  C76      1.0000 0.98690  0.35110  0.12580  Biso   1.000  C
  H61      1.0000 0.92940  0.63380  0.89380  Biso   1.000  H
  H62      1.0000 0.07060  0.36620  0.10620  Biso   1.000  H
  C77      1.0000 0.10960  0.61390  0.92000  Biso   1.000  C
  C78      1.0000 0.89040  0.38610  0.08000  Biso   1.000  C
  H63      1.0000 0.09110  0.57560  0.96990  Biso   1.000  H
  H64      1.0000 0.90890  0.42440  0.03010  Biso   1.000  H
  C79      1.0000 0.33640  0.59310  0.93460  Biso   1.000  C
  C80      1.0000 0.66360  0.40690  0.06540  Biso   1.000  C
