data_image0
_cell_length_a       8.021
_cell_length_b       16.864
_cell_length_c       8.311
_cell_angle_alpha    90
_cell_angle_beta     90
_cell_angle_gamma    90

_symmetry_space_group_name_H-M    "P 1"
_symmetry_int_tables_number       1

loop_
  _symmetry_equiv_pos_as_xyz
  'x, y, z'

loop_
  _atom_site_label
  _atom_site_occupancy
  _atom_site_fract_x
  _atom_site_fract_y
  _atom_site_fract_z
  _atom_site_thermal_displace_type
  _atom_site_B_iso_or_equiv
  _atom_site_type_symbol
  Cu1      1.0000 0.19664  0.52376  0.25000  Biso   1.000  Cu
  Cu2      1.0000 0.80336  0.47624  0.75000  Biso   1.000  Cu
  Cu3      1.0000 0.19664  0.97624  0.75000  Biso   1.000  Cu
  Cu4      1.0000 0.80336  0.02376  0.25000  Biso   1.000  Cu
  O1       1.0000 0.06880  0.42388  0.25000  Biso   1.000  O
  O2       1.0000 0.93120  0.57612  0.75000  Biso   1.000  O
  O3       1.0000 0.06880  0.07612  0.75000  Biso   1.000  O
  O4       1.0000 0.93120  0.92388  0.25000  Biso   1.000  O
  O5       1.0000 0.32560  0.37823  0.25000  Biso   1.000  O
  O6       1.0000 0.67440  0.62177  0.75000  Biso   1.000  O
  O7       1.0000 0.32560  0.12177  0.75000  Biso   1.000  O
  O8       1.0000 0.67440  0.87823  0.25000  Biso   1.000  O
  O9       1.0000 0.98130  0.62197  0.25000  Biso   1.000  O
  O10      1.0000 0.01870  0.37803  0.75000  Biso   1.000  O
  O11      1.0000 0.98130  0.87803  0.75000  Biso   1.000  O
  O12      1.0000 0.01870  0.12197  0.25000  Biso   1.000  O
  O13      1.0000 0.27970  0.08205  0.25000  Biso   1.000  O
  O14      1.0000 0.72030  0.91795  0.75000  Biso   1.000  O
  O15      1.0000 0.27970  0.41795  0.75000  Biso   1.000  O
  O16      1.0000 0.72030  0.58205  0.25000  Biso   1.000  O
  N1       1.0000 0.20260  0.53743  0.00850  Biso   1.000  N
  N2       1.0000 0.79740  0.46257  0.50850  Biso   1.000  N
  N3       1.0000 0.20260  0.96257  0.99150  Biso   1.000  N
  N4       1.0000 0.79740  0.03743  0.49150  Biso   1.000  N
  N5       1.0000 0.79740  0.46257  0.99150  Biso   1.000  N
  N6       1.0000 0.20260  0.53743  0.49150  Biso   1.000  N
  N7       1.0000 0.79740  0.03743  0.00850  Biso   1.000  N
  N8       1.0000 0.20260  0.96257  0.50850  Biso   1.000  N
  H1       1.0000 0.22800  0.49093  0.96130  Biso   1.000  H
  H2       1.0000 0.77200  0.50907  0.46130  Biso   1.000  H
  H3       1.0000 0.22800  0.00907  0.03870  Biso   1.000  H
  H4       1.0000 0.77200  0.99093  0.53870  Biso   1.000  H
  H5       1.0000 0.77200  0.50907  0.03870  Biso   1.000  H
  H6       1.0000 0.22800  0.49093  0.53870  Biso   1.000  H
  H7       1.0000 0.77200  0.99093  0.96130  Biso   1.000  H
  H8       1.0000 0.22800  0.00907  0.46130  Biso   1.000  H
  H9       1.0000 0.10210  0.55318  0.97260  Biso   1.000  H
  H10      1.0000 0.89790  0.44682  0.47260  Biso   1.000  H
  H11      1.0000 0.10210  0.94682  0.02740  Biso   1.000  H
  H12      1.0000 0.89790  0.05318  0.52740  Biso   1.000  H
  H13      1.0000 0.89790  0.44682  0.02740  Biso   1.000  H
  H14      1.0000 0.10210  0.55318  0.52740  Biso   1.000  H
  H15      1.0000 0.89790  0.05318  0.97260  Biso   1.000  H
  H16      1.0000 0.10210  0.94682  0.47260  Biso   1.000  H
  N9       1.0000 0.36620  0.61155  0.25000  Biso   1.000  N
  N10      1.0000 0.63380  0.38845  0.75000  Biso   1.000  N
  N11      1.0000 0.36620  0.88845  0.75000  Biso   1.000  N
  N12      1.0000 0.63380  0.11155  0.25000  Biso   1.000  N
  H17      1.0000 0.46940  0.59062  0.25000  Biso   1.000  H
  H18      1.0000 0.53060  0.40938  0.75000  Biso   1.000  H
  H19      1.0000 0.46940  0.90938  0.75000  Biso   1.000  H
  H20      1.0000 0.53060  0.09062  0.25000  Biso   1.000  H
  C1       1.0000 0.32890  0.59770  0.96770  Biso   1.000  C
  C2       1.0000 0.67110  0.40230  0.46770  Biso   1.000  C
  C3       1.0000 0.32890  0.90230  0.03230  Biso   1.000  C
  C4       1.0000 0.67110  0.09770  0.53230  Biso   1.000  C
  C5       1.0000 0.67110  0.40230  0.03230  Biso   1.000  C
  C6       1.0000 0.32890  0.59770  0.53230  Biso   1.000  C
  C7       1.0000 0.67110  0.09770  0.96770  Biso   1.000  C
  C8       1.0000 0.32890  0.90230  0.46770  Biso   1.000  C
  H21      1.0000 0.43540  0.57280  0.95320  Biso   1.000  H
  H22      1.0000 0.56460  0.42720  0.45320  Biso   1.000  H
  H23      1.0000 0.43540  0.92720  0.04680  Biso   1.000  H
  H24      1.0000 0.56460  0.07280  0.54680  Biso   1.000  H
  H25      1.0000 0.56460  0.42720  0.04680  Biso   1.000  H
  H26      1.0000 0.43540  0.57280  0.54680  Biso   1.000  H
  H27      1.0000 0.56460  0.07280  0.95320  Biso   1.000  H
  H28      1.0000 0.43540  0.92720  0.45320  Biso   1.000  H
  H29      1.0000 0.29960  0.62420  0.86940  Biso   1.000  H
  H30      1.0000 0.70040  0.37580  0.36940  Biso   1.000  H
  H31      1.0000 0.29960  0.87580  0.13060  Biso   1.000  H
  H32      1.0000 0.70040  0.12420  0.63060  Biso   1.000  H
  H33      1.0000 0.70040  0.37580  0.13060  Biso   1.000  H
  H34      1.0000 0.29960  0.62420  0.63060  Biso   1.000  H
  H35      1.0000 0.70040  0.12420  0.86940  Biso   1.000  H
  H36      1.0000 0.29960  0.87580  0.36940  Biso   1.000  H
  C9       1.0000 0.34070  0.65642  0.10150  Biso   1.000  C
  C10      1.0000 0.65930  0.34358  0.60150  Biso   1.000  C
  C11      1.0000 0.34070  0.84358  0.89850  Biso   1.000  C
  C12      1.0000 0.65930  0.15642  0.39850  Biso   1.000  C
  C13      1.0000 0.65930  0.34358  0.89850  Biso   1.000  C
  C14      1.0000 0.34070  0.65642  0.39850  Biso   1.000  C
  C15      1.0000 0.65930  0.15642  0.10150  Biso   1.000  C
  C16      1.0000 0.34070  0.84358  0.60150  Biso   1.000  C
  H37      1.0000 0.23880  0.68611  0.10770  Biso   1.000  H
  H38      1.0000 0.76120  0.31389  0.60770  Biso   1.000  H
  H39      1.0000 0.23880  0.81389  0.89230  Biso   1.000  H
  H40      1.0000 0.76120  0.18611  0.39230  Biso   1.000  H
  H41      1.0000 0.76120  0.31389  0.89230  Biso   1.000  H
  H42      1.0000 0.23880  0.68611  0.39230  Biso   1.000  H
  H43      1.0000 0.76120  0.18611  0.10770  Biso   1.000  H
  H44      1.0000 0.23880  0.81389  0.60770  Biso   1.000  H
  H45      1.0000 0.43100  0.69281  0.08470  Biso   1.000  H
  H46      1.0000 0.56900  0.30719  0.58470  Biso   1.000  H
  H47      1.0000 0.43100  0.80719  0.91530  Biso   1.000  H
  H48      1.0000 0.56900  0.19281  0.41530  Biso   1.000  H
  H49      1.0000 0.56900  0.30719  0.91530  Biso   1.000  H
  H50      1.0000 0.43100  0.69281  0.41530  Biso   1.000  H
  H51      1.0000 0.56900  0.19281  0.08470  Biso   1.000  H
  H52      1.0000 0.43100  0.80719  0.58470  Biso   1.000  H
  C17      1.0000 0.17520  0.36740  0.25000  Biso   1.000  C
  C18      1.0000 0.82480  0.63260  0.75000  Biso   1.000  C
  C19      1.0000 0.17520  0.13260  0.75000  Biso   1.000  C
  C20      1.0000 0.82480  0.86740  0.25000  Biso   1.000  C
  C21      1.0000 0.10210  0.28413  0.25000  Biso   1.000  C
  C22      1.0000 0.89790  0.71587  0.75000  Biso   1.000  C
  C23      1.0000 0.10210  0.21587  0.75000  Biso   1.000  C
  C24      1.0000 0.89790  0.78413  0.25000  Biso   1.000  C
  H53      1.0000 0.03310  0.27750  0.34340  Biso   1.000  H
  H54      1.0000 0.96690  0.72250  0.84340  Biso   1.000  H
  H55      1.0000 0.03310  0.22250  0.65660  Biso   1.000  H
  H56      1.0000 0.96690  0.77750  0.15660  Biso   1.000  H
  H57      1.0000 0.96690  0.72250  0.65660  Biso   1.000  H
  H58      1.0000 0.03310  0.27750  0.15660  Biso   1.000  H
  H59      1.0000 0.96690  0.77750  0.34340  Biso   1.000  H
  H60      1.0000 0.03310  0.22250  0.84340  Biso   1.000  H
  C25      1.0000 0.23120  0.21990  0.25000  Biso   1.000  C
  C26      1.0000 0.76880  0.78010  0.75000  Biso   1.000  C
  C27      1.0000 0.23120  0.28010  0.75000  Biso   1.000  C
  C28      1.0000 0.76880  0.71990  0.25000  Biso   1.000  C
  H61      1.0000 0.30010  0.22760  0.15680  Biso   1.000  H
  H62      1.0000 0.69990  0.77240  0.65680  Biso   1.000  H
  H63      1.0000 0.30010  0.27240  0.84320  Biso   1.000  H
  H64      1.0000 0.69990  0.72760  0.34320  Biso   1.000  H
  H65      1.0000 0.69990  0.77240  0.84320  Biso   1.000  H
  H66      1.0000 0.30010  0.22760  0.34320  Biso   1.000  H
  H67      1.0000 0.69990  0.72760  0.15680  Biso   1.000  H
  H68      1.0000 0.30010  0.27240  0.65680  Biso   1.000  H
  C29      1.0000 0.17000  0.13450  0.25000  Biso   1.000  C
  C30      1.0000 0.83000  0.86550  0.75000  Biso   1.000  C
  C31      1.0000 0.17000  0.36550  0.75000  Biso   1.000  C
  C32      1.0000 0.83000  0.63450  0.25000  Biso   1.000  C
