data_image0
_cell_length_a       7.422
_cell_length_b       12.523
_cell_length_c       7.627
_cell_angle_alpha    90
_cell_angle_beta     112.17
_cell_angle_gamma    90

_symmetry_space_group_name_H-M    "P 1"
_symmetry_int_tables_number       1

loop_
  _symmetry_equiv_pos_as_xyz
  'x, y, z'

loop_
  _atom_site_label
  _atom_site_occupancy
  _atom_site_fract_x
  _atom_site_fract_y
  _atom_site_fract_z
  _atom_site_thermal_displace_type
  _atom_site_B_iso_or_equiv
  _atom_site_type_symbol
  C1       1.0000 0.15690  0.95910  0.94750  Biso   1.000  C
  C2       1.0000 0.15690  0.04090  0.44750  Biso   1.000  C
  H1       1.0000 0.15190  0.02610  0.99780  Biso   1.000  H
  H2       1.0000 0.15190  0.97390  0.49780  Biso   1.000  H
  H3       1.0000 0.25200  0.94410  0.89910  Biso   1.000  H
  H4       1.0000 0.25200  0.05590  0.39910  Biso   1.000  H
  C3       1.0000 0.03120  0.88630  0.94470  Biso   1.000  C
  C4       1.0000 0.03120  0.11370  0.44470  Biso   1.000  C
  H5       1.0000 0.04100  0.82020  0.89320  Biso   1.000  H
  H6       1.0000 0.04100  0.17980  0.39320  Biso   1.000  H
  C5       1.0000 0.87290  0.90030  0.01740  Biso   1.000  C
  C6       1.0000 0.87290  0.09970  0.51740  Biso   1.000  C
  H7       1.0000 0.89060  0.96810  0.08330  Biso   1.000  H
  H8       1.0000 0.89060  0.03190  0.58330  Biso   1.000  H
  H9       1.0000 0.88240  0.84420  0.10810  Biso   1.000  H
  H10      1.0000 0.88240  0.15580  0.60810  Biso   1.000  H
  C7       1.0000 0.58370  0.76030  0.80280  Biso   1.000  C
  C8       1.0000 0.58370  0.23970  0.30280  Biso   1.000  C
  C9       1.0000 0.77890  0.51740  0.95660  Biso   1.000  C
  C10      1.0000 0.77890  0.48260  0.45660  Biso   1.000  C
  H11      1.0000 0.89800  0.53330  0.05190  Biso   1.000  H
  H12      1.0000 0.89800  0.46670  0.55190  Biso   1.000  H
  C11      1.0000 0.71680  0.40850  0.90320  Biso   1.000  C
  C12      1.0000 0.71680  0.59150  0.40320  Biso   1.000  C
  C13      1.0000 0.82500  0.31900  0.98870  Biso   1.000  C
  C14      1.0000 0.82500  0.68100  0.48870  Biso   1.000  C
  H13      1.0000 0.94530  0.32570  0.08750  Biso   1.000  H
  H14      1.0000 0.94530  0.67430  0.58750  Biso   1.000  H
  C15      1.0000 0.74900  0.22070  0.92290  Biso   1.000  C
  C16      1.0000 0.74900  0.77930  0.42290  Biso   1.000  C
  H15      1.0000 0.81900  0.15960  0.97720  Biso   1.000  H
  H16      1.0000 0.81900  0.84040  0.47720  Biso   1.000  H
  C17      1.0000 0.57320  0.21110  0.77990  Biso   1.000  C
  C18      1.0000 0.57320  0.78890  0.27990  Biso   1.000  C
  H17      1.0000 0.52130  0.14410  0.73690  Biso   1.000  H
  H18      1.0000 0.52130  0.85590  0.23690  Biso   1.000  H
  C19      1.0000 0.47300  0.30180  0.69950  Biso   1.000  C
  C20      1.0000 0.47300  0.69820  0.19950  Biso   1.000  C
  H19      1.0000 0.35240  0.29540  0.60090  Biso   1.000  H
  H20      1.0000 0.35240  0.70460  0.10090  Biso   1.000  H
  N1       1.0000 0.71910  0.69590  0.91140  Biso   1.000  N
  N2       1.0000 0.71910  0.30410  0.41140  Biso   1.000  N
  N3       1.0000 0.66130  0.58960  0.86610  Biso   1.000  N
  N4       1.0000 0.66130  0.41040  0.36610  Biso   1.000  N
  N5       1.0000 0.54290  0.39910  0.75800  Biso   1.000  N
  N6       1.0000 0.54290  0.60090  0.25800  Biso   1.000  N
  S1       1.0000 0.63150  0.89700  0.83160  Biso   1.000  S
  S2       1.0000 0.63150  0.10300  0.33160  Biso   1.000  S
  S3       1.0000 0.36210  0.72605  0.63120  Biso   1.000  S
  S4       1.0000 0.36210  0.27395  0.13120  Biso   1.000  S
  Cl1      1.0000 0.19890  0.49169  0.38970  Biso   1.000  Cl
  Cl2      1.0000 0.19890  0.50831  0.88970  Biso   1.000  Cl
  Cu1      1.0000 0.41522  0.54589  0.67089  Biso   1.000  Cu
  Cu2      1.0000 0.41522  0.45411  0.17089  Biso   1.000  Cu
