data_image0
_cell_length_a       9.2962
_cell_length_b       14.942
_cell_length_c       10.7457
_cell_angle_alpha    90
_cell_angle_beta     92.091
_cell_angle_gamma    90

_symmetry_space_group_name_H-M    "P 1"
_symmetry_int_tables_number       1

loop_
  _symmetry_equiv_pos_as_xyz
  'x, y, z'

loop_
  _atom_site_label
  _atom_site_occupancy
  _atom_site_fract_x
  _atom_site_fract_y
  _atom_site_fract_z
  _atom_site_thermal_displace_type
  _atom_site_B_iso_or_equiv
  _atom_site_type_symbol
  Cu1      1.0000 0.09613  0.36232  0.71483  Biso   1.000  Cu
  Cu2      1.0000 0.90387  0.86232  0.28517  Biso   1.000  Cu
  S1       1.0000 0.91009  0.36370  0.97373  Biso   1.000  S
  S2       1.0000 0.08991  0.86370  0.02627  Biso   1.000  S
  O1       1.0000 0.23400  0.36850  0.85280  Biso   1.000  O
  O2       1.0000 0.76600  0.86850  0.14720  Biso   1.000  O
  O3       1.0000 0.40170  0.38220  0.71260  Biso   1.000  O
  O4       1.0000 0.59830  0.88220  0.28740  Biso   1.000  O
  O5       1.0000 0.36040  0.32650  0.29930  Biso   1.000  O
  O6       1.0000 0.63960  0.82650  0.70070  Biso   1.000  O
  O7       1.0000 0.59180  0.33900  0.35930  Biso   1.000  O
  O8       1.0000 0.40820  0.83900  0.64070  Biso   1.000  O
  H1       1.0000 0.56040  0.32650  0.42950  Biso   1.000  H
  H2       1.0000 0.43960  0.82650  0.57050  Biso   1.000  H
  O9       1.0000 0.96150  0.44560  0.02700  Biso   1.000  O
  O10      1.0000 0.03850  0.94560  0.97300  Biso   1.000  O
  O11      1.0000 0.96920  0.28550  0.03360  Biso   1.000  O
  O12      1.0000 0.03080  0.78550  0.96640  Biso   1.000  O
  O13      1.0000 0.92040  0.36160  0.84130  Biso   1.000  O
  O14      1.0000 0.07960  0.86160  0.15870  Biso   1.000  O
  O15      1.0000 0.94450  0.35550  0.58010  Biso   1.000  O
  O16      1.0000 0.05550  0.85550  0.41990  Biso   1.000  O
  H3       1.0000 0.88990  0.30860  0.59160  Biso   1.000  H
  H4       1.0000 0.11010  0.80860  0.40840  Biso   1.000  H
  H5       1.0000 0.98410  0.34500  0.50870  Biso   1.000  H
  H6       1.0000 0.01590  0.84500  0.49130  Biso   1.000  H
  O17      1.0000 0.22310  0.71490  0.37870  Biso   1.000  O
  O18      1.0000 0.77690  0.21490  0.62130  Biso   1.000  O
  O19      1.0000 0.77610  0.49910  0.59930  Biso   1.000  O
  O20      1.0000 0.22390  0.99910  0.40070  Biso   1.000  O
  N1       1.0000 0.11430  0.49310  0.67760  Biso   1.000  N
  N2       1.0000 0.88570  0.99310  0.32240  Biso   1.000  N
  N3       1.0000 0.17610  0.57590  0.30630  Biso   1.000  N
  N4       1.0000 0.82390  0.07590  0.69370  Biso   1.000  N
  H7       1.0000 0.15020  0.52080  0.32370  Biso   1.000  H
  H8       1.0000 0.84980  0.02080  0.67630  Biso   1.000  H
  N5       1.0000 0.71800  0.63750  0.65670  Biso   1.000  N
  N6       1.0000 0.28200  0.13750  0.34330  Biso   1.000  N
  H9       1.0000 0.69830  0.69230  0.63110  Biso   1.000  H
  H10      1.0000 0.30170  0.19230  0.36890  Biso   1.000  H
  N7       1.0000 0.85940  0.73150  0.31040  Biso   1.000  N
  N8       1.0000 0.14060  0.23150  0.68960  Biso   1.000  N
  C1       1.0000 0.36390  0.37110  0.82160  Biso   1.000  C
  C2       1.0000 0.63610  0.87110  0.17840  Biso   1.000  C
  C3       1.0000 0.47500  0.36600  0.92640  Biso   1.000  C
  C4       1.0000 0.52500  0.86600  0.07360  Biso   1.000  C
  C5       1.0000 0.62110  0.36740  0.90250  Biso   1.000  C
  C6       1.0000 0.37890  0.86740  0.09750  Biso   1.000  C
  H11      1.0000 0.65120  0.37210  0.81920  Biso   1.000  H
  H12      1.0000 0.34880  0.87210  0.18080  Biso   1.000  H
  C7       1.0000 0.72260  0.36180  0.99950  Biso   1.000  C
  C8       1.0000 0.27740  0.86180  0.00050  Biso   1.000  C
  C9       1.0000 0.68010  0.35510  0.12140  Biso   1.000  C
  C10      1.0000 0.31990  0.85510  0.87860  Biso   1.000  C
  H13      1.0000 0.75010  0.35250  0.18800  Biso   1.000  H
  H14      1.0000 0.24990  0.85250  0.81200  Biso   1.000  H
  C11      1.0000 0.53460  0.35210  0.14550  Biso   1.000  C
  C12      1.0000 0.46540  0.85210  0.85450  Biso   1.000  C
  C13      1.0000 0.43240  0.35810  0.04800  Biso   1.000  C
  C14      1.0000 0.56760  0.85810  0.95200  Biso   1.000  C
  H15      1.0000 0.33280  0.35670  0.06500  Biso   1.000  H
  H16      1.0000 0.66720  0.85670  0.93500  Biso   1.000  H
  C15      1.0000 0.48460  0.34000  0.27620  Biso   1.000  C
  C16      1.0000 0.51540  0.84000  0.72380  Biso   1.000  C
  C17      1.0000 0.09170  0.55600  0.76310  Biso   1.000  C
  C18      1.0000 0.90830  0.05600  0.23690  Biso   1.000  C
  H17      1.0000 0.06740  0.53820  0.84460  Biso   1.000  H
  H18      1.0000 0.93260  0.03820  0.15540  Biso   1.000  H
  C19      1.0000 0.10270  0.64640  0.73670  Biso   1.000  C
  C20      1.0000 0.89730  0.14640  0.26330  Biso   1.000  C
  H19      1.0000 0.08690  0.69000  0.79890  Biso   1.000  H
  H20      1.0000 0.91310  0.19000  0.20110  Biso   1.000  H
  C21      1.0000 0.13710  0.67160  0.61760  Biso   1.000  C
  C22      1.0000 0.86290  0.17160  0.38240  Biso   1.000  C
  H21      1.0000 0.14680  0.73330  0.59790  Biso   1.000  H
  H22      1.0000 0.85320  0.23330  0.40210  Biso   1.000  H
  C23      1.0000 0.15770  0.60730  0.52700  Biso   1.000  C
  C24      1.0000 0.84230  0.10730  0.47300  Biso   1.000  C
  C25      1.0000 0.14500  0.51910  0.56240  Biso   1.000  C
  C26      1.0000 0.85500  0.01910  0.43760  Biso   1.000  C
  H23      1.0000 0.15890  0.47410  0.50150  Biso   1.000  H
  H24      1.0000 0.84110  0.97410  0.49850  Biso   1.000  H
  C27      1.0000 0.18950  0.63500  0.39740  Biso   1.000  C
  C28      1.0000 0.81050  0.13500  0.60260  Biso   1.000  C
  C29      1.0000 0.20310  0.59960  0.17720  Biso   1.000  C
  C30      1.0000 0.79690  0.09960  0.82280  Biso   1.000  C
  H25      1.0000 0.16790  0.66120  0.16110  Biso   1.000  H
  H26      1.0000 0.83210  0.16120  0.83890  Biso   1.000  H
  H27      1.0000 0.14740  0.55880  0.12110  Biso   1.000  H
  H28      1.0000 0.85260  0.05880  0.87890  Biso   1.000  H
  C31      1.0000 0.36140  0.59460  0.14570  Biso   1.000  C
  C32      1.0000 0.63860  0.09460  0.85430  Biso   1.000  C
  H29      1.0000 0.40240  0.53690  0.17530  Biso   1.000  H
  H30      1.0000 0.59760  0.03690  0.82470  Biso   1.000  H
  H31      1.0000 0.41510  0.64350  0.18880  Biso   1.000  H
  H32      1.0000 0.58490  0.14350  0.81120  Biso   1.000  H
  C33      1.0000 0.37820  0.60280  0.00440  Biso   1.000  C
  C34      1.0000 0.62180  0.10280  0.99560  Biso   1.000  C
  H33      1.0000 0.32770  0.55200  0.96280  Biso   1.000  H
  H34      1.0000 0.67230  0.05200  0.03720  Biso   1.000  H
  H35      1.0000 0.33060  0.65860  0.97510  Biso   1.000  H
  H36      1.0000 0.66940  0.15860  0.02490  Biso   1.000  H
  C35      1.0000 0.53340  0.60380  0.96480  Biso   1.000  C
  C36      1.0000 0.46660  0.10380  0.03520  Biso   1.000  C
  H37      1.0000 0.58330  0.65570  0.00390  Biso   1.000  H
  H38      1.0000 0.41670  0.15570  0.99610  Biso   1.000  H
  H39      1.0000 0.58210  0.54880  0.99590  Biso   1.000  H
  H40      1.0000 0.41790  0.04880  0.00410  Biso   1.000  H
  C37      1.0000 0.54710  0.60910  0.82480  Biso   1.000  C
  C38      1.0000 0.45290  0.10910  0.17520  Biso   1.000  C
  H41      1.0000 0.49200  0.66140  0.79240  Biso   1.000  H
  H42      1.0000 0.50800  0.16140  0.20760  Biso   1.000  H
  H43      1.0000 0.50480  0.55460  0.78590  Biso   1.000  H
  H44      1.0000 0.49520  0.05460  0.21410  Biso   1.000  H
  C39      1.0000 0.70340  0.61770  0.78820  Biso   1.000  C
  C40      1.0000 0.29660  0.11770  0.21180  Biso   1.000  C
  H45      1.0000 0.75020  0.66590  0.83830  Biso   1.000  H
  H46      1.0000 0.24980  0.16590  0.16170  Biso   1.000  H
  H47      1.0000 0.75440  0.56110  0.80840  Biso   1.000  H
  H48      1.0000 0.24560  0.06110  0.19160  Biso   1.000  H
  C41      1.0000 0.75880  0.57870  0.57310  Biso   1.000  C
  C42      1.0000 0.24120  0.07870  0.42690  Biso   1.000  C
  C43      1.0000 0.85070  0.67360  0.21360  Biso   1.000  C
  C44      1.0000 0.14930  0.17360  0.78640  Biso   1.000  C
  H49      1.0000 0.87250  0.69440  0.13290  Biso   1.000  H
  H50      1.0000 0.12750  0.19440  0.86710  Biso   1.000  H
  C45      1.0000 0.81170  0.58650  0.22830  Biso   1.000  C
  C46      1.0000 0.18830  0.08650  0.77170  Biso   1.000  C
  H51      1.0000 0.80520  0.54790  0.15810  Biso   1.000  H
  H52      1.0000 0.19480  0.04790  0.84190  Biso   1.000  H
  C47      1.0000 0.78160  0.55410  0.34500  Biso   1.000  C
  C48      1.0000 0.21840  0.05410  0.65500  Biso   1.000  C
  H53      1.0000 0.75750  0.49300  0.35680  Biso   1.000  H
  H54      1.0000 0.24250  0.99300  0.64320  Biso   1.000  H
  C49      1.0000 0.78740  0.61320  0.44400  Biso   1.000  C
  C50      1.0000 0.21260  0.11320  0.55600  Biso   1.000  C
  C51      1.0000 0.82650  0.70080  0.42420  Biso   1.000  C
  C52      1.0000 0.17350  0.20080  0.57580  Biso   1.000  C
  H55      1.0000 0.83040  0.74100  0.49270  Biso   1.000  H
  H56      1.0000 0.16960  0.24100  0.50730  Biso   1.000  H
  O21      1.0000 0.50970  0.26940  0.55630  Biso   1.000  O
  O22      1.0000 0.49030  0.76940  0.44370  Biso   1.000  O
  H57      1.0000 0.58670  0.25130  0.59740  Biso   1.000  H
  H58      1.0000 0.41330  0.75130  0.40260  Biso   1.000  H
  H59      1.0000 0.47710  0.31310  0.60080  Biso   1.000  H
  H60      1.0000 0.52290  0.81310  0.39920  Biso   1.000  H
  O23      1.0000 0.08130  0.39680  0.28680  Biso   1.000  O
  O24      1.0000 0.91870  0.89680  0.71320  Biso   1.000  O
  H61      1.0000 0.14220  0.35250  0.28730  Biso   1.000  H
  H62      1.0000 0.85780  0.85250  0.71270  Biso   1.000  H
  H63      1.0000 0.03430  0.39210  0.21570  Biso   1.000  H
  H64      1.0000 0.96570  0.89210  0.78430  Biso   1.000  H
