data_image0
_cell_length_a       13.723
_cell_length_b       14.264
_cell_length_c       14.747
_cell_angle_alpha    66.401
_cell_angle_beta     86.677
_cell_angle_gamma    62.127

_symmetry_space_group_name_H-M    "P 1"
_symmetry_int_tables_number       1

loop_
  _symmetry_equiv_pos_as_xyz
  'x, y, z'

loop_
  _atom_site_label
  _atom_site_occupancy
  _atom_site_fract_x
  _atom_site_fract_y
  _atom_site_fract_z
  _atom_site_thermal_displace_type
  _atom_site_B_iso_or_equiv
  _atom_site_type_symbol
  Cu1      1.0000 0.14144  0.22470  0.68281  Biso   1.000  Cu
  Cu2      1.0000 0.85856  0.77530  0.31719  Biso   1.000  Cu
  Cu3      1.0000 0.00000  0.00000  0.50000  Biso   1.000  Cu
  S1       1.0000 0.30770  0.49300  0.96450  Biso   1.000  S
  S2       1.0000 0.69230  0.50700  0.03550  Biso   1.000  S
  O1       1.0000 0.15640  0.27780  0.83100  Biso   1.000  O
  O2       1.0000 0.84360  0.72220  0.16900  Biso   1.000  O
  O3       1.0000 0.14280  0.36870  0.66980  Biso   1.000  O
  O4       1.0000 0.85720  0.63130  0.33020  Biso   1.000  O
  O5       1.0000 0.98070  0.81310  0.54310  Biso   1.000  O
  O6       1.0000 0.01930  0.18690  0.45690  Biso   1.000  O
  O7       1.0000 0.07140  0.85890  0.62300  Biso   1.000  O
  O8       1.0000 0.92860  0.14110  0.37700  Biso   1.000  O
  O9       1.0000 0.38620  0.52920  0.92390  Biso   1.000  O
  O10      1.0000 0.61380  0.47080  0.07610  Biso   1.000  O
  O11      1.0000 0.23260  0.57730  0.00810  Biso   1.000  O
  O12      1.0000 0.76740  0.42270  0.99190  Biso   1.000  O
  O13      1.0000 0.34700  0.37500  0.02900  Biso   1.000  O
  O14      1.0000 0.65300  0.62500  0.97100  Biso   1.000  O
  O15      1.0000 0.68770  0.94360  0.64190  Biso   1.000  O
  O16      1.0000 0.31230  0.05640  0.35810  Biso   1.000  O
  O17      1.0000 0.69130  0.73020  0.59370  Biso   1.000  O
  O18      1.0000 0.30870  0.26980  0.40630  Biso   1.000  O
  O19      1.0000 0.13780  0.26550  0.51790  Biso   1.000  O
  O20      1.0000 0.86220  0.73450  0.48210  Biso   1.000  O
  H1       1.0000 0.10890  0.22780  0.50000  Biso   1.000  H
  H2       1.0000 0.89110  0.77220  0.50000  Biso   1.000  H
  H3       1.0000 0.20840  0.23620  0.50200  Biso   1.000  H
  H4       1.0000 0.79160  0.76380  0.49800  Biso   1.000  H
  O21      1.0000 0.43300  0.41440  0.45680  Biso   1.000  O
  O22      1.0000 0.56700  0.58560  0.54320  Biso   1.000  O
  O23      1.0000 0.36570  0.80460  0.18960  Biso   1.000  O
  O24      1.0000 0.63430  0.19540  0.81040  Biso   1.000  O
  O25      1.0000 0.13040  0.07990  0.71800  Biso   1.000  O
  O26      1.0000 0.86960  0.92010  0.28200  Biso   1.000  O
  H5       1.0000 0.11630  0.04990  0.78140  Biso   1.000  H
  H6       1.0000 0.88370  0.95010  0.21860  Biso   1.000  H
  H7       1.0000 0.19820  0.01890  0.71950  Biso   1.000  H
  H8       1.0000 0.80180  0.98110  0.28050  Biso   1.000  H
  N1       1.0000 0.12130  0.92930  0.43060  Biso   1.000  N
  N2       1.0000 0.87870  0.07070  0.56940  Biso   1.000  N
  N3       1.0000 0.48010  0.67660  0.34290  Biso   1.000  N
  N4       1.0000 0.51990  0.32340  0.65710  Biso   1.000  N
  N5       1.0000 0.43490  0.51020  0.28920  Biso   1.000  N
  N6       1.0000 0.56510  0.48980  0.71080  Biso   1.000  N
  N7       1.0000 0.02650  0.68690  0.33060  Biso   1.000  N
  N8       1.0000 0.97350  0.31310  0.66940  Biso   1.000  N
  N9       1.0000 0.30940  0.13700  0.71270  Biso   1.000  N
  N10      1.0000 0.69060  0.86300  0.28730  Biso   1.000  N
  N11      1.0000 0.72840  0.85300  0.80950  Biso   1.000  N
  N12      1.0000 0.27160  0.14700  0.19050  Biso   1.000  N
  H9       1.0000 0.70180  0.84940  0.86580  Biso   1.000  H
  H10      1.0000 0.29820  0.15060  0.13420  Biso   1.000  H
  N13      1.0000 0.72180  0.66540  0.76190  Biso   1.000  N
  N14      1.0000 0.27820  0.33460  0.23810  Biso   1.000  N
  H11      1.0000 0.68980  0.65720  0.81600  Biso   1.000  H
  H12      1.0000 0.31020  0.34280  0.18400  Biso   1.000  H
  N15      1.0000 0.30570  0.91130  0.67720  Biso   1.000  N
  N16      1.0000 0.69430  0.08870  0.32280  Biso   1.000  N
  C1       1.0000 0.15030  0.36040  0.75610  Biso   1.000  C
  C2       1.0000 0.84970  0.63960  0.24390  Biso   1.000  C
  C3       1.0000 0.14910  0.46180  0.76780  Biso   1.000  C
  C4       1.0000 0.85090  0.53820  0.23220  Biso   1.000  C
  C5       1.0000 0.09800  0.57130  0.69090  Biso   1.000  C
  C6       1.0000 0.90200  0.42870  0.30910  Biso   1.000  C
  H13      1.0000 0.06040  0.58450  0.63140  Biso   1.000  H
  H14      1.0000 0.93960  0.41550  0.36860  Biso   1.000  H
  C7       1.0000 0.10090  0.66510  0.69990  Biso   1.000  C
  C8       1.0000 0.89910  0.33490  0.30010  Biso   1.000  C
  C9       1.0000 0.15680  0.64590  0.78740  Biso   1.000  C
  C10      1.0000 0.84320  0.35410  0.21260  Biso   1.000  C
  H15      1.0000 0.15910  0.70800  0.79490  Biso   1.000  H
  H16      1.0000 0.84090  0.29200  0.20510  Biso   1.000  H
  C11      1.0000 0.20850  0.53290  0.86270  Biso   1.000  C
  C12      1.0000 0.79150  0.46710  0.13730  Biso   1.000  C
  C13      1.0000 0.20500  0.44120  0.85630  Biso   1.000  C
  C14      1.0000 0.79500  0.55880  0.14370  Biso   1.000  C
  H17      1.0000 0.23950  0.36550  0.91040  Biso   1.000  H
  H18      1.0000 0.76050  0.63450  0.08960  Biso   1.000  H
  C15      1.0000 0.04620  0.78810  0.61510  Biso   1.000  C
  C16      1.0000 0.95380  0.21190  0.38490  Biso   1.000  C
  C17      1.0000 0.10580  0.95510  0.33280  Biso   1.000  C
  C18      1.0000 0.89420  0.04490  0.66720  Biso   1.000  C
  H19      1.0000 0.03380  0.01270  0.29460  Biso   1.000  H
  H20      1.0000 0.96620  0.98730  0.70540  Biso   1.000  H
  C19      1.0000 0.18780  0.90310  0.28550  Biso   1.000  C
  C20      1.0000 0.81220  0.09690  0.71450  Biso   1.000  C
  H21      1.0000 0.17170  0.92120  0.21690  Biso   1.000  H
  H22      1.0000 0.82830  0.07880  0.78310  Biso   1.000  H
  C21      1.0000 0.29430  0.82410  0.33750  Biso   1.000  C
  C22      1.0000 0.70570  0.17590  0.66250  Biso   1.000  C
  C23      1.0000 0.31230  0.79890  0.43590  Biso   1.000  C
  C24      1.0000 0.68770  0.20110  0.56410  Biso   1.000  C
  H23      1.0000 0.38460  0.74380  0.47420  Biso   1.000  H
  H24      1.0000 0.61540  0.25620  0.52580  Biso   1.000  H
  C25      1.0000 0.22580  0.85300  0.48010  Biso   1.000  C
  C26      1.0000 0.77420  0.14700  0.51990  Biso   1.000  C
  H25      1.0000 0.24070  0.83560  0.54870  Biso   1.000  H
  H26      1.0000 0.75930  0.16440  0.45130  Biso   1.000  H
  C27      1.0000 0.38050  0.76700  0.28560  Biso   1.000  C
  C28      1.0000 0.61950  0.23300  0.71440  Biso   1.000  C
  C29      1.0000 0.56200  0.63400  0.28300  Biso   1.000  C
  C30      1.0000 0.43800  0.36600  0.71700  Biso   1.000  C
  H27      1.0000 0.62240  0.65370  0.28580  Biso   1.000  H
  H28      1.0000 0.37760  0.34630  0.71420  Biso   1.000  H
  H29      1.0000 0.52710  0.67160  0.21220  Biso   1.000  H
  H30      1.0000 0.47290  0.32840  0.78780  Biso   1.000  H
  C31      1.0000 0.61200  0.49800  0.32700  Biso   1.000  C
  C32      1.0000 0.38800  0.50200  0.67300  Biso   1.000  C
  H31      1.0000 0.69130  0.46160  0.31970  Biso   1.000  H
  H32      1.0000 0.30870  0.53840  0.68030  Biso   1.000  H
  H33      1.0000 0.60670  0.46790  0.39940  Biso   1.000  H
  H34      1.0000 0.39330  0.53210  0.60060  Biso   1.000  H
  C33      1.0000 0.55400  0.46800  0.27800  Biso   1.000  C
  C34      1.0000 0.44600  0.53200  0.72200  Biso   1.000  C
  H35      1.0000 0.59160  0.38190  0.30390  Biso   1.000  H
  H36      1.0000 0.40840  0.61810  0.69610  Biso   1.000  H
  H37      1.0000 0.55830  0.50000  0.20560  Biso   1.000  H
  H38      1.0000 0.44170  0.50000  0.79440  Biso   1.000  H
  C35      1.0000 0.07930  0.71890  0.25640  Biso   1.000  C
  C36      1.0000 0.92070  0.28110  0.74360  Biso   1.000  C
  H39      1.0000 0.03680  0.78560  0.19600  Biso   1.000  H
  H40      1.0000 0.96320  0.21440  0.80400  Biso   1.000  H
  C37      1.0000 0.19660  0.65750  0.26340  Biso   1.000  C
  C38      1.0000 0.80340  0.34250  0.73660  Biso   1.000  C
  H41      1.0000 0.23310  0.68250  0.20960  Biso   1.000  H
  H42      1.0000 0.76690  0.31750  0.79040  Biso   1.000  H
  C39      1.0000 0.25540  0.56100  0.35020  Biso   1.000  C
  C40      1.0000 0.74460  0.43900  0.64980  Biso   1.000  C
  C41      1.0000 0.20050  0.52960  0.42620  Biso   1.000  C
  C42      1.0000 0.79950  0.47040  0.57380  Biso   1.000  C
  H43      1.0000 0.24100  0.46400  0.48790  Biso   1.000  H
  H44      1.0000 0.75900  0.53600  0.51210  Biso   1.000  H
  C43      1.0000 0.08650  0.59290  0.41380  Biso   1.000  C
  C44      1.0000 0.91350  0.40710  0.58620  Biso   1.000  C
  H45      1.0000 0.04920  0.56830  0.46700  Biso   1.000  H
  H46      1.0000 0.95080  0.43170  0.53300  Biso   1.000  H
  C45      1.0000 0.36460  0.17600  0.64260  Biso   1.000  C
  C46      1.0000 0.63540  0.82400  0.35740  Biso   1.000  C
  H47      1.0000 0.32400  0.25030  0.58760  Biso   1.000  H
  H48      1.0000 0.67600  0.74970  0.41240  Biso   1.000  H
  C47      1.0000 0.47730  0.11250  0.64750  Biso   1.000  C
  C48      1.0000 0.52270  0.88750  0.35250  Biso   1.000  C
  H49      1.0000 0.51350  0.14280  0.59610  Biso   1.000  H
  H50      1.0000 0.48650  0.85720  0.40390  Biso   1.000  H
  C49      1.0000 0.54000  0.00250  0.72810  Biso   1.000  C
  C50      1.0000 0.46000  0.99750  0.27190  Biso   1.000  C
  C51      1.0000 0.48440  0.96430  0.80280  Biso   1.000  C
  C52      1.0000 0.51560  0.03570  0.19720  Biso   1.000  C
  H51      1.0000 0.52340  0.89290  0.86090  Biso   1.000  H
  H52      1.0000 0.47660  0.10710  0.13910  Biso   1.000  H
  C53      1.0000 0.36940  0.03370  0.79000  Biso   1.000  C
  C54      1.0000 0.63060  0.96630  0.21000  Biso   1.000  C
  H53      1.0000 0.33070  0.00550  0.83990  Biso   1.000  H
  H54      1.0000 0.66930  0.99450  0.16010  Biso   1.000  H
  C55      1.0000 0.65970  0.92750  0.72360  Biso   1.000  C
  C56      1.0000 0.34030  0.07250  0.27640  Biso   1.000  C
  C57      1.0000 0.84960  0.77470  0.81430  Biso   1.000  C
  C58      1.0000 0.15040  0.22530  0.18570  Biso   1.000  C
  H55      1.0000 0.86990  0.80130  0.74660  Biso   1.000  H
  H56      1.0000 0.13010  0.19870  0.25340  Biso   1.000  H
  H57      1.0000 0.89400  0.78160  0.85940  Biso   1.000  H
  H58      1.0000 0.10600  0.21840  0.14060  Biso   1.000  H
  C59      1.0000 0.87930  0.65030  0.85050  Biso   1.000  C
  C60      1.0000 0.12070  0.34970  0.14950  Biso   1.000  C
  H59      1.0000 0.84640  0.62840  0.91190  Biso   1.000  H
  H60      1.0000 0.15360  0.37160  0.08810  Biso   1.000  H
  H61      1.0000 0.96140  0.60180  0.86910  Biso   1.000  H
  H62      1.0000 0.03860  0.39820  0.13090  Biso   1.000  H
  C61      1.0000 0.84020  0.62050  0.77440  Biso   1.000  C
  C62      1.0000 0.15980  0.37950  0.22560  Biso   1.000  C
  H63      1.0000 0.86180  0.65400  0.70890  Biso   1.000  H
  H64      1.0000 0.13820  0.34600  0.29110  Biso   1.000  H
  H65      1.0000 0.87820  0.53450  0.79790  Biso   1.000  H
  H66      1.0000 0.12180  0.46550  0.20210  Biso   1.000  H
  C63      1.0000 0.65830  0.71760  0.67540  Biso   1.000  C
  C64      1.0000 0.34170  0.28240  0.32460  Biso   1.000  C
  C65      1.0000 0.35140  0.94770  0.59730  Biso   1.000  C
  C66      1.0000 0.64860  0.05230  0.40270  Biso   1.000  C
  H67      1.0000 0.30560  0.01860  0.54090  Biso   1.000  H
  H68      1.0000 0.69440  0.98140  0.45910  Biso   1.000  H
  C67      1.0000 0.46630  0.88380  0.59440  Biso   1.000  C
  C68      1.0000 0.53370  0.11620  0.40560  Biso   1.000  C
  H69      1.0000 0.49810  0.91080  0.53740  Biso   1.000  H
  H70      1.0000 0.50190  0.08920  0.46260  Biso   1.000  H
  C69      1.0000 0.53060  0.78110  0.67690  Biso   1.000  C
  C70      1.0000 0.46940  0.21890  0.32310  Biso   1.000  C
  C71      1.0000 0.48340  0.74150  0.75690  Biso   1.000  C
  C72      1.0000 0.51660  0.25850  0.24310  Biso   1.000  C
  H71      1.0000 0.52660  0.67000  0.81380  Biso   1.000  H
  H72      1.0000 0.47340  0.33000  0.18620  Biso   1.000  H
  C73      1.0000 0.36950  0.80960  0.75200  Biso   1.000  C
  C74      1.0000 0.63050  0.19040  0.24800  Biso   1.000  C
  H73      1.0000 0.33540  0.78080  0.80630  Biso   1.000  H
  H74      1.0000 0.66460  0.21920  0.19370  Biso   1.000  H
  C75      1.0000 0.38600  0.48550  0.37100  Biso   1.000  C
  C76      1.0000 0.61400  0.51450  0.62900  Biso   1.000  C
  O27      1.0000 0.10500  0.11700  0.98720  Biso   1.000  O
  O28      1.0000 0.89500  0.88300  0.01280  Biso   1.000  O
  O29      1.0000 0.95000  0.17900  0.07320  Biso   1.000  O
  O30      1.0000 0.05000  0.82100  0.92680  Biso   1.000  O
  O31      1.0000 0.13200  0.96600  0.91060  Biso   1.000  O
  O32      1.0000 0.86800  0.03400  0.08940  Biso   1.000  O
  O33      1.0000 0.40300  0.60200  0.09210  Biso   1.000  O
  O34      1.0000 0.59700  0.39800  0.90790  Biso   1.000  O
  O35      1.0000 0.33230  0.13800  0.99200  Biso   1.000  O
  O36      1.0000 0.66770  0.86200  0.00800  Biso   1.000  O
  O37      1.0000 0.49400  0.72600  0.99900  Biso   1.000  O
  O38      1.0000 0.50600  0.27400  0.00100  Biso   1.000  O
  O39      1.0000 0.00800  0.26800  0.97770  Biso   1.000  O
  O40      1.0000 0.99200  0.73200  0.02230  Biso   1.000  O
  Cu4      1.0000 0.01700  0.04600  0.42000  Biso   1.000  Cu
  Cu5      1.0000 0.98300  0.95400  0.58000  Biso   1.000  Cu
  Cu6      1.0000 0.13300  0.16800  0.76000  Biso   1.000  Cu
  Cu7      1.0000 0.86700  0.83200  0.24000  Biso   1.000  Cu
  S3       1.0000 0.26520  0.52250  0.97590  Biso   1.000  S
  S4       1.0000 0.73480  0.47750  0.02410  Biso   1.000  S
  O41      1.0000 0.31550  0.60190  0.94170  Biso   1.000  O
  O42      1.0000 0.68450  0.39810  0.05830  Biso   1.000  O
  O43      1.0000 0.18050  0.57390  0.02680  Biso   1.000  O
  O44      1.0000 0.81950  0.42610  0.97320  Biso   1.000  O
  O45      1.0000 0.32300  0.41000  0.03700  Biso   1.000  O
  O46      1.0000 0.67700  0.59000  0.96300  Biso   1.000  O
  C77      1.0000 0.59200  0.59800  0.31600  Biso   1.000  C
  C78      1.0000 0.40800  0.40200  0.68400  Biso   1.000  C
  H75      1.0000 0.58330  0.61940  0.24350  Biso   1.000  H
  H76      1.0000 0.41670  0.38060  0.75650  Biso   1.000  H
  H77      1.0000 0.65210  0.60990  0.33400  Biso   1.000  H
  H78      1.0000 0.34790  0.39010  0.66600  Biso   1.000  H
  C79      1.0000 0.62300  0.46700  0.37500  Biso   1.000  C
  C80      1.0000 0.37700  0.53300  0.62500  Biso   1.000  C
  H79      1.0000 0.70470  0.41710  0.38390  Biso   1.000  H
  H80      1.0000 0.29530  0.58290  0.61610  Biso   1.000  H
  H81      1.0000 0.60140  0.45360  0.44280  Biso   1.000  H
  H82      1.0000 0.39860  0.54640  0.55720  Biso   1.000  H
  C81      1.0000 0.56600  0.43200  0.32200  Biso   1.000  C
  C82      1.0000 0.43400  0.56800  0.67800  Biso   1.000  C
  H83      1.0000 0.58250  0.35110  0.36630  Biso   1.000  H
  H84      1.0000 0.41750  0.64890  0.63370  Biso   1.000  H
  H85      1.0000 0.60010  0.43050  0.26150  Biso   1.000  H
  H86      1.0000 0.39990  0.56950  0.73850  Biso   1.000  H
  O47      1.0000 0.21200  0.00800  0.03940  Biso   1.000  O
  O48      1.0000 0.78800  0.99200  0.96060  Biso   1.000  O
  O49      1.0000 0.32100  0.69000  0.05450  Biso   1.000  O
  O50      1.0000 0.67900  0.31000  0.94550  Biso   1.000  O
  O51      1.0000 0.34400  0.83010  0.98000  Biso   1.000  O
  O52      1.0000 0.65600  0.16990  0.02000  Biso   1.000  O
  O53      1.0000 0.46900  0.89700  0.04910  Biso   1.000  O
  O54      1.0000 0.53100  0.10300  0.95090  Biso   1.000  O
  O55      1.0000 0.04200  0.06400  0.05290  Biso   1.000  O
  O56      1.0000 0.95800  0.93600  0.94710  Biso   1.000  O
  O57      1.0000 0.48200  0.81000  0.03260  Biso   1.000  O
  O58      1.0000 0.51800  0.19000  0.96740  Biso   1.000  O
