data_image0
_cell_length_a       10.657
_cell_length_b       15.108
_cell_length_c       12.213
_cell_angle_alpha    90
_cell_angle_beta     93.513
_cell_angle_gamma    90

_symmetry_space_group_name_H-M    "P 1"
_symmetry_int_tables_number       1

loop_
  _symmetry_equiv_pos_as_xyz
  'x, y, z'

loop_
  _atom_site_label
  _atom_site_occupancy
  _atom_site_fract_x
  _atom_site_fract_y
  _atom_site_fract_z
  _atom_site_thermal_displace_type
  _atom_site_B_iso_or_equiv
  _atom_site_type_symbol
  Cu1      1.0000 0.40955  0.92380  0.49995  Biso   1.000  Cu
  Cu2      1.0000 0.09045  0.42380  0.00005  Biso   1.000  Cu
  Cu3      1.0000 0.59045  0.07620  0.50005  Biso   1.000  Cu
  Cu4      1.0000 0.90955  0.57620  0.99995  Biso   1.000  Cu
  Cu5      1.0000 0.29042  0.12146  0.45834  Biso   1.000  Cu
  Cu6      1.0000 0.20958  0.62146  0.04166  Biso   1.000  Cu
  Cu7      1.0000 0.70958  0.87854  0.54166  Biso   1.000  Cu
  Cu8      1.0000 0.79042  0.37854  0.95834  Biso   1.000  Cu
  S1       1.0000 0.68265  0.95115  0.28657  Biso   1.000  S
  S2       1.0000 0.81735  0.45115  0.21343  Biso   1.000  S
  S3       1.0000 0.31735  0.04885  0.71343  Biso   1.000  S
  S4       1.0000 0.18265  0.54885  0.78657  Biso   1.000  S
  O1       1.0000 0.42720  0.04113  0.42870  Biso   1.000  O
  O2       1.0000 0.07280  0.54113  0.07130  Biso   1.000  O
  O3       1.0000 0.57280  0.95887  0.57130  Biso   1.000  O
  O4       1.0000 0.92720  0.45887  0.92870  Biso   1.000  O
  O5       1.0000 0.25930  0.89780  0.41040  Biso   1.000  O
  O6       1.0000 0.24070  0.39780  0.08960  Biso   1.000  O
  O7       1.0000 0.74070  0.10220  0.58960  Biso   1.000  O
  O8       1.0000 0.75930  0.60220  0.91040  Biso   1.000  O
  O9       1.0000 0.16090  0.03020  0.42050  Biso   1.000  O
  O10      1.0000 0.33910  0.53020  0.07950  Biso   1.000  O
  O11      1.0000 0.83910  0.96980  0.57950  Biso   1.000  O
  O12      1.0000 0.66090  0.46980  0.92050  Biso   1.000  O
  O13      1.0000 0.11270  0.72549  0.08150  Biso   1.000  O
  O14      1.0000 0.38730  0.22549  0.41850  Biso   1.000  O
  O15      1.0000 0.88730  0.27451  0.91850  Biso   1.000  O
  O16      1.0000 0.61270  0.77451  0.58150  Biso   1.000  O
  O17      1.0000 0.90580  0.69405  0.06480  Biso   1.000  O
  O18      1.0000 0.59420  0.19405  0.43520  Biso   1.000  O
  O19      1.0000 0.09420  0.30595  0.93520  Biso   1.000  O
  O20      1.0000 0.40580  0.80595  0.56480  Biso   1.000  O
  O21      1.0000 0.61500  0.95050  0.18060  Biso   1.000  O
  O22      1.0000 0.88500  0.45050  0.31940  Biso   1.000  O
  O23      1.0000 0.38500  0.04950  0.81940  Biso   1.000  O
  O24      1.0000 0.11500  0.54950  0.68060  Biso   1.000  O
  O25      1.0000 0.63130  0.88620  0.36200  Biso   1.000  O
  O26      1.0000 0.86870  0.38620  0.13800  Biso   1.000  O
  O27      1.0000 0.36870  0.11380  0.63800  Biso   1.000  O
  O28      1.0000 0.13130  0.61380  0.86200  Biso   1.000  O
  O29      1.0000 0.69580  0.03780  0.33830  Biso   1.000  O
  O30      1.0000 0.80420  0.53780  0.16170  Biso   1.000  O
  O31      1.0000 0.30420  0.96220  0.66170  Biso   1.000  O
  O32      1.0000 0.19580  0.46220  0.83830  Biso   1.000  O
  O33      1.0000 0.89620  0.39970  0.72400  Biso   1.000  O
  O34      1.0000 0.60380  0.89970  0.77600  Biso   1.000  O
  O35      1.0000 0.10380  0.60030  0.27600  Biso   1.000  O
  O36      1.0000 0.39620  0.10030  0.22400  Biso   1.000  O
  N1       1.0000 0.15930  0.20630  0.49990  Biso   1.000  N
  N2       1.0000 0.34070  0.70630  0.00010  Biso   1.000  N
  N3       1.0000 0.84070  0.79370  0.50010  Biso   1.000  N
  N4       1.0000 0.65930  0.29370  0.99990  Biso   1.000  N
  N5       1.0000 0.85280  0.45480  0.55330  Biso   1.000  N
  N6       1.0000 0.64720  0.95480  0.94670  Biso   1.000  N
  N7       1.0000 0.14720  0.54520  0.44670  Biso   1.000  N
  N8       1.0000 0.35280  0.04520  0.05330  Biso   1.000  N
  H1       1.0000 0.85790  0.44500  0.48270  Biso   1.000  H
  H2       1.0000 0.64210  0.94500  0.01730  Biso   1.000  H
  H3       1.0000 0.14210  0.55500  0.51730  Biso   1.000  H
  H4       1.0000 0.35790  0.05500  0.98270  Biso   1.000  H
  C1       1.0000 0.16890  0.94980  0.38960  Biso   1.000  C
  C2       1.0000 0.33110  0.44980  0.11040  Biso   1.000  C
  C3       1.0000 0.83110  0.05020  0.61040  Biso   1.000  C
  C4       1.0000 0.66890  0.55020  0.88960  Biso   1.000  C
  C5       1.0000 0.05860  0.91510  0.31910  Biso   1.000  C
  C6       1.0000 0.44140  0.41510  0.18090  Biso   1.000  C
  C7       1.0000 0.94140  0.08490  0.68090  Biso   1.000  C
  C8       1.0000 0.55860  0.58490  0.81910  Biso   1.000  C
  C9       1.0000 0.94010  0.95090  0.32700  Biso   1.000  C
  C10      1.0000 0.55990  0.45090  0.17300  Biso   1.000  C
  C11      1.0000 0.05990  0.04910  0.67300  Biso   1.000  C
  C12      1.0000 0.44010  0.54910  0.82700  Biso   1.000  C
  H5       1.0000 0.92800  0.99980  0.37410  Biso   1.000  H
  H6       1.0000 0.57200  0.49980  0.12590  Biso   1.000  H
  H7       1.0000 0.07200  0.00020  0.62590  Biso   1.000  H
  H8       1.0000 0.42800  0.50020  0.87410  Biso   1.000  H
  C13      1.0000 0.83840  0.91440  0.26500  Biso   1.000  C
  C14      1.0000 0.66160  0.41440  0.23500  Biso   1.000  C
  C15      1.0000 0.16160  0.08560  0.73500  Biso   1.000  C
  C16      1.0000 0.33840  0.58560  0.76500  Biso   1.000  C
  C17      1.0000 0.85690  0.84600  0.19140  Biso   1.000  C
  C18      1.0000 0.64310  0.34600  0.30860  Biso   1.000  C
  C19      1.0000 0.14310  0.15400  0.80860  Biso   1.000  C
  C20      1.0000 0.35690  0.65400  0.69140  Biso   1.000  C
  H9       1.0000 0.78760  0.82240  0.14820  Biso   1.000  H
  H10      1.0000 0.71240  0.32240  0.35180  Biso   1.000  H
  H11      1.0000 0.21240  0.17760  0.85180  Biso   1.000  H
  H12      1.0000 0.28760  0.67760  0.64820  Biso   1.000  H
  C21      1.0000 0.97710  0.81240  0.18140  Biso   1.000  C
  C22      1.0000 0.52290  0.31240  0.31860  Biso   1.000  C
  C23      1.0000 0.02290  0.18760  0.81860  Biso   1.000  C
  C24      1.0000 0.47710  0.68760  0.68140  Biso   1.000  C
  C25      1.0000 0.07650  0.84540  0.24760  Biso   1.000  C
  C26      1.0000 0.42350  0.34540  0.25240  Biso   1.000  C
  C27      1.0000 0.92350  0.15460  0.75240  Biso   1.000  C
  C28      1.0000 0.57650  0.65460  0.74760  Biso   1.000  C
  H13      1.0000 0.15780  0.82000  0.24400  Biso   1.000  H
  H14      1.0000 0.34220  0.32000  0.25600  Biso   1.000  H
  H15      1.0000 0.84220  0.18000  0.75600  Biso   1.000  H
  H16      1.0000 0.65780  0.68000  0.74400  Biso   1.000  H
  C29      1.0000 0.99990  0.73760  0.10290  Biso   1.000  C
  C30      1.0000 0.50010  0.23760  0.39710  Biso   1.000  C
  C31      1.0000 0.00010  0.26240  0.89710  Biso   1.000  C
  C32      1.0000 0.49990  0.76240  0.60290  Biso   1.000  C
  C33      1.0000 0.19440  0.26420  0.58110  Biso   1.000  C
  C34      1.0000 0.30560  0.76420  0.91890  Biso   1.000  C
  C35      1.0000 0.80560  0.73580  0.41890  Biso   1.000  C
  C36      1.0000 0.69440  0.23580  0.08110  Biso   1.000  C
  H17      1.0000 0.27870  0.26250  0.61130  Biso   1.000  H
  H18      1.0000 0.22130  0.76250  0.88870  Biso   1.000  H
  H19      1.0000 0.72130  0.73750  0.38870  Biso   1.000  H
  H20      1.0000 0.77870  0.23750  0.11130  Biso   1.000  H
  C37      1.0000 0.11310  0.32520  0.62150  Biso   1.000  C
  C38      1.0000 0.38690  0.82520  0.87850  Biso   1.000  C
  C39      1.0000 0.88690  0.67480  0.37850  Biso   1.000  C
  C40      1.0000 0.61310  0.17480  0.12150  Biso   1.000  C
  H21      1.0000 0.14080  0.36400  0.67930  Biso   1.000  H
  H22      1.0000 0.35920  0.86400  0.82070  Biso   1.000  H
  H23      1.0000 0.85920  0.63600  0.32070  Biso   1.000  H
  H24      1.0000 0.64080  0.13600  0.17930  Biso   1.000  H
  C41      1.0000 0.99170  0.32930  0.57730  Biso   1.000  C
  C42      1.0000 0.50830  0.82930  0.92270  Biso   1.000  C
  C43      1.0000 0.00830  0.67070  0.42270  Biso   1.000  C
  C44      1.0000 0.49170  0.17070  0.07730  Biso   1.000  C
  C45      1.0000 0.95430  0.27110  0.49380  Biso   1.000  C
  C46      1.0000 0.54570  0.77110  0.00620  Biso   1.000  C
  C47      1.0000 0.04570  0.72890  0.50620  Biso   1.000  C
  C48      1.0000 0.45430  0.22890  0.99380  Biso   1.000  C
  H25      1.0000 0.87110  0.27290  0.46120  Biso   1.000  H
  H26      1.0000 0.62890  0.77290  0.03880  Biso   1.000  H
  H27      1.0000 0.12890  0.72710  0.53880  Biso   1.000  H
  H28      1.0000 0.37110  0.22710  0.96120  Biso   1.000  H
  C49      1.0000 0.04100  0.20980  0.45840  Biso   1.000  C
  C50      1.0000 0.45900  0.70980  0.04160  Biso   1.000  C
  C51      1.0000 0.95900  0.79020  0.54160  Biso   1.000  C
  C52      1.0000 0.54100  0.29020  0.95840  Biso   1.000  C
  H29      1.0000 0.01460  0.16900  0.40250  Biso   1.000  H
  H30      1.0000 0.48540  0.66900  0.09750  Biso   1.000  H
  H31      1.0000 0.98540  0.83100  0.59750  Biso   1.000  H
  H32      1.0000 0.51460  0.33100  0.90250  Biso   1.000  H
  C53      1.0000 0.90710  0.39780  0.62430  Biso   1.000  C
  C54      1.0000 0.59290  0.89780  0.87570  Biso   1.000  C
  C55      1.0000 0.09290  0.60220  0.37570  Biso   1.000  C
  C56      1.0000 0.40710  0.10220  0.12430  Biso   1.000  C
  C57      1.0000 0.78490  0.53290  0.58800  Biso   1.000  C
  C58      1.0000 0.71510  0.03290  0.91200  Biso   1.000  C
  C59      1.0000 0.21510  0.46710  0.41200  Biso   1.000  C
  C60      1.0000 0.28490  0.96710  0.08800  Biso   1.000  C
  H33      1.0000 0.84090  0.58520  0.58660  Biso   1.000  H
  H34      1.0000 0.65910  0.08520  0.91340  Biso   1.000  H
  H35      1.0000 0.15910  0.41480  0.41340  Biso   1.000  H
  H36      1.0000 0.34090  0.91480  0.08660  Biso   1.000  H
  H37      1.0000 0.76120  0.52450  0.66440  Biso   1.000  H
  H38      1.0000 0.73880  0.02450  0.83560  Biso   1.000  H
  H39      1.0000 0.23880  0.47550  0.33560  Biso   1.000  H
  H40      1.0000 0.26120  0.97550  0.16440  Biso   1.000  H
  C61      1.0000 0.66780  0.55030  0.51520  Biso   1.000  C
  C62      1.0000 0.83220  0.05030  0.98480  Biso   1.000  C
  C63      1.0000 0.33220  0.44970  0.48480  Biso   1.000  C
  C64      1.0000 0.16780  0.94970  0.01520  Biso   1.000  C
  H41      1.0000 0.68850  0.54430  0.43760  Biso   1.000  H
  H42      1.0000 0.81150  0.04430  0.06240  Biso   1.000  H
  H43      1.0000 0.31150  0.45570  0.56240  Biso   1.000  H
  H44      1.0000 0.18850  0.95570  0.93760  Biso   1.000  H
  H45      1.0000 0.64050  0.61210  0.52640  Biso   1.000  H
  H46      1.0000 0.85950  0.11210  0.97360  Biso   1.000  H
  H47      1.0000 0.35950  0.38790  0.47360  Biso   1.000  H
  H48      1.0000 0.14050  0.88790  0.02640  Biso   1.000  H
  C65      1.0000 0.55890  0.48850  0.53620  Biso   1.000  C
  C66      1.0000 0.94110  0.98850  0.96380  Biso   1.000  C
  C67      1.0000 0.44110  0.51150  0.46380  Biso   1.000  C
  C68      1.0000 0.05890  0.01150  0.03620  Biso   1.000  C
  H49      1.0000 0.53960  0.49250  0.61430  Biso   1.000  H
  H50      1.0000 0.96040  0.99250  0.88570  Biso   1.000  H
  H51      1.0000 0.46040  0.50750  0.38570  Biso   1.000  H
  H52      1.0000 0.03960  0.00750  0.11430  Biso   1.000  H
  H53      1.0000 0.58400  0.42670  0.52140  Biso   1.000  H
  H54      1.0000 0.91600  0.92670  0.97860  Biso   1.000  H
  H55      1.0000 0.41600  0.57330  0.47860  Biso   1.000  H
  H56      1.0000 0.08400  0.07330  0.02140  Biso   1.000  H
  H57      1.0000 0.43800  0.05200  0.36300  Biso   1.000  H
  H58      1.0000 0.06200  0.55200  0.13700  Biso   1.000  H
  H59      1.0000 0.56200  0.94800  0.63700  Biso   1.000  H
  H60      1.0000 0.93800  0.44800  0.86300  Biso   1.000  H
  O37      1.0000 0.05850  0.24450  0.20030  Biso   1.000  O
  O38      1.0000 0.44150  0.74450  0.29970  Biso   1.000  O
  O39      1.0000 0.94150  0.75550  0.79970  Biso   1.000  O
  O40      1.0000 0.55850  0.25550  0.70030  Biso   1.000  O
  H61      1.0000 0.13040  0.21860  0.19320  Biso   1.000  H
  H62      1.0000 0.36960  0.71860  0.30680  Biso   1.000  H
  H63      1.0000 0.86960  0.78140  0.80680  Biso   1.000  H
  H64      1.0000 0.63040  0.28140  0.69320  Biso   1.000  H
  H65      1.0000 0.02510  0.22460  0.25870  Biso   1.000  H
  H66      1.0000 0.47490  0.72460  0.24130  Biso   1.000  H
  H67      1.0000 0.97490  0.77540  0.74130  Biso   1.000  H
  H68      1.0000 0.52510  0.27540  0.75870  Biso   1.000  H
