data_image0
_cell_length_a       13.203
_cell_length_b       10.16
_cell_length_c       7.97
_cell_angle_alpha    90
_cell_angle_beta     96.69
_cell_angle_gamma    90

_symmetry_space_group_name_H-M    "P 1"
_symmetry_int_tables_number       1

loop_
  _symmetry_equiv_pos_as_xyz
  'x, y, z'

loop_
  _atom_site_label
  _atom_site_occupancy
  _atom_site_fract_x
  _atom_site_fract_y
  _atom_site_fract_z
  _atom_site_thermal_displace_type
  _atom_site_B_iso_or_equiv
  _atom_site_type_symbol
  C1       1.0000 0.37590  0.74420  0.50280  Biso   1.000  C
  C2       1.0000 0.62410  0.24420  0.99720  Biso   1.000  C
  C3       1.0000 0.62410  0.25580  0.49720  Biso   1.000  C
  C4       1.0000 0.37590  0.75580  0.00280  Biso   1.000  C
  C5       1.0000 0.47950  0.76090  0.59330  Biso   1.000  C
  C6       1.0000 0.52050  0.26090  0.90670  Biso   1.000  C
  C7       1.0000 0.52050  0.23910  0.40670  Biso   1.000  C
  C8       1.0000 0.47950  0.73910  0.09330  Biso   1.000  C
  C9       1.0000 0.51250  0.88720  0.64990  Biso   1.000  C
  C10      1.0000 0.48750  0.38720  0.85010  Biso   1.000  C
  C11      1.0000 0.48750  0.11280  0.35010  Biso   1.000  C
  C12      1.0000 0.51250  0.61280  0.14990  Biso   1.000  C
  H1       1.0000 0.46770  0.95770  0.63080  Biso   1.000  H
  H2       1.0000 0.53230  0.45770  0.86920  Biso   1.000  H
  H3       1.0000 0.53230  0.04230  0.36920  Biso   1.000  H
  H4       1.0000 0.46770  0.54230  0.13080  Biso   1.000  H
  C13      1.0000 0.60570  0.90910  0.73000  Biso   1.000  C
  C14      1.0000 0.39430  0.40910  0.77000  Biso   1.000  C
  C15      1.0000 0.39430  0.09090  0.27000  Biso   1.000  C
  C16      1.0000 0.60570  0.59090  0.23000  Biso   1.000  C
  H5       1.0000 0.62590  0.99370  0.76350  Biso   1.000  H
  H6       1.0000 0.37410  0.49370  0.73650  Biso   1.000  H
  H7       1.0000 0.37410  0.00630  0.23650  Biso   1.000  H
  H8       1.0000 0.62590  0.50630  0.26350  Biso   1.000  H
  C17      1.0000 0.67150  0.80370  0.76210  Biso   1.000  C
  C18      1.0000 0.32850  0.30370  0.73790  Biso   1.000  C
  C19      1.0000 0.32850  0.19630  0.23790  Biso   1.000  C
  C20      1.0000 0.67150  0.69630  0.26210  Biso   1.000  C
  C21      1.0000 0.63980  0.67710  0.70790  Biso   1.000  C
  C22      1.0000 0.36020  0.17710  0.79210  Biso   1.000  C
  C23      1.0000 0.36020  0.32290  0.29210  Biso   1.000  C
  C24      1.0000 0.63980  0.82290  0.20790  Biso   1.000  C
  C25      1.0000 0.54590  0.65440  0.62200  Biso   1.000  C
  C26      1.0000 0.45410  0.15440  0.87800  Biso   1.000  C
  C27      1.0000 0.45410  0.34560  0.37800  Biso   1.000  C
  C28      1.0000 0.54590  0.84560  0.12200  Biso   1.000  C
  H9       1.0000 0.52680  0.57060  0.58360  Biso   1.000  H
  H10      1.0000 0.47320  0.07060  0.91640  Biso   1.000  H
  H11      1.0000 0.47320  0.42940  0.41640  Biso   1.000  H
  H12      1.0000 0.52680  0.92940  0.08360  Biso   1.000  H
  C29      1.0000 0.79180  0.66250  0.84440  Biso   1.000  C
  C30      1.0000 0.20820  0.16250  0.65560  Biso   1.000  C
  C31      1.0000 0.20820  0.33750  0.15560  Biso   1.000  C
  C32      1.0000 0.79180  0.83750  0.34440  Biso   1.000  C
  C33      1.0000 0.88730  0.60580  0.92140  Biso   1.000  C
  C34      1.0000 0.11270  0.10580  0.57860  Biso   1.000  C
  C35      1.0000 0.11270  0.39420  0.07860  Biso   1.000  C
  C36      1.0000 0.88730  0.89420  0.42140  Biso   1.000  C
  H13      1.0000 0.94440  0.64650  0.87500  Biso   1.000  H
  H14      1.0000 0.05560  0.14650  0.62500  Biso   1.000  H
  H15      1.0000 0.05560  0.35350  0.12500  Biso   1.000  H
  H16      1.0000 0.94440  0.85350  0.37500  Biso   1.000  H
  H17      1.0000 0.89510  0.62070  0.04250  Biso   1.000  H
  H18      1.0000 0.10490  0.12070  0.45750  Biso   1.000  H
  H19      1.0000 0.10490  0.37930  0.95750  Biso   1.000  H
  H20      1.0000 0.89510  0.87930  0.54250  Biso   1.000  H
  Cu1      1.0000 0.24535  0.59410  0.25920  Biso   1.000  Cu
  Cu2      1.0000 0.75465  0.09410  0.24080  Biso   1.000  Cu
  Cu3      1.0000 0.75465  0.40590  0.74080  Biso   1.000  Cu
  Cu4      1.0000 0.24535  0.90590  0.75920  Biso   1.000  Cu
  N1       1.0000 0.76650  0.79140  0.84900  Biso   1.000  N
  N2       1.0000 0.23350  0.29140  0.65100  Biso   1.000  N
  N3       1.0000 0.23350  0.20860  0.15100  Biso   1.000  N
  N4       1.0000 0.76650  0.70860  0.34900  Biso   1.000  N
  H21      1.0000 0.80320  0.85370  0.89730  Biso   1.000  H
  H22      1.0000 0.19680  0.35370  0.60270  Biso   1.000  H
  H23      1.0000 0.19680  0.14630  0.10270  Biso   1.000  H
  H24      1.0000 0.80320  0.64630  0.39730  Biso   1.000  H
  N5       1.0000 0.71940  0.59150  0.76150  Biso   1.000  N
  N6       1.0000 0.28060  0.09150  0.73850  Biso   1.000  N
  N7       1.0000 0.28060  0.40850  0.23850  Biso   1.000  N
  N8       1.0000 0.71940  0.90850  0.26150  Biso   1.000  N
  O1       1.0000 0.31270  0.83540  0.51230  Biso   1.000  O
  O2       1.0000 0.68730  0.33540  0.98770  Biso   1.000  O
  O3       1.0000 0.68730  0.16460  0.48770  Biso   1.000  O
  O4       1.0000 0.31270  0.66460  0.01230  Biso   1.000  O
  O5       1.0000 0.35880  0.63630  0.42310  Biso   1.000  O
  O6       1.0000 0.64120  0.13630  0.07690  Biso   1.000  O
  O7       1.0000 0.64120  0.36370  0.57690  Biso   1.000  O
  O8       1.0000 0.35880  0.86370  0.92310  Biso   1.000  O
  O9       1.0000 0.17880  0.76300  0.27520  Biso   1.000  O
  O10      1.0000 0.82120  0.26300  0.22480  Biso   1.000  O
  O11      1.0000 0.82120  0.23700  0.72480  Biso   1.000  O
  O12      1.0000 0.17880  0.73700  0.77520  Biso   1.000  O
  H25      1.0000 0.20500  0.80100  0.36600  Biso   1.000  H
  H26      1.0000 0.79500  0.30100  0.13400  Biso   1.000  H
  H27      1.0000 0.79500  0.19900  0.63400  Biso   1.000  H
  H28      1.0000 0.20500  0.69900  0.86600  Biso   1.000  H
  H29      1.0000 0.13400  0.78900  0.19700  Biso   1.000  H
  H30      1.0000 0.86600  0.28900  0.30300  Biso   1.000  H
  H31      1.0000 0.86600  0.21100  0.80300  Biso   1.000  H
  H32      1.0000 0.13400  0.71100  0.69700  Biso   1.000  H
  O13      1.0000 0.88520  0.46670  0.88630  Biso   1.000  O
  O14      1.0000 0.11480  0.96670  0.61370  Biso   1.000  O
  O15      1.0000 0.11480  0.53330  0.11370  Biso   1.000  O
  O16      1.0000 0.88520  0.03330  0.38630  Biso   1.000  O
  H33      1.0000 0.84200  0.41200  0.85700  Biso   1.000  H
  H34      1.0000 0.15800  0.91200  0.64300  Biso   1.000  H
  H35      1.0000 0.15800  0.58800  0.14300  Biso   1.000  H
  H36      1.0000 0.84200  0.08800  0.35700  Biso   1.000  H
  F1       1.0000 0.00960  0.64690  0.59220  Biso   1.000  F
  F2       1.0000 0.99040  0.14690  0.90780  Biso   1.000  F
  F3       1.0000 0.99040  0.35310  0.40780  Biso   1.000  F
  F4       1.0000 0.00960  0.85310  0.09220  Biso   1.000  F
  F5       1.0000 0.02110  0.42610  0.68990  Biso   1.000  F
  F6       1.0000 0.97890  0.92610  0.81010  Biso   1.000  F
  F7       1.0000 0.97890  0.57390  0.31010  Biso   1.000  F
  F8       1.0000 0.02110  0.07390  0.18990  Biso   1.000  F
  F9       1.0000 0.87540  0.49950  0.51360  Biso   1.000  F
  F10      1.0000 0.12460  0.99950  0.98640  Biso   1.000  F
  F11      1.0000 0.12460  0.50050  0.48640  Biso   1.000  F
  F12      1.0000 0.87540  0.00050  0.01360  Biso   1.000  F
  Si1      1.0000 0.00000  0.50000  0.50000  Biso   1.000  Si
  Si2      1.0000 0.00000  0.00000  0.00000  Biso   1.000  Si
