data_image0
_cell_length_a       11.2757
_cell_length_b       10.154
_cell_length_c       31.0566
_cell_angle_alpha    90
_cell_angle_beta     90
_cell_angle_gamma    90

_symmetry_space_group_name_H-M    "P 1"
_symmetry_int_tables_number       1

loop_
  _symmetry_equiv_pos_as_xyz
  'x, y, z'

loop_
  _atom_site_label
  _atom_site_occupancy
  _atom_site_fract_x
  _atom_site_fract_y
  _atom_site_fract_z
  _atom_site_thermal_displace_type
  _atom_site_B_iso_or_equiv
  _atom_site_type_symbol
  Cu1      1.0000 0.35371  0.24625  0.11241  Biso   1.000  Cu
  Cu2      1.0000 0.14629  0.75375  0.61241  Biso   1.000  Cu
  Cu3      1.0000 0.85371  0.25375  0.88759  Biso   1.000  Cu
  Cu4      1.0000 0.64629  0.74625  0.38759  Biso   1.000  Cu
  Cu5      1.0000 0.64629  0.75375  0.88759  Biso   1.000  Cu
  Cu6      1.0000 0.85371  0.24625  0.38759  Biso   1.000  Cu
  Cu7      1.0000 0.14629  0.74625  0.11241  Biso   1.000  Cu
  Cu8      1.0000 0.35371  0.25375  0.61241  Biso   1.000  Cu
  O1       1.0000 0.23252  0.13722  0.08323  Biso   1.000  O
  O2       1.0000 0.26748  0.86278  0.58323  Biso   1.000  O
  O3       1.0000 0.73252  0.36278  0.91677  Biso   1.000  O
  O4       1.0000 0.76748  0.63722  0.41677  Biso   1.000  O
  O5       1.0000 0.76748  0.86278  0.91677  Biso   1.000  O
  O6       1.0000 0.73252  0.13722  0.41677  Biso   1.000  O
  O7       1.0000 0.26748  0.63722  0.08323  Biso   1.000  O
  O8       1.0000 0.23252  0.36278  0.58323  Biso   1.000  O
  C1       1.0000 0.28133  0.96810  0.13505  Biso   1.000  C
  C2       1.0000 0.21867  0.03190  0.63505  Biso   1.000  C
  C3       1.0000 0.78133  0.53190  0.86495  Biso   1.000  C
  C4       1.0000 0.71867  0.46810  0.36495  Biso   1.000  C
  C5       1.0000 0.71867  0.03190  0.86495  Biso   1.000  C
  C6       1.0000 0.78133  0.96810  0.36495  Biso   1.000  C
  C7       1.0000 0.21867  0.46810  0.13505  Biso   1.000  C
  C8       1.0000 0.28133  0.53190  0.63505  Biso   1.000  C
  O9       1.0000 0.16830  0.93423  0.07053  Biso   1.000  O
  O10      1.0000 0.33170  0.06577  0.57053  Biso   1.000  O
  O11      1.0000 0.66830  0.56577  0.92947  Biso   1.000  O
  O12      1.0000 0.83170  0.43423  0.42947  Biso   1.000  O
  O13      1.0000 0.83170  0.06577  0.92947  Biso   1.000  O
  O14      1.0000 0.66830  0.93423  0.42947  Biso   1.000  O
  O15      1.0000 0.33170  0.43423  0.07053  Biso   1.000  O
  O16      1.0000 0.16830  0.56577  0.57053  Biso   1.000  O
  O17      1.0000 0.26326  0.84933  0.14554  Biso   1.000  O
  O18      1.0000 0.23674  0.15067  0.64554  Biso   1.000  O
  O19      1.0000 0.76326  0.65067  0.85446  Biso   1.000  O
  O20      1.0000 0.73674  0.34933  0.35446  Biso   1.000  O
  O21      1.0000 0.73674  0.15067  0.85446  Biso   1.000  O
  O22      1.0000 0.76326  0.84933  0.35446  Biso   1.000  O
  O23      1.0000 0.23674  0.34933  0.14554  Biso   1.000  O
  O24      1.0000 0.26326  0.65067  0.64554  Biso   1.000  O
  O25      1.0000 0.34192  0.04691  0.15591  Biso   1.000  O
  O26      1.0000 0.15808  0.95309  0.65591  Biso   1.000  O
  O27      1.0000 0.84192  0.45309  0.84409  Biso   1.000  O
  O28      1.0000 0.65808  0.54691  0.34409  Biso   1.000  O
  O29      1.0000 0.65808  0.95309  0.84409  Biso   1.000  O
  O30      1.0000 0.84192  0.04691  0.34409  Biso   1.000  O
  O31      1.0000 0.15808  0.54691  0.15591  Biso   1.000  O
  O32      1.0000 0.34192  0.45309  0.65591  Biso   1.000  O
  C9       1.0000 0.22243  0.01650  0.09221  Biso   1.000  C
  C10      1.0000 0.27757  0.98350  0.59221  Biso   1.000  C
  C11      1.0000 0.72243  0.48350  0.90779  Biso   1.000  C
  C12      1.0000 0.77757  0.51650  0.40779  Biso   1.000  C
  C13      1.0000 0.77757  0.98350  0.90779  Biso   1.000  C
  C14      1.0000 0.72243  0.01650  0.40779  Biso   1.000  C
  C15      1.0000 0.27757  0.51650  0.09221  Biso   1.000  C
  C16      1.0000 0.22243  0.48350  0.59221  Biso   1.000  C
  C17      1.0000 0.58670  0.27750  0.13317  Biso   1.000  C
  C18      1.0000 0.91330  0.72250  0.63317  Biso   1.000  C
  C19      1.0000 0.08670  0.22250  0.86683  Biso   1.000  C
  C20      1.0000 0.41330  0.77750  0.36683  Biso   1.000  C
  C21      1.0000 0.41330  0.72250  0.86683  Biso   1.000  C
  C22      1.0000 0.08670  0.27750  0.36683  Biso   1.000  C
  C23      1.0000 0.91330  0.77750  0.13317  Biso   1.000  C
  C24      1.0000 0.58670  0.22250  0.63317  Biso   1.000  C
  C25      1.0000 0.58070  0.17390  0.09681  Biso   1.000  C
  C26      1.0000 0.91930  0.82610  0.59681  Biso   1.000  C
  C27      1.0000 0.08070  0.32610  0.90319  Biso   1.000  C
  C28      1.0000 0.41930  0.67390  0.40319  Biso   1.000  C
  C29      1.0000 0.41930  0.82610  0.90319  Biso   1.000  C
  C30      1.0000 0.08070  0.17390  0.40319  Biso   1.000  C
  C31      1.0000 0.91930  0.67390  0.09681  Biso   1.000  C
  C32      1.0000 0.58070  0.32610  0.59681  Biso   1.000  C
  O33      1.0000 0.48797  0.32758  0.14391  Biso   1.000  O
  O34      1.0000 0.01203  0.67242  0.64391  Biso   1.000  O
  O35      1.0000 0.98797  0.17242  0.85609  Biso   1.000  O
  O36      1.0000 0.51203  0.82758  0.35609  Biso   1.000  O
  O37      1.0000 0.51203  0.67242  0.85609  Biso   1.000  O
  O38      1.0000 0.98797  0.32758  0.35609  Biso   1.000  O
  O39      1.0000 0.01203  0.82758  0.14391  Biso   1.000  O
  O40      1.0000 0.48797  0.17242  0.64391  Biso   1.000  O
  O41      1.0000 0.47911  0.15692  0.08012  Biso   1.000  O
  O42      1.0000 0.02089  0.84308  0.58012  Biso   1.000  O
  O43      1.0000 0.97911  0.34308  0.91988  Biso   1.000  O
  O44      1.0000 0.52089  0.65692  0.41988  Biso   1.000  O
  O45      1.0000 0.52089  0.84308  0.91988  Biso   1.000  O
  O46      1.0000 0.97911  0.15692  0.41988  Biso   1.000  O
  O47      1.0000 0.02089  0.65692  0.08012  Biso   1.000  O
  O48      1.0000 0.47911  0.34308  0.58012  Biso   1.000  O
  O49      1.0000 0.68416  0.30280  0.14939  Biso   1.000  O
  O50      1.0000 0.81584  0.69720  0.64939  Biso   1.000  O
  O51      1.0000 0.18416  0.19720  0.85061  Biso   1.000  O
  O52      1.0000 0.31584  0.80280  0.35061  Biso   1.000  O
  O53      1.0000 0.31584  0.69720  0.85061  Biso   1.000  O
  O54      1.0000 0.18416  0.30280  0.35061  Biso   1.000  O
  O55      1.0000 0.81584  0.80280  0.14939  Biso   1.000  O
  O56      1.0000 0.68416  0.19720  0.64939  Biso   1.000  O
  O57      1.0000 0.67143  0.11610  0.08591  Biso   1.000  O
  O58      1.0000 0.82857  0.88390  0.58591  Biso   1.000  O
  O59      1.0000 0.17143  0.38390  0.91409  Biso   1.000  O
  O60      1.0000 0.32857  0.61610  0.41409  Biso   1.000  O
  O61      1.0000 0.32857  0.88390  0.91409  Biso   1.000  O
  O62      1.0000 0.17143  0.11610  0.41409  Biso   1.000  O
  O63      1.0000 0.82857  0.61610  0.08591  Biso   1.000  O
  O64      1.0000 0.67143  0.38390  0.58591  Biso   1.000  O
  N1       1.0000 0.44107  0.22620  0.95735  Biso   1.000  N
  N2       1.0000 0.05893  0.77380  0.45735  Biso   1.000  N
  N3       1.0000 0.94107  0.27380  0.04265  Biso   1.000  N
  N4       1.0000 0.55893  0.72620  0.54265  Biso   1.000  N
  N5       1.0000 0.55893  0.77380  0.04265  Biso   1.000  N
  N6       1.0000 0.94107  0.22620  0.54265  Biso   1.000  N
  N7       1.0000 0.05893  0.72620  0.95735  Biso   1.000  N
  N8       1.0000 0.44107  0.27380  0.45735  Biso   1.000  N
  C33      1.0000 0.43870  0.22160  0.90937  Biso   1.000  C
  C34      1.0000 0.06130  0.77840  0.40937  Biso   1.000  C
  C35      1.0000 0.93870  0.27840  0.09063  Biso   1.000  C
  C36      1.0000 0.56130  0.72160  0.59063  Biso   1.000  C
  C37      1.0000 0.56130  0.77840  0.09063  Biso   1.000  C
  C38      1.0000 0.93870  0.22160  0.59063  Biso   1.000  C
  C39      1.0000 0.06130  0.72160  0.90937  Biso   1.000  C
  C40      1.0000 0.43870  0.27840  0.40937  Biso   1.000  C
  H1       1.0000 0.43740  0.13160  0.90000  Biso   1.000  H
  H2       1.0000 0.06260  0.86840  0.40000  Biso   1.000  H
  H3       1.0000 0.93740  0.36840  0.10000  Biso   1.000  H
  H4       1.0000 0.56260  0.63160  0.60000  Biso   1.000  H
  H5       1.0000 0.56260  0.86840  0.10000  Biso   1.000  H
  H6       1.0000 0.93740  0.13160  0.60000  Biso   1.000  H
  H7       1.0000 0.06260  0.63160  0.90000  Biso   1.000  H
  H8       1.0000 0.43740  0.36840  0.40000  Biso   1.000  H
  H9       1.0000 0.50820  0.26440  0.89820  Biso   1.000  H
  H10      1.0000 0.99180  0.73560  0.39820  Biso   1.000  H
  H11      1.0000 0.00820  0.23560  0.10180  Biso   1.000  H
  H12      1.0000 0.49180  0.76440  0.60180  Biso   1.000  H
  H13      1.0000 0.49180  0.73560  0.10180  Biso   1.000  H
  H14      1.0000 0.00820  0.26440  0.60180  Biso   1.000  H
  H15      1.0000 0.99180  0.76440  0.89820  Biso   1.000  H
  H16      1.0000 0.50820  0.23560  0.39820  Biso   1.000  H
  H17      1.0000 0.36910  0.26600  0.89900  Biso   1.000  H
  H18      1.0000 0.13090  0.73400  0.39900  Biso   1.000  H
  H19      1.0000 0.86910  0.23400  0.10100  Biso   1.000  H
  H20      1.0000 0.63090  0.76600  0.60100  Biso   1.000  H
  H21      1.0000 0.63090  0.73400  0.10100  Biso   1.000  H
  H22      1.0000 0.86910  0.26600  0.60100  Biso   1.000  H
  H23      1.0000 0.13090  0.76600  0.89900  Biso   1.000  H
  H24      1.0000 0.36910  0.23400  0.39900  Biso   1.000  H
  C41      1.0000 0.33320  0.15890  0.97508  Biso   1.000  C
  C42      1.0000 0.16680  0.84110  0.47508  Biso   1.000  C
  C43      1.0000 0.83320  0.34110  0.02492  Biso   1.000  C
  C44      1.0000 0.66680  0.65890  0.52492  Biso   1.000  C
  C45      1.0000 0.66680  0.84110  0.02492  Biso   1.000  C
  C46      1.0000 0.83320  0.15890  0.52492  Biso   1.000  C
  C47      1.0000 0.16680  0.65890  0.97508  Biso   1.000  C
  C48      1.0000 0.33320  0.34110  0.47508  Biso   1.000  C
  H25      1.0000 0.33220  0.06880  0.96570  Biso   1.000  H
  H26      1.0000 0.16780  0.93120  0.46570  Biso   1.000  H
  H27      1.0000 0.83220  0.43120  0.03430  Biso   1.000  H
  H28      1.0000 0.66780  0.56880  0.53430  Biso   1.000  H
  H29      1.0000 0.66780  0.93120  0.03430  Biso   1.000  H
  H30      1.0000 0.83220  0.06880  0.53430  Biso   1.000  H
  H31      1.0000 0.16780  0.56880  0.96570  Biso   1.000  H
  H32      1.0000 0.33220  0.43120  0.46570  Biso   1.000  H
  H33      1.0000 0.26330  0.20290  0.96490  Biso   1.000  H
  H34      1.0000 0.23670  0.79710  0.46490  Biso   1.000  H
  H35      1.0000 0.76330  0.29710  0.03510  Biso   1.000  H
  H36      1.0000 0.73670  0.70290  0.53510  Biso   1.000  H
  H37      1.0000 0.73670  0.79710  0.03510  Biso   1.000  H
  H38      1.0000 0.76330  0.20290  0.53510  Biso   1.000  H
  H39      1.0000 0.23670  0.70290  0.96490  Biso   1.000  H
  H40      1.0000 0.26330  0.29710  0.46490  Biso   1.000  H
  H41      1.0000 0.33520  0.16200  0.00600  Biso   1.000  H
  H42      1.0000 0.16480  0.83800  0.50600  Biso   1.000  H
  H43      1.0000 0.83520  0.33800  0.99400  Biso   1.000  H
  H44      1.0000 0.66480  0.66200  0.49400  Biso   1.000  H
  H45      1.0000 0.66480  0.83800  0.99400  Biso   1.000  H
  H46      1.0000 0.83520  0.16200  0.49400  Biso   1.000  H
  H47      1.0000 0.16480  0.66200  0.00600  Biso   1.000  H
  H48      1.0000 0.33520  0.33800  0.50600  Biso   1.000  H
  C49      1.0000 0.54960  0.15530  0.97229  Biso   1.000  C
  C50      1.0000 0.95040  0.84470  0.47229  Biso   1.000  C
  C51      1.0000 0.04960  0.34470  0.02771  Biso   1.000  C
  C52      1.0000 0.45040  0.65530  0.52771  Biso   1.000  C
  C53      1.0000 0.45040  0.84470  0.02771  Biso   1.000  C
  C54      1.0000 0.04960  0.15530  0.52771  Biso   1.000  C
  C55      1.0000 0.95040  0.65530  0.97229  Biso   1.000  C
  C56      1.0000 0.54960  0.34470  0.47229  Biso   1.000  C
  H49      1.0000 0.54670  0.06560  0.96260  Biso   1.000  H
  H50      1.0000 0.95330  0.93440  0.46260  Biso   1.000  H
  H51      1.0000 0.04670  0.43440  0.03740  Biso   1.000  H
  H52      1.0000 0.45330  0.56560  0.53740  Biso   1.000  H
  H53      1.0000 0.45330  0.93440  0.03740  Biso   1.000  H
  H54      1.0000 0.04670  0.06560  0.53740  Biso   1.000  H
  H55      1.0000 0.95330  0.56560  0.96260  Biso   1.000  H
  H56      1.0000 0.54670  0.43440  0.46260  Biso   1.000  H
  H57      1.0000 0.55300  0.15730  0.00320  Biso   1.000  H
  H58      1.0000 0.94700  0.84270  0.50320  Biso   1.000  H
  H59      1.0000 0.05300  0.34270  0.99680  Biso   1.000  H
  H60      1.0000 0.44700  0.65730  0.49680  Biso   1.000  H
  H61      1.0000 0.44700  0.84270  0.99680  Biso   1.000  H
  H62      1.0000 0.05300  0.15730  0.49680  Biso   1.000  H
  H63      1.0000 0.94700  0.65730  0.00320  Biso   1.000  H
  H64      1.0000 0.55300  0.34270  0.50320  Biso   1.000  H
  H65      1.0000 0.61870  0.19750  0.96070  Biso   1.000  H
  H66      1.0000 0.88130  0.80250  0.46070  Biso   1.000  H
  H67      1.0000 0.11870  0.30250  0.03930  Biso   1.000  H
  H68      1.0000 0.38130  0.69750  0.53930  Biso   1.000  H
  H69      1.0000 0.38130  0.80250  0.03930  Biso   1.000  H
  H70      1.0000 0.11870  0.19750  0.53930  Biso   1.000  H
  H71      1.0000 0.88130  0.69750  0.96070  Biso   1.000  H
  H72      1.0000 0.61870  0.30250  0.46070  Biso   1.000  H
  C57      1.0000 0.44320  0.36390  0.97199  Biso   1.000  C
  C58      1.0000 0.05680  0.63610  0.47199  Biso   1.000  C
  C59      1.0000 0.94320  0.13610  0.02801  Biso   1.000  C
  C60      1.0000 0.55680  0.86390  0.52801  Biso   1.000  C
  C61      1.0000 0.55680  0.63610  0.02801  Biso   1.000  C
  C62      1.0000 0.94320  0.36390  0.52801  Biso   1.000  C
  C63      1.0000 0.05680  0.86390  0.97199  Biso   1.000  C
  C64      1.0000 0.44320  0.13610  0.47199  Biso   1.000  C
  H73      1.0000 0.44460  0.36630  0.00290  Biso   1.000  H
  H74      1.0000 0.05540  0.63370  0.50290  Biso   1.000  H
  H75      1.0000 0.94460  0.13370  0.99710  Biso   1.000  H
  H76      1.0000 0.55540  0.86630  0.49710  Biso   1.000  H
  H77      1.0000 0.55540  0.63370  0.99710  Biso   1.000  H
  H78      1.0000 0.94460  0.36630  0.49710  Biso   1.000  H
  H79      1.0000 0.05540  0.86630  0.00290  Biso   1.000  H
  H80      1.0000 0.44460  0.13370  0.50290  Biso   1.000  H
  H81      1.0000 0.37370  0.40860  0.96170  Biso   1.000  H
  H82      1.0000 0.12630  0.59140  0.46170  Biso   1.000  H
  H83      1.0000 0.87370  0.09140  0.03830  Biso   1.000  H
  H84      1.0000 0.62630  0.90860  0.53830  Biso   1.000  H
  H85      1.0000 0.62630  0.59140  0.03830  Biso   1.000  H
  H86      1.0000 0.87370  0.40860  0.53830  Biso   1.000  H
  H87      1.0000 0.12630  0.90860  0.96170  Biso   1.000  H
  H88      1.0000 0.37370  0.09140  0.46170  Biso   1.000  H
  H89      1.0000 0.51270  0.40680  0.96090  Biso   1.000  H
  H90      1.0000 0.98730  0.59320  0.46090  Biso   1.000  H
  H91      1.0000 0.01270  0.09320  0.03910  Biso   1.000  H
  H92      1.0000 0.48730  0.90680  0.53910  Biso   1.000  H
  H93      1.0000 0.48730  0.59320  0.03910  Biso   1.000  H
  H94      1.0000 0.01270  0.40680  0.53910  Biso   1.000  H
  H95      1.0000 0.98730  0.90680  0.96090  Biso   1.000  H
  H96      1.0000 0.51270  0.09320  0.46090  Biso   1.000  H
  N9       1.0000 0.47042  0.72333  0.22835  Biso   1.000  N
  N10      1.0000 0.02958  0.27667  0.72835  Biso   1.000  N
  N11      1.0000 0.97042  0.77667  0.77165  Biso   1.000  N
  N12      1.0000 0.52958  0.22333  0.27165  Biso   1.000  N
  N13      1.0000 0.52958  0.27667  0.77165  Biso   1.000  N
  N14      1.0000 0.97042  0.72333  0.27165  Biso   1.000  N
  N15      1.0000 0.02958  0.22333  0.22835  Biso   1.000  N
  N16      1.0000 0.47042  0.77667  0.72835  Biso   1.000  N
  C65      1.0000 0.42210  0.61860  0.19984  Biso   1.000  C
  C66      1.0000 0.07790  0.38140  0.69984  Biso   1.000  C
  C67      1.0000 0.92210  0.88140  0.80016  Biso   1.000  C
  C68      1.0000 0.57790  0.11860  0.30016  Biso   1.000  C
  C69      1.0000 0.57790  0.38140  0.80016  Biso   1.000  C
  C70      1.0000 0.92210  0.61860  0.30016  Biso   1.000  C
  C71      1.0000 0.07790  0.11860  0.19984  Biso   1.000  C
  C72      1.0000 0.42210  0.88140  0.69984  Biso   1.000  C
  H97      1.0000 0.37340  0.56000  0.21640  Biso   1.000  H
  H98      1.0000 0.12660  0.44000  0.71640  Biso   1.000  H
  H99      1.0000 0.87340  0.94000  0.78360  Biso   1.000  H
  H100     1.0000 0.62660  0.06000  0.28360  Biso   1.000  H
  H101     1.0000 0.62660  0.44000  0.78360  Biso   1.000  H
  H102     1.0000 0.87340  0.56000  0.28360  Biso   1.000  H
  H103     1.0000 0.12660  0.06000  0.21640  Biso   1.000  H
  H104     1.0000 0.37340  0.94000  0.71640  Biso   1.000  H
  H105     1.0000 0.48640  0.57010  0.18720  Biso   1.000  H
  H106     1.0000 0.01360  0.42990  0.68720  Biso   1.000  H
  H107     1.0000 0.98640  0.92990  0.81280  Biso   1.000  H
  H108     1.0000 0.51360  0.07010  0.31280  Biso   1.000  H
  H109     1.0000 0.51360  0.42990  0.81280  Biso   1.000  H
  H110     1.0000 0.98640  0.57010  0.31280  Biso   1.000  H
  H111     1.0000 0.01360  0.07010  0.18720  Biso   1.000  H
  H112     1.0000 0.48640  0.92990  0.68720  Biso   1.000  H
  H113     1.0000 0.37530  0.65810  0.17750  Biso   1.000  H
  H114     1.0000 0.12470  0.34190  0.67750  Biso   1.000  H
  H115     1.0000 0.87530  0.84190  0.82250  Biso   1.000  H
  H116     1.0000 0.62470  0.15810  0.32250  Biso   1.000  H
  H117     1.0000 0.62470  0.34190  0.82250  Biso   1.000  H
  H118     1.0000 0.87530  0.65810  0.32250  Biso   1.000  H
  H119     1.0000 0.12470  0.15810  0.17750  Biso   1.000  H
  H120     1.0000 0.37530  0.84190  0.67750  Biso   1.000  H
  C73      1.0000 0.54550  0.81400  0.20249  Biso   1.000  C
  C74      1.0000 0.95450  0.18600  0.70249  Biso   1.000  C
  C75      1.0000 0.04550  0.68600  0.79751  Biso   1.000  C
  C76      1.0000 0.45450  0.31400  0.29751  Biso   1.000  C
  C77      1.0000 0.45450  0.18600  0.79751  Biso   1.000  C
  C78      1.0000 0.04550  0.81400  0.29751  Biso   1.000  C
  C79      1.0000 0.95450  0.31400  0.20249  Biso   1.000  C
  C80      1.0000 0.54550  0.68600  0.70249  Biso   1.000  C
  H121     1.0000 0.57640  0.88210  0.22080  Biso   1.000  H
  H122     1.0000 0.92360  0.11790  0.72080  Biso   1.000  H
  H123     1.0000 0.07640  0.61790  0.77920  Biso   1.000  H
  H124     1.0000 0.42360  0.38210  0.27920  Biso   1.000  H
  H125     1.0000 0.42360  0.11790  0.77920  Biso   1.000  H
  H126     1.0000 0.07640  0.88210  0.27920  Biso   1.000  H
  H127     1.0000 0.92360  0.38210  0.22080  Biso   1.000  H
  H128     1.0000 0.57640  0.61790  0.72080  Biso   1.000  H
  H129     1.0000 0.49860  0.85290  0.18000  Biso   1.000  H
  H130     1.0000 0.00140  0.14710  0.68000  Biso   1.000  H
  H131     1.0000 0.99860  0.64710  0.82000  Biso   1.000  H
  H132     1.0000 0.50140  0.35290  0.32000  Biso   1.000  H
  H133     1.0000 0.50140  0.14710  0.82000  Biso   1.000  H
  H134     1.0000 0.99860  0.85290  0.32000  Biso   1.000  H
  H135     1.0000 0.00140  0.35290  0.18000  Biso   1.000  H
  H136     1.0000 0.49860  0.64710  0.68000  Biso   1.000  H
  H137     1.0000 0.61000  0.76560  0.19000  Biso   1.000  H
  H138     1.0000 0.89000  0.23440  0.69000  Biso   1.000  H
  H139     1.0000 0.11000  0.73440  0.81000  Biso   1.000  H
  H140     1.0000 0.39000  0.26560  0.31000  Biso   1.000  H
  H141     1.0000 0.39000  0.23440  0.81000  Biso   1.000  H
  H142     1.0000 0.11000  0.76560  0.31000  Biso   1.000  H
  H143     1.0000 0.89000  0.26560  0.19000  Biso   1.000  H
  H144     1.0000 0.61000  0.73440  0.69000  Biso   1.000  H
  C81      1.0000 0.36990  0.80080  0.24736  Biso   1.000  C
  C82      1.0000 0.13010  0.19920  0.74736  Biso   1.000  C
  C83      1.0000 0.86990  0.69920  0.75264  Biso   1.000  C
  C84      1.0000 0.63010  0.30080  0.25264  Biso   1.000  C
  C85      1.0000 0.63010  0.19920  0.75264  Biso   1.000  C
  C86      1.0000 0.86990  0.80080  0.25264  Biso   1.000  C
  C87      1.0000 0.13010  0.30080  0.24736  Biso   1.000  C
  C88      1.0000 0.36990  0.69920  0.74736  Biso   1.000  C
  H145     1.0000 0.32060  0.74340  0.26420  Biso   1.000  H
  H146     1.0000 0.17940  0.25660  0.76420  Biso   1.000  H
  H147     1.0000 0.82060  0.75660  0.73580  Biso   1.000  H
  H148     1.0000 0.67940  0.24340  0.23580  Biso   1.000  H
  H149     1.0000 0.67940  0.25660  0.73580  Biso   1.000  H
  H150     1.0000 0.82060  0.74340  0.23580  Biso   1.000  H
  H151     1.0000 0.17940  0.24340  0.26420  Biso   1.000  H
  H152     1.0000 0.32060  0.75660  0.76420  Biso   1.000  H
  H153     1.0000 0.32380  0.83930  0.22460  Biso   1.000  H
  H154     1.0000 0.17620  0.16070  0.72460  Biso   1.000  H
  H155     1.0000 0.82380  0.66070  0.77540  Biso   1.000  H
  H156     1.0000 0.67620  0.33930  0.27540  Biso   1.000  H
  H157     1.0000 0.67620  0.16070  0.77540  Biso   1.000  H
  H158     1.0000 0.82380  0.83930  0.27540  Biso   1.000  H
  H159     1.0000 0.17620  0.33930  0.22460  Biso   1.000  H
  H160     1.0000 0.32380  0.66070  0.72460  Biso   1.000  H
  H161     1.0000 0.40110  0.86920  0.26540  Biso   1.000  H
  H162     1.0000 0.09890  0.13080  0.76540  Biso   1.000  H
  H163     1.0000 0.90110  0.63080  0.73460  Biso   1.000  H
  H164     1.0000 0.59890  0.36920  0.23460  Biso   1.000  H
  H165     1.0000 0.59890  0.13080  0.73460  Biso   1.000  H
  H166     1.0000 0.90110  0.86920  0.23460  Biso   1.000  H
  H167     1.0000 0.09890  0.36920  0.26540  Biso   1.000  H
  H168     1.0000 0.40110  0.63080  0.76540  Biso   1.000  H
  C89      1.0000 0.54310  0.66400  0.26370  Biso   1.000  C
  C90      1.0000 0.95690  0.33600  0.76370  Biso   1.000  C
  C91      1.0000 0.04310  0.83600  0.73630  Biso   1.000  C
  C92      1.0000 0.45690  0.16400  0.23630  Biso   1.000  C
  C93      1.0000 0.45690  0.33600  0.73630  Biso   1.000  C
  C94      1.0000 0.04310  0.66400  0.23630  Biso   1.000  C
  C95      1.0000 0.95690  0.16400  0.26370  Biso   1.000  C
  C96      1.0000 0.54310  0.83600  0.76370  Biso   1.000  C
  H169     1.0000 0.49450  0.60570  0.28050  Biso   1.000  H
  H170     1.0000 0.00550  0.39430  0.78050  Biso   1.000  H
  H171     1.0000 0.99450  0.89430  0.71950  Biso   1.000  H
  H172     1.0000 0.50550  0.10570  0.21950  Biso   1.000  H
  H173     1.0000 0.50550  0.39430  0.71950  Biso   1.000  H
  H174     1.0000 0.99450  0.60570  0.21950  Biso   1.000  H
  H175     1.0000 0.00550  0.10570  0.28050  Biso   1.000  H
  H176     1.0000 0.49450  0.89430  0.78050  Biso   1.000  H
  H177     1.0000 0.57360  0.73270  0.28180  Biso   1.000  H
  H178     1.0000 0.92640  0.26730  0.78180  Biso   1.000  H
  H179     1.0000 0.07360  0.76730  0.71820  Biso   1.000  H
  H180     1.0000 0.42640  0.23270  0.21820  Biso   1.000  H
  H181     1.0000 0.42640  0.26730  0.71820  Biso   1.000  H
  H182     1.0000 0.07360  0.73270  0.21820  Biso   1.000  H
  H183     1.0000 0.92640  0.23270  0.28180  Biso   1.000  H
  H184     1.0000 0.57360  0.76730  0.78180  Biso   1.000  H
  H185     1.0000 0.60790  0.61540  0.25150  Biso   1.000  H
  H186     1.0000 0.89210  0.38460  0.75150  Biso   1.000  H
  H187     1.0000 0.10790  0.88460  0.74850  Biso   1.000  H
  H188     1.0000 0.39210  0.11540  0.24850  Biso   1.000  H
  H189     1.0000 0.39210  0.38460  0.74850  Biso   1.000  H
  H190     1.0000 0.10790  0.61540  0.24850  Biso   1.000  H
  H191     1.0000 0.89210  0.11540  0.25150  Biso   1.000  H
  H192     1.0000 0.60790  0.88460  0.75150  Biso   1.000  H
  O65      1.0000 0.74226  0.54420  0.18618  Biso   1.000  O
  O66      1.0000 0.75774  0.45580  0.68618  Biso   1.000  O
  O67      1.0000 0.24226  0.95580  0.81382  Biso   1.000  O
  O68      1.0000 0.25774  0.04420  0.31382  Biso   1.000  O
  O69      1.0000 0.25774  0.45580  0.81382  Biso   1.000  O
  O70      1.0000 0.24226  0.54420  0.31382  Biso   1.000  O
  O71      1.0000 0.75774  0.04420  0.18618  Biso   1.000  O
  O72      1.0000 0.74226  0.95580  0.68618  Biso   1.000  O
  H193     1.0000 0.72300  0.46900  0.17220  Biso   1.000  H
  H194     1.0000 0.77700  0.53100  0.67220  Biso   1.000  H
  H195     1.0000 0.22300  0.03100  0.82780  Biso   1.000  H
  H196     1.0000 0.27700  0.96900  0.32780  Biso   1.000  H
  H197     1.0000 0.27700  0.53100  0.82780  Biso   1.000  H
  H198     1.0000 0.22300  0.46900  0.32780  Biso   1.000  H
  H199     1.0000 0.77700  0.96900  0.17220  Biso   1.000  H
  H200     1.0000 0.72300  0.03100  0.67220  Biso   1.000  H
  H201     1.0000 0.76000  0.60400  0.16470  Biso   1.000  H
  H202     1.0000 0.74000  0.39600  0.66470  Biso   1.000  H
  H203     1.0000 0.26000  0.89600  0.83530  Biso   1.000  H
  H204     1.0000 0.24000  0.10400  0.33530  Biso   1.000  H
  H205     1.0000 0.24000  0.39600  0.83530  Biso   1.000  H
  H206     1.0000 0.26000  0.60400  0.33530  Biso   1.000  H
  H207     1.0000 0.74000  0.10400  0.16470  Biso   1.000  H
  H208     1.0000 0.76000  0.89600  0.66470  Biso   1.000  H
