data_image0
_cell_length_a       11.2462
_cell_length_b       10.1395
_cell_length_c       30.9925
_cell_angle_alpha    90
_cell_angle_beta     90
_cell_angle_gamma    90

_symmetry_space_group_name_H-M    "P 1"
_symmetry_int_tables_number       1

loop_
  _symmetry_equiv_pos_as_xyz
  'x, y, z'

loop_
  _atom_site_label
  _atom_site_occupancy
  _atom_site_fract_x
  _atom_site_fract_y
  _atom_site_fract_z
  _atom_site_thermal_displace_type
  _atom_site_B_iso_or_equiv
  _atom_site_type_symbol
  Cu1      1.0000 0.85350  0.25339  0.38760  Biso   1.000  Cu
  Cu2      1.0000 0.64650  0.74661  0.88760  Biso   1.000  Cu
  Cu3      1.0000 0.14650  0.75339  0.11240  Biso   1.000  Cu
  Cu4      1.0000 0.35350  0.24661  0.61240  Biso   1.000  Cu
  Cu5      1.0000 0.14650  0.74661  0.61240  Biso   1.000  Cu
  Cu6      1.0000 0.35350  0.25339  0.11240  Biso   1.000  Cu
  Cu7      1.0000 0.85350  0.24661  0.88760  Biso   1.000  Cu
  Cu8      1.0000 0.64650  0.75339  0.38760  Biso   1.000  Cu
  O1       1.0000 0.98804  0.17192  0.35612  Biso   1.000  O
  O2       1.0000 0.51196  0.82808  0.85612  Biso   1.000  O
  O3       1.0000 0.01196  0.67192  0.14388  Biso   1.000  O
  O4       1.0000 0.48804  0.32808  0.64388  Biso   1.000  O
  O5       1.0000 0.01196  0.82808  0.64388  Biso   1.000  O
  O6       1.0000 0.48804  0.17192  0.14388  Biso   1.000  O
  O7       1.0000 0.98804  0.32808  0.85612  Biso   1.000  O
  O8       1.0000 0.51196  0.67192  0.35612  Biso   1.000  O
  O9       1.0000 0.97901  0.34287  0.41990  Biso   1.000  O
  O10      1.0000 0.52099  0.65713  0.91990  Biso   1.000  O
  O11      1.0000 0.02099  0.84287  0.08010  Biso   1.000  O
  O12      1.0000 0.47901  0.15713  0.58010  Biso   1.000  O
  O13      1.0000 0.02099  0.65713  0.58010  Biso   1.000  O
  O14      1.0000 0.47901  0.34287  0.08010  Biso   1.000  O
  O15      1.0000 0.97901  0.15713  0.91990  Biso   1.000  O
  O16      1.0000 0.52099  0.84287  0.41990  Biso   1.000  O
  O17      1.0000 0.18395  0.19722  0.35047  Biso   1.000  O
  O18      1.0000 0.31605  0.80278  0.85047  Biso   1.000  O
  O19      1.0000 0.81605  0.69722  0.14953  Biso   1.000  O
  O20      1.0000 0.68395  0.30278  0.64953  Biso   1.000  O
  O21      1.0000 0.81605  0.80278  0.64953  Biso   1.000  O
  O22      1.0000 0.68395  0.19722  0.14953  Biso   1.000  O
  O23      1.0000 0.18395  0.30278  0.85047  Biso   1.000  O
  O24      1.0000 0.31605  0.69722  0.35047  Biso   1.000  O
  O25      1.0000 0.17162  0.38429  0.41397  Biso   1.000  O
  O26      1.0000 0.32838  0.61571  0.91397  Biso   1.000  O
  O27      1.0000 0.82838  0.88429  0.08603  Biso   1.000  O
  O28      1.0000 0.67162  0.11571  0.58603  Biso   1.000  O
  O29      1.0000 0.82838  0.61571  0.58603  Biso   1.000  O
  O30      1.0000 0.67162  0.38429  0.08603  Biso   1.000  O
  O31      1.0000 0.17162  0.11571  0.91397  Biso   1.000  O
  O32      1.0000 0.32838  0.88429  0.41397  Biso   1.000  O
  O33      1.0000 0.73640  0.15054  0.35451  Biso   1.000  O
  O34      1.0000 0.76360  0.84946  0.85451  Biso   1.000  O
  O35      1.0000 0.26360  0.65054  0.14549  Biso   1.000  O
  O36      1.0000 0.23640  0.34946  0.64549  Biso   1.000  O
  O37      1.0000 0.26360  0.84946  0.64549  Biso   1.000  O
  O38      1.0000 0.23640  0.15054  0.14549  Biso   1.000  O
  O39      1.0000 0.73640  0.34946  0.85451  Biso   1.000  O
  O40      1.0000 0.76360  0.65054  0.35451  Biso   1.000  O
  O41      1.0000 0.83163  0.06554  0.42954  Biso   1.000  O
  O42      1.0000 0.66837  0.93446  0.92954  Biso   1.000  O
  O43      1.0000 0.16837  0.56554  0.07046  Biso   1.000  O
  O44      1.0000 0.33163  0.43446  0.57046  Biso   1.000  O
  O45      1.0000 0.16837  0.93446  0.57046  Biso   1.000  O
  O46      1.0000 0.33163  0.06554  0.07046  Biso   1.000  O
  O47      1.0000 0.83163  0.43446  0.92954  Biso   1.000  O
  O48      1.0000 0.66837  0.56554  0.42954  Biso   1.000  O
  O49      1.0000 0.65810  0.95267  0.34413  Biso   1.000  O
  O50      1.0000 0.84190  0.04733  0.84413  Biso   1.000  O
  O51      1.0000 0.34190  0.45267  0.15587  Biso   1.000  O
  O52      1.0000 0.15810  0.54733  0.65587  Biso   1.000  O
  O53      1.0000 0.34190  0.04733  0.65587  Biso   1.000  O
  O54      1.0000 0.15810  0.95267  0.15587  Biso   1.000  O
  O55      1.0000 0.65810  0.54733  0.84413  Biso   1.000  O
  O56      1.0000 0.84190  0.45267  0.34413  Biso   1.000  O
  O57      1.0000 0.76781  0.86257  0.41670  Biso   1.000  O
  O58      1.0000 0.73219  0.13743  0.91670  Biso   1.000  O
  O59      1.0000 0.23219  0.36257  0.08330  Biso   1.000  O
  O60      1.0000 0.26781  0.63743  0.58330  Biso   1.000  O
  O61      1.0000 0.23219  0.13743  0.58330  Biso   1.000  O
  O62      1.0000 0.26781  0.86257  0.08330  Biso   1.000  O
  O63      1.0000 0.76781  0.63743  0.91670  Biso   1.000  O
  O64      1.0000 0.73219  0.36257  0.41670  Biso   1.000  O
  C1       1.0000 0.08675  0.22254  0.36659  Biso   1.000  C
  C2       1.0000 0.41325  0.77746  0.86659  Biso   1.000  C
  C3       1.0000 0.91325  0.72254  0.13341  Biso   1.000  C
  C4       1.0000 0.58675  0.27746  0.63341  Biso   1.000  C
  C5       1.0000 0.91325  0.77746  0.63341  Biso   1.000  C
  C6       1.0000 0.58675  0.22254  0.13341  Biso   1.000  C
  C7       1.0000 0.08675  0.27746  0.86659  Biso   1.000  C
  C8       1.0000 0.41325  0.72254  0.36659  Biso   1.000  C
  C9       1.0000 0.08121  0.32633  0.40338  Biso   1.000  C
  C10      1.0000 0.41879  0.67367  0.90338  Biso   1.000  C
  C11      1.0000 0.91879  0.82633  0.09662  Biso   1.000  C
  C12      1.0000 0.58121  0.17367  0.59662  Biso   1.000  C
  C13      1.0000 0.91879  0.67367  0.59662  Biso   1.000  C
  C14      1.0000 0.58121  0.32633  0.09662  Biso   1.000  C
  C15      1.0000 0.08121  0.17367  0.90338  Biso   1.000  C
  C16      1.0000 0.41879  0.82633  0.40338  Biso   1.000  C
  C17      1.0000 0.71821  0.03150  0.36496  Biso   1.000  C
  C18      1.0000 0.78179  0.96850  0.86496  Biso   1.000  C
  C19      1.0000 0.28179  0.53150  0.13504  Biso   1.000  C
  C20      1.0000 0.21821  0.46850  0.63504  Biso   1.000  C
  C21      1.0000 0.28179  0.96850  0.63504  Biso   1.000  C
  C22      1.0000 0.21821  0.03150  0.13504  Biso   1.000  C
  C23      1.0000 0.71821  0.46850  0.86496  Biso   1.000  C
  C24      1.0000 0.78179  0.53150  0.36496  Biso   1.000  C
  C25      1.0000 0.77765  0.98359  0.40767  Biso   1.000  C
  C26      1.0000 0.72235  0.01641  0.90767  Biso   1.000  C
  C27      1.0000 0.22235  0.48359  0.09233  Biso   1.000  C
  C28      1.0000 0.27765  0.51641  0.59233  Biso   1.000  C
  C29      1.0000 0.22235  0.01641  0.59233  Biso   1.000  C
  C30      1.0000 0.27765  0.98359  0.09233  Biso   1.000  C
  C31      1.0000 0.77765  0.51641  0.90767  Biso   1.000  C
  C32      1.0000 0.72235  0.48359  0.40767  Biso   1.000  C
  O65      1.0000 0.75774  0.45562  0.18638  Biso   1.000  O
  O66      1.0000 0.74226  0.54438  0.68638  Biso   1.000  O
  O67      1.0000 0.24226  0.95562  0.31362  Biso   1.000  O
  O68      1.0000 0.25774  0.04438  0.81362  Biso   1.000  O
  O69      1.0000 0.24226  0.54438  0.81362  Biso   1.000  O
  O70      1.0000 0.25774  0.45562  0.31362  Biso   1.000  O
  O71      1.0000 0.75774  0.04438  0.68638  Biso   1.000  O
  O72      1.0000 0.74226  0.95562  0.18638  Biso   1.000  O
  H1       1.0000 0.77470  0.52100  0.17430  Biso   1.000  H
  H2       1.0000 0.72530  0.47900  0.67430  Biso   1.000  H
  H3       1.0000 0.22530  0.02100  0.32570  Biso   1.000  H
  H4       1.0000 0.27470  0.97900  0.82570  Biso   1.000  H
  H5       1.0000 0.22530  0.47900  0.82570  Biso   1.000  H
  H6       1.0000 0.27470  0.52100  0.32570  Biso   1.000  H
  H7       1.0000 0.77470  0.97900  0.67430  Biso   1.000  H
  H8       1.0000 0.72530  0.02100  0.17430  Biso   1.000  H
  H9       1.0000 0.74400  0.40000  0.16640  Biso   1.000  H
  H10      1.0000 0.75600  0.60000  0.66640  Biso   1.000  H
  H11      1.0000 0.25600  0.90000  0.33360  Biso   1.000  H
  H12      1.0000 0.24400  0.10000  0.83360  Biso   1.000  H
  H13      1.0000 0.25600  0.60000  0.83360  Biso   1.000  H
  H14      1.0000 0.24400  0.40000  0.33360  Biso   1.000  H
  H15      1.0000 0.74400  0.10000  0.66640  Biso   1.000  H
  H16      1.0000 0.75600  0.90000  0.16640  Biso   1.000  H
  N1       1.0000 0.53002  0.27643  0.27163  Biso   1.000  N
  N2       1.0000 0.96998  0.72357  0.77163  Biso   1.000  N
  N3       1.0000 0.46998  0.77643  0.22837  Biso   1.000  N
  N4       1.0000 0.03002  0.22357  0.72837  Biso   1.000  N
  N5       1.0000 0.46998  0.72357  0.72837  Biso   1.000  N
  N6       1.0000 0.03002  0.27643  0.22837  Biso   1.000  N
  N7       1.0000 0.53002  0.22357  0.77163  Biso   1.000  N
  N8       1.0000 0.96998  0.77643  0.27163  Biso   1.000  N
  C33      1.0000 0.45710  0.33590  0.23631  Biso   1.000  C
  C34      1.0000 0.04290  0.66410  0.73631  Biso   1.000  C
  C35      1.0000 0.54290  0.83590  0.26369  Biso   1.000  C
  C36      1.0000 0.95710  0.16410  0.76369  Biso   1.000  C
  C37      1.0000 0.54290  0.66410  0.76369  Biso   1.000  C
  C38      1.0000 0.95710  0.33590  0.26369  Biso   1.000  C
  C39      1.0000 0.45710  0.16410  0.73631  Biso   1.000  C
  C40      1.0000 0.04290  0.83590  0.23631  Biso   1.000  C
  C41      1.0000 0.45490  0.18560  0.29757  Biso   1.000  C
  C42      1.0000 0.04510  0.81440  0.79757  Biso   1.000  C
  C43      1.0000 0.54510  0.68560  0.20243  Biso   1.000  C
  C44      1.0000 0.95490  0.31440  0.70243  Biso   1.000  C
  C45      1.0000 0.54510  0.81440  0.70243  Biso   1.000  C
  C46      1.0000 0.95490  0.18560  0.20243  Biso   1.000  C
  C47      1.0000 0.45490  0.31440  0.79757  Biso   1.000  C
  C48      1.0000 0.04510  0.68560  0.29757  Biso   1.000  C
  C49      1.0000 0.62990  0.19940  0.25239  Biso   1.000  C
  C50      1.0000 0.87010  0.80060  0.75239  Biso   1.000  C
  C51      1.0000 0.37010  0.69940  0.24761  Biso   1.000  C
  C52      1.0000 0.12990  0.30060  0.74761  Biso   1.000  C
  C53      1.0000 0.37010  0.80060  0.74761  Biso   1.000  C
  C54      1.0000 0.12990  0.19940  0.24761  Biso   1.000  C
  C55      1.0000 0.62990  0.30060  0.75239  Biso   1.000  C
  C56      1.0000 0.87010  0.69940  0.25239  Biso   1.000  C
  C57      1.0000 0.57740  0.38190  0.30013  Biso   1.000  C
  C58      1.0000 0.92260  0.61810  0.80013  Biso   1.000  C
  C59      1.0000 0.42260  0.88190  0.19987  Biso   1.000  C
  C60      1.0000 0.07740  0.11810  0.69987  Biso   1.000  C
  C61      1.0000 0.42260  0.61810  0.69987  Biso   1.000  C
  C62      1.0000 0.07740  0.38190  0.19987  Biso   1.000  C
  C63      1.0000 0.57740  0.11810  0.80013  Biso   1.000  C
  C64      1.0000 0.92260  0.88190  0.30013  Biso   1.000  C
  H17      1.0000 0.39180  0.38420  0.25160  Biso   1.000  H
  H18      1.0000 0.10820  0.61580  0.75160  Biso   1.000  H
  H19      1.0000 0.60820  0.88420  0.24840  Biso   1.000  H
  H20      1.0000 0.89180  0.11580  0.74840  Biso   1.000  H
  H21      1.0000 0.60820  0.61580  0.74840  Biso   1.000  H
  H22      1.0000 0.89180  0.38420  0.24840  Biso   1.000  H
  H23      1.0000 0.39180  0.11580  0.75160  Biso   1.000  H
  H24      1.0000 0.10820  0.88420  0.25160  Biso   1.000  H
  H25      1.0000 0.42420  0.26350  0.21970  Biso   1.000  H
  H26      1.0000 0.07580  0.73650  0.71970  Biso   1.000  H
  H27      1.0000 0.57580  0.76350  0.28030  Biso   1.000  H
  H28      1.0000 0.92420  0.23650  0.78030  Biso   1.000  H
  H29      1.0000 0.57580  0.73650  0.78030  Biso   1.000  H
  H30      1.0000 0.92420  0.26350  0.28030  Biso   1.000  H
  H31      1.0000 0.42420  0.23650  0.71970  Biso   1.000  H
  H32      1.0000 0.07580  0.76350  0.21970  Biso   1.000  H
  H33      1.0000 0.50680  0.39190  0.21960  Biso   1.000  H
  H34      1.0000 0.99320  0.60810  0.71960  Biso   1.000  H
  H35      1.0000 0.49320  0.89190  0.28040  Biso   1.000  H
  H36      1.0000 0.00680  0.10810  0.78040  Biso   1.000  H
  H37      1.0000 0.49320  0.60810  0.78040  Biso   1.000  H
  H38      1.0000 0.00680  0.39190  0.28040  Biso   1.000  H
  H39      1.0000 0.50680  0.10810  0.71960  Biso   1.000  H
  H40      1.0000 0.99320  0.89190  0.21960  Biso   1.000  H
  H41      1.0000 0.50640  0.14240  0.31850  Biso   1.000  H
  H42      1.0000 0.99360  0.85760  0.81850  Biso   1.000  H
  H43      1.0000 0.49360  0.64240  0.18150  Biso   1.000  H
  H44      1.0000 0.00640  0.35760  0.68150  Biso   1.000  H
  H45      1.0000 0.49360  0.85760  0.68150  Biso   1.000  H
  H46      1.0000 0.00640  0.14240  0.18150  Biso   1.000  H
  H47      1.0000 0.50640  0.35760  0.81850  Biso   1.000  H
  H48      1.0000 0.99360  0.64240  0.31850  Biso   1.000  H
  H49      1.0000 0.39980  0.23230  0.30980  Biso   1.000  H
  H50      1.0000 0.10020  0.76770  0.80980  Biso   1.000  H
  H51      1.0000 0.60020  0.73230  0.19020  Biso   1.000  H
  H52      1.0000 0.89980  0.26770  0.69020  Biso   1.000  H
  H53      1.0000 0.60020  0.76770  0.69020  Biso   1.000  H
  H54      1.0000 0.89980  0.23230  0.19020  Biso   1.000  H
  H55      1.0000 0.39980  0.26770  0.80980  Biso   1.000  H
  H56      1.0000 0.10020  0.73230  0.30980  Biso   1.000  H
  H57      1.0000 0.42040  0.12700  0.27720  Biso   1.000  H
  H58      1.0000 0.07960  0.87300  0.77720  Biso   1.000  H
  H59      1.0000 0.57960  0.62700  0.22280  Biso   1.000  H
  H60      1.0000 0.92040  0.37300  0.72280  Biso   1.000  H
  H61      1.0000 0.57960  0.87300  0.72280  Biso   1.000  H
  H62      1.0000 0.92040  0.12700  0.22280  Biso   1.000  H
  H63      1.0000 0.42040  0.37300  0.77720  Biso   1.000  H
  H64      1.0000 0.07960  0.62700  0.27720  Biso   1.000  H
  H65      1.0000 0.67250  0.16220  0.27380  Biso   1.000  H
  H66      1.0000 0.82750  0.83780  0.77380  Biso   1.000  H
  H67      1.0000 0.32750  0.66220  0.22620  Biso   1.000  H
  H68      1.0000 0.17250  0.33780  0.72620  Biso   1.000  H
  H69      1.0000 0.32750  0.83780  0.72620  Biso   1.000  H
  H70      1.0000 0.17250  0.16220  0.22620  Biso   1.000  H
  H71      1.0000 0.67250  0.33780  0.77380  Biso   1.000  H
  H72      1.0000 0.82750  0.66220  0.27380  Biso   1.000  H
  H73      1.0000 0.67940  0.26090  0.23880  Biso   1.000  H
  H74      1.0000 0.82060  0.73910  0.73880  Biso   1.000  H
  H75      1.0000 0.32060  0.76090  0.26120  Biso   1.000  H
  H76      1.0000 0.17940  0.23910  0.76120  Biso   1.000  H
  H77      1.0000 0.32060  0.73910  0.76120  Biso   1.000  H
  H78      1.0000 0.17940  0.26090  0.26120  Biso   1.000  H
  H79      1.0000 0.67940  0.23910  0.73880  Biso   1.000  H
  H80      1.0000 0.82060  0.76090  0.23880  Biso   1.000  H
  H81      1.0000 0.59810  0.13600  0.23660  Biso   1.000  H
  H82      1.0000 0.90190  0.86400  0.73660  Biso   1.000  H
  H83      1.0000 0.40190  0.63600  0.26340  Biso   1.000  H
  H84      1.0000 0.09810  0.36400  0.76340  Biso   1.000  H
  H85      1.0000 0.40190  0.86400  0.76340  Biso   1.000  H
  H86      1.0000 0.09810  0.13600  0.26340  Biso   1.000  H
  H87      1.0000 0.59810  0.36400  0.73660  Biso   1.000  H
  H88      1.0000 0.90190  0.63600  0.23660  Biso   1.000  H
  H89      1.0000 0.50600  0.43600  0.31310  Biso   1.000  H
  H90      1.0000 0.99400  0.56400  0.81310  Biso   1.000  H
  H91      1.0000 0.49400  0.93600  0.18690  Biso   1.000  H
  H92      1.0000 0.00600  0.06400  0.68690  Biso   1.000  H
  H93      1.0000 0.49400  0.56400  0.68690  Biso   1.000  H
  H94      1.0000 0.00600  0.43600  0.18690  Biso   1.000  H
  H95      1.0000 0.50600  0.06400  0.81310  Biso   1.000  H
  H96      1.0000 0.99400  0.93600  0.31310  Biso   1.000  H
  H97      1.0000 0.62220  0.34200  0.32330  Biso   1.000  H
  H98      1.0000 0.87780  0.65800  0.82330  Biso   1.000  H
  H99      1.0000 0.37780  0.84200  0.17670  Biso   1.000  H
  H100     1.0000 0.12220  0.15800  0.67670  Biso   1.000  H
  H101     1.0000 0.37780  0.65800  0.67670  Biso   1.000  H
  H102     1.0000 0.12220  0.34200  0.17670  Biso   1.000  H
  H103     1.0000 0.62220  0.15800  0.82330  Biso   1.000  H
  H104     1.0000 0.87780  0.84200  0.32330  Biso   1.000  H
  H105     1.0000 0.62860  0.43100  0.28170  Biso   1.000  H
  H106     1.0000 0.87140  0.56900  0.78170  Biso   1.000  H
  H107     1.0000 0.37140  0.93100  0.21830  Biso   1.000  H
  H108     1.0000 0.12860  0.06900  0.71830  Biso   1.000  H
  H109     1.0000 0.37140  0.56900  0.71830  Biso   1.000  H
  H110     1.0000 0.12860  0.43100  0.21830  Biso   1.000  H
  H111     1.0000 0.62860  0.06900  0.78170  Biso   1.000  H
  H112     1.0000 0.87140  0.93100  0.28170  Biso   1.000  H
  N9       1.0000 0.44103  0.22543  0.45746  Biso   1.000  N
  N10      1.0000 0.05897  0.77457  0.95746  Biso   1.000  N
  N11      1.0000 0.55897  0.72543  0.04254  Biso   1.000  N
  N12      1.0000 0.94103  0.27457  0.54254  Biso   1.000  N
  N13      1.0000 0.55897  0.77457  0.54254  Biso   1.000  N
  N14      1.0000 0.94103  0.22543  0.04254  Biso   1.000  N
  N15      1.0000 0.44103  0.27457  0.95746  Biso   1.000  N
  N16      1.0000 0.05897  0.72543  0.45746  Biso   1.000  N
  C65      1.0000 0.43810  0.22040  0.40945  Biso   1.000  C
  C66      1.0000 0.06190  0.77960  0.90945  Biso   1.000  C
  C67      1.0000 0.56190  0.72040  0.09055  Biso   1.000  C
  C68      1.0000 0.93810  0.27960  0.59055  Biso   1.000  C
  C69      1.0000 0.56190  0.77960  0.59055  Biso   1.000  C
  C70      1.0000 0.93810  0.22040  0.09055  Biso   1.000  C
  C71      1.0000 0.43810  0.27960  0.90945  Biso   1.000  C
  C72      1.0000 0.06190  0.72040  0.40945  Biso   1.000  C
  C73      1.0000 0.44350  0.36440  0.47218  Biso   1.000  C
  C74      1.0000 0.05650  0.63560  0.97218  Biso   1.000  C
  C75      1.0000 0.55650  0.86440  0.02782  Biso   1.000  C
  C76      1.0000 0.94350  0.13560  0.52782  Biso   1.000  C
  C77      1.0000 0.55650  0.63560  0.52782  Biso   1.000  C
  C78      1.0000 0.94350  0.36440  0.02782  Biso   1.000  C
  C79      1.0000 0.44350  0.13560  0.97218  Biso   1.000  C
  C80      1.0000 0.05650  0.86440  0.47218  Biso   1.000  C
  C81      1.0000 0.33310  0.15860  0.47515  Biso   1.000  C
  C82      1.0000 0.16690  0.84140  0.97515  Biso   1.000  C
  C83      1.0000 0.66690  0.65860  0.02485  Biso   1.000  C
  C84      1.0000 0.83310  0.34140  0.52485  Biso   1.000  C
  C85      1.0000 0.66690  0.84140  0.52485  Biso   1.000  C
  C86      1.0000 0.83310  0.15860  0.02485  Biso   1.000  C
  C87      1.0000 0.33310  0.34140  0.97515  Biso   1.000  C
  C88      1.0000 0.16690  0.65860  0.47515  Biso   1.000  C
  C89      1.0000 0.54970  0.15440  0.47224  Biso   1.000  C
  C90      1.0000 0.95030  0.84560  0.97224  Biso   1.000  C
  C91      1.0000 0.45030  0.65440  0.02776  Biso   1.000  C
  C92      1.0000 0.04970  0.34560  0.52776  Biso   1.000  C
  C93      1.0000 0.45030  0.84560  0.52776  Biso   1.000  C
  C94      1.0000 0.04970  0.15440  0.02776  Biso   1.000  C
  C95      1.0000 0.54970  0.34560  0.97224  Biso   1.000  C
  C96      1.0000 0.95030  0.65440  0.47224  Biso   1.000  C
  H113     1.0000 0.38700  0.27100  0.40040  Biso   1.000  H
  H114     1.0000 0.11300  0.72900  0.90040  Biso   1.000  H
  H115     1.0000 0.61300  0.77100  0.09960  Biso   1.000  H
  H116     1.0000 0.88700  0.22900  0.59960  Biso   1.000  H
  H117     1.0000 0.61300  0.72900  0.59960  Biso   1.000  H
  H118     1.0000 0.88700  0.27100  0.09960  Biso   1.000  H
  H119     1.0000 0.38700  0.22900  0.90040  Biso   1.000  H
  H120     1.0000 0.11300  0.77100  0.40040  Biso   1.000  H
  H121     1.0000 0.49600  0.25970  0.39870  Biso   1.000  H
  H122     1.0000 0.00400  0.74030  0.89870  Biso   1.000  H
  H123     1.0000 0.50400  0.75970  0.10130  Biso   1.000  H
  H124     1.0000 0.99600  0.24030  0.60130  Biso   1.000  H
  H125     1.0000 0.50400  0.74030  0.60130  Biso   1.000  H
  H126     1.0000 0.99600  0.25970  0.10130  Biso   1.000  H
  H127     1.0000 0.49600  0.24030  0.89870  Biso   1.000  H
  H128     1.0000 0.00400  0.75970  0.39870  Biso   1.000  H
  H129     1.0000 0.43590  0.13100  0.40130  Biso   1.000  H
  H130     1.0000 0.06410  0.86900  0.90130  Biso   1.000  H
  H131     1.0000 0.56410  0.63100  0.09870  Biso   1.000  H
  H132     1.0000 0.93590  0.36900  0.59870  Biso   1.000  H
  H133     1.0000 0.56410  0.86900  0.59870  Biso   1.000  H
  H134     1.0000 0.93590  0.13100  0.09870  Biso   1.000  H
  H135     1.0000 0.43590  0.36900  0.90130  Biso   1.000  H
  H136     1.0000 0.06410  0.63100  0.40130  Biso   1.000  H
  H137     1.0000 0.43800  0.36200  0.50160  Biso   1.000  H
  H138     1.0000 0.06200  0.63800  0.00160  Biso   1.000  H
  H139     1.0000 0.56200  0.86200  0.99840  Biso   1.000  H
  H140     1.0000 0.93800  0.13800  0.49840  Biso   1.000  H
  H141     1.0000 0.56200  0.63800  0.49840  Biso   1.000  H
  H142     1.0000 0.93800  0.36200  0.99840  Biso   1.000  H
  H143     1.0000 0.43800  0.13800  0.00160  Biso   1.000  H
  H144     1.0000 0.06200  0.86200  0.50160  Biso   1.000  H
  H145     1.0000 0.51780  0.39600  0.46230  Biso   1.000  H
  H146     1.0000 0.98220  0.60400  0.96230  Biso   1.000  H
  H147     1.0000 0.48220  0.89600  0.03770  Biso   1.000  H
  H148     1.0000 0.01780  0.10400  0.53770  Biso   1.000  H
  H149     1.0000 0.48220  0.60400  0.53770  Biso   1.000  H
  H150     1.0000 0.01780  0.39600  0.03770  Biso   1.000  H
  H151     1.0000 0.51780  0.10400  0.96230  Biso   1.000  H
  H152     1.0000 0.98220  0.89600  0.46230  Biso   1.000  H
  H153     1.0000 0.37640  0.40400  0.46040  Biso   1.000  H
  H154     1.0000 0.12360  0.59600  0.96040  Biso   1.000  H
  H155     1.0000 0.62360  0.90400  0.03960  Biso   1.000  H
  H156     1.0000 0.87640  0.09600  0.53960  Biso   1.000  H
  H157     1.0000 0.62360  0.59600  0.53960  Biso   1.000  H
  H158     1.0000 0.87640  0.40400  0.03960  Biso   1.000  H
  H159     1.0000 0.37640  0.09600  0.96040  Biso   1.000  H
  H160     1.0000 0.12360  0.90400  0.46040  Biso   1.000  H
  H161     1.0000 0.26700  0.20910  0.46490  Biso   1.000  H
  H162     1.0000 0.23300  0.79090  0.96490  Biso   1.000  H
  H163     1.0000 0.73300  0.70910  0.03510  Biso   1.000  H
  H164     1.0000 0.76700  0.29090  0.53510  Biso   1.000  H
  H165     1.0000 0.73300  0.79090  0.53510  Biso   1.000  H
  H166     1.0000 0.76700  0.20910  0.03510  Biso   1.000  H
  H167     1.0000 0.26700  0.29090  0.96490  Biso   1.000  H
  H168     1.0000 0.23300  0.70910  0.46490  Biso   1.000  H
  H169     1.0000 0.33480  0.07000  0.46550  Biso   1.000  H
  H170     1.0000 0.16520  0.93000  0.96550  Biso   1.000  H
  H171     1.0000 0.66520  0.57000  0.03450  Biso   1.000  H
  H172     1.0000 0.83480  0.43000  0.53450  Biso   1.000  H
  H173     1.0000 0.66520  0.93000  0.53450  Biso   1.000  H
  H174     1.0000 0.83480  0.07000  0.03450  Biso   1.000  H
  H175     1.0000 0.33480  0.43000  0.96550  Biso   1.000  H
  H176     1.0000 0.16520  0.57000  0.46550  Biso   1.000  H
  H177     1.0000 0.33670  0.16140  0.50580  Biso   1.000  H
  H178     1.0000 0.16330  0.83860  0.00580  Biso   1.000  H
  H179     1.0000 0.66330  0.66140  0.99420  Biso   1.000  H
  H180     1.0000 0.83670  0.33860  0.49420  Biso   1.000  H
  H181     1.0000 0.66330  0.83860  0.49420  Biso   1.000  H
  H182     1.0000 0.83670  0.16140  0.99420  Biso   1.000  H
  H183     1.0000 0.33670  0.33860  0.00580  Biso   1.000  H
  H184     1.0000 0.16330  0.66140  0.50580  Biso   1.000  H
  H185     1.0000 0.54400  0.06700  0.46110  Biso   1.000  H
  H186     1.0000 0.95600  0.93300  0.96110  Biso   1.000  H
  H187     1.0000 0.45600  0.56700  0.03890  Biso   1.000  H
  H188     1.0000 0.04400  0.43300  0.53890  Biso   1.000  H
  H189     1.0000 0.45600  0.93300  0.53890  Biso   1.000  H
  H190     1.0000 0.04400  0.06700  0.03890  Biso   1.000  H
  H191     1.0000 0.54400  0.43300  0.96110  Biso   1.000  H
  H192     1.0000 0.95600  0.56700  0.46110  Biso   1.000  H
  H193     1.0000 0.55120  0.15800  0.50280  Biso   1.000  H
  H194     1.0000 0.94880  0.84200  0.00280  Biso   1.000  H
  H195     1.0000 0.44880  0.65800  0.99720  Biso   1.000  H
  H196     1.0000 0.05120  0.34200  0.49720  Biso   1.000  H
  H197     1.0000 0.44880  0.84200  0.49720  Biso   1.000  H
  H198     1.0000 0.05120  0.15800  0.99720  Biso   1.000  H
  H199     1.0000 0.55120  0.34200  0.00280  Biso   1.000  H
  H200     1.0000 0.94880  0.65800  0.50280  Biso   1.000  H
  H201     1.0000 0.61450  0.20200  0.46240  Biso   1.000  H
  H202     1.0000 0.88550  0.79800  0.96240  Biso   1.000  H
  H203     1.0000 0.38550  0.70200  0.03760  Biso   1.000  H
  H204     1.0000 0.11450  0.29800  0.53760  Biso   1.000  H
  H205     1.0000 0.38550  0.79800  0.53760  Biso   1.000  H
  H206     1.0000 0.11450  0.20200  0.03760  Biso   1.000  H
  H207     1.0000 0.61450  0.29800  0.96240  Biso   1.000  H
  H208     1.0000 0.88550  0.70200  0.46240  Biso   1.000  H
