data_image0
_cell_length_a       7.5013
_cell_length_b       10.6346
_cell_length_c       19.0648
_cell_angle_alpha    90
_cell_angle_beta     96.653
_cell_angle_gamma    90

_symmetry_space_group_name_H-M    "P 1"
_symmetry_int_tables_number       1

loop_
  _symmetry_equiv_pos_as_xyz
  'x, y, z'

loop_
  _atom_site_label
  _atom_site_occupancy
  _atom_site_fract_x
  _atom_site_fract_y
  _atom_site_fract_z
  _atom_site_thermal_displace_type
  _atom_site_B_iso_or_equiv
  _atom_site_type_symbol
  Cu1      1.0000 0.28329  0.74438  0.63842  Biso   1.000  Cu
  Cu2      1.0000 0.71671  0.24438  0.86158  Biso   1.000  Cu
  Cu3      1.0000 0.71671  0.25562  0.36158  Biso   1.000  Cu
  Cu4      1.0000 0.28329  0.75562  0.13842  Biso   1.000  Cu
  O1       1.0000 0.50640  0.73219  0.70162  Biso   1.000  O
  O2       1.0000 0.49360  0.23219  0.79838  Biso   1.000  O
  O3       1.0000 0.49360  0.26781  0.29838  Biso   1.000  O
  O4       1.0000 0.50640  0.76781  0.20162  Biso   1.000  O
  O5       1.0000 0.05080  0.72486  0.57892  Biso   1.000  O
  O6       1.0000 0.94920  0.22486  0.92108  Biso   1.000  O
  O7       1.0000 0.94920  0.27514  0.42108  Biso   1.000  O
  O8       1.0000 0.05080  0.77514  0.07892  Biso   1.000  O
  N1       1.0000 0.44450  0.68900  0.56720  Biso   1.000  N
  N2       1.0000 0.55550  0.18900  0.93280  Biso   1.000  N
  N3       1.0000 0.55550  0.31100  0.43280  Biso   1.000  N
  N4       1.0000 0.44450  0.81100  0.06720  Biso   1.000  N
  O9       1.0000 0.80040  0.72200  0.70287  Biso   1.000  O
  O10      1.0000 0.19960  0.22200  0.79713  Biso   1.000  O
  O11      1.0000 0.19960  0.27800  0.29713  Biso   1.000  O
  O12      1.0000 0.80040  0.77800  0.20287  Biso   1.000  O
  N5       1.0000 0.15780  0.80290  0.71914  Biso   1.000  N
  N6       1.0000 0.84220  0.30290  0.78086  Biso   1.000  N
  N7       1.0000 0.84220  0.19710  0.28086  Biso   1.000  N
  N8       1.0000 0.15780  0.69710  0.21914  Biso   1.000  N
  H1       1.0000 0.03820  0.79270  0.70580  Biso   1.000  H
  H2       1.0000 0.96180  0.29270  0.79420  Biso   1.000  H
  H3       1.0000 0.96180  0.20730  0.29420  Biso   1.000  H
  H4       1.0000 0.03820  0.70730  0.20580  Biso   1.000  H
  C1       1.0000 0.61750  0.68060  0.59492  Biso   1.000  C
  C2       1.0000 0.38250  0.18060  0.90508  Biso   1.000  C
  C3       1.0000 0.38250  0.31940  0.40508  Biso   1.000  C
  C4       1.0000 0.61750  0.81940  0.09492  Biso   1.000  C
  C5       1.0000 0.64780  0.71280  0.67276  Biso   1.000  C
  C6       1.0000 0.35220  0.21280  0.82724  Biso   1.000  C
  C7       1.0000 0.35220  0.28720  0.32724  Biso   1.000  C
  C8       1.0000 0.64780  0.78720  0.17276  Biso   1.000  C
  C9       1.0000 0.75390  0.64960  0.55460  Biso   1.000  C
  C10      1.0000 0.24610  0.14960  0.94540  Biso   1.000  C
  C11      1.0000 0.24610  0.35040  0.44540  Biso   1.000  C
  C12      1.0000 0.75390  0.85040  0.05460  Biso   1.000  C
  C13      1.0000 0.52960  0.63950  0.45443  Biso   1.000  C
  C14      1.0000 0.47040  0.13950  0.04557  Biso   1.000  C
  C15      1.0000 0.47040  0.36050  0.54557  Biso   1.000  C
  C16      1.0000 0.52960  0.86050  0.95443  Biso   1.000  C
  H5       1.0000 0.49740  0.62680  0.40640  Biso   1.000  H
  H6       1.0000 0.50260  0.12680  0.09360  Biso   1.000  H
  H7       1.0000 0.50260  0.37320  0.59360  Biso   1.000  H
  H8       1.0000 0.49740  0.87320  0.90640  Biso   1.000  H
  C17      1.0000 0.40090  0.66800  0.49798  Biso   1.000  C
  C18      1.0000 0.59910  0.16800  0.00202  Biso   1.000  C
  C19      1.0000 0.59910  0.33200  0.50202  Biso   1.000  C
  C20      1.0000 0.40090  0.83200  0.99798  Biso   1.000  C
  H9       1.0000 0.28120  0.67290  0.47890  Biso   1.000  H
  H10      1.0000 0.71880  0.17290  0.02110  Biso   1.000  H
  H11      1.0000 0.71880  0.32710  0.52110  Biso   1.000  H
  H12      1.0000 0.28120  0.82710  0.97890  Biso   1.000  H
  C21      1.0000 0.70630  0.62980  0.48279  Biso   1.000  C
  C22      1.0000 0.29370  0.12980  0.01721  Biso   1.000  C
  C23      1.0000 0.29370  0.37020  0.51721  Biso   1.000  C
  C24      1.0000 0.70630  0.87020  0.98279  Biso   1.000  C
  H13      1.0000 0.79400  0.61010  0.45390  Biso   1.000  H
  H14      1.0000 0.20600  0.11010  0.04610  Biso   1.000  H
  H15      1.0000 0.20600  0.38990  0.54610  Biso   1.000  H
  H16      1.0000 0.79400  0.88990  0.95390  Biso   1.000  H
  N9       1.0000 0.29780  0.95650  0.61271  Biso   1.000  N
  N10      1.0000 0.70220  0.45650  0.88729  Biso   1.000  N
  N11      1.0000 0.70220  0.04350  0.38729  Biso   1.000  N
  N12      1.0000 0.29780  0.54350  0.11271  Biso   1.000  N
  C25      1.0000 0.19850  0.73580  0.78654  Biso   1.000  C
  C26      1.0000 0.80150  0.23580  0.71346  Biso   1.000  C
  C27      1.0000 0.80150  0.26420  0.21346  Biso   1.000  C
  C28      1.0000 0.19850  0.76420  0.28654  Biso   1.000  C
  H17      1.0000 0.16970  0.64830  0.77980  Biso   1.000  H
  H18      1.0000 0.83030  0.14830  0.72020  Biso   1.000  H
  H19      1.0000 0.83030  0.35170  0.22020  Biso   1.000  H
  H20      1.0000 0.16970  0.85170  0.27980  Biso   1.000  H
  H21      1.0000 0.12860  0.77070  0.82090  Biso   1.000  H
  H22      1.0000 0.87140  0.27070  0.67910  Biso   1.000  H
  H23      1.0000 0.87140  0.22930  0.17910  Biso   1.000  H
  H24      1.0000 0.12860  0.72930  0.32090  Biso   1.000  H
  H25      1.0000 0.32390  0.74440  0.80290  Biso   1.000  H
  H26      1.0000 0.67610  0.24440  0.69710  Biso   1.000  H
  H27      1.0000 0.67610  0.25560  0.19710  Biso   1.000  H
  H28      1.0000 0.32390  0.75560  0.30290  Biso   1.000  H
  C29      1.0000 0.18830  0.93930  0.72840  Biso   1.000  C
  C30      1.0000 0.81170  0.43930  0.77160  Biso   1.000  C
  C31      1.0000 0.81170  0.06070  0.27160  Biso   1.000  C
  C32      1.0000 0.18830  0.56070  0.22840  Biso   1.000  C
  H29      1.0000 0.30860  0.95410  0.75150  Biso   1.000  H
  H30      1.0000 0.69140  0.45410  0.74850  Biso   1.000  H
  H31      1.0000 0.69140  0.04590  0.24850  Biso   1.000  H
  H32      1.0000 0.30860  0.54590  0.25150  Biso   1.000  H
  H33      1.0000 0.10360  0.97360  0.75820  Biso   1.000  H
  H34      1.0000 0.89640  0.47360  0.74180  Biso   1.000  H
  H35      1.0000 0.89640  0.02640  0.24180  Biso   1.000  H
  H36      1.0000 0.10360  0.52640  0.25820  Biso   1.000  H
  C33      1.0000 0.23960  0.98330  0.53854  Biso   1.000  C
  C34      1.0000 0.76040  0.48330  0.96146  Biso   1.000  C
  C35      1.0000 0.76040  0.01670  0.46146  Biso   1.000  C
  C36      1.0000 0.23960  0.51670  0.03854  Biso   1.000  C
  H37      1.0000 0.32920  0.95460  0.51020  Biso   1.000  H
  H38      1.0000 0.67080  0.45460  0.98980  Biso   1.000  H
  H39      1.0000 0.67080  0.04540  0.48980  Biso   1.000  H
  H40      1.0000 0.32920  0.54540  0.01020  Biso   1.000  H
  H41      1.0000 0.22260  0.07220  0.53230  Biso   1.000  H
  H42      1.0000 0.77740  0.57220  0.96770  Biso   1.000  H
  H43      1.0000 0.77740  0.92780  0.46770  Biso   1.000  H
  H44      1.0000 0.22260  0.42780  0.03230  Biso   1.000  H
  H45      1.0000 0.12850  0.94050  0.52440  Biso   1.000  H
  H46      1.0000 0.87150  0.44050  0.97560  Biso   1.000  H
  H47      1.0000 0.87150  0.05950  0.47560  Biso   1.000  H
  H48      1.0000 0.12850  0.55950  0.02440  Biso   1.000  H
  C37      1.0000 0.47430  0.01290  0.63260  Biso   1.000  C
  C38      1.0000 0.52570  0.51290  0.86740  Biso   1.000  C
  C39      1.0000 0.52570  0.98710  0.36740  Biso   1.000  C
  C40      1.0000 0.47430  0.48710  0.13260  Biso   1.000  C
  H49      1.0000 0.50770  0.00240  0.68240  Biso   1.000  H
  H50      1.0000 0.49230  0.50240  0.81760  Biso   1.000  H
  H51      1.0000 0.49230  0.99760  0.31760  Biso   1.000  H
  H52      1.0000 0.50770  0.49760  0.18240  Biso   1.000  H
  H53      1.0000 0.46950  0.10100  0.62140  Biso   1.000  H
  H54      1.0000 0.53050  0.60100  0.87860  Biso   1.000  H
  H55      1.0000 0.53050  0.89900  0.37860  Biso   1.000  H
  H56      1.0000 0.46950  0.39900  0.12140  Biso   1.000  H
  H57      1.0000 0.56140  0.97250  0.60710  Biso   1.000  H
  H58      1.0000 0.43860  0.47250  0.89290  Biso   1.000  H
  H59      1.0000 0.43860  0.02750  0.39290  Biso   1.000  H
  H60      1.0000 0.56140  0.52750  0.10710  Biso   1.000  H
  C41      1.0000 0.16500  0.00350  0.65770  Biso   1.000  C
  C42      1.0000 0.83500  0.50350  0.84230  Biso   1.000  C
  C43      1.0000 0.83500  0.99650  0.34230  Biso   1.000  C
  C44      1.0000 0.16500  0.49650  0.15770  Biso   1.000  C
  H61      1.0000 0.04490  0.98810  0.63460  Biso   1.000  H
  H62      1.0000 0.95510  0.48810  0.86540  Biso   1.000  H
  H63      1.0000 0.95510  0.01190  0.36540  Biso   1.000  H
  H64      1.0000 0.04490  0.51190  0.13460  Biso   1.000  H
  H65      1.0000 0.17970  0.09350  0.66420  Biso   1.000  H
  H66      1.0000 0.82030  0.59350  0.83580  Biso   1.000  H
  H67      1.0000 0.82030  0.90650  0.33580  Biso   1.000  H
  H68      1.0000 0.17970  0.40650  0.16420  Biso   1.000  H
  O13      1.0000 0.99120  0.52930  0.61272  Biso   1.000  O
  O14      1.0000 0.00880  0.02930  0.88728  Biso   1.000  O
  O15      1.0000 0.00880  0.47070  0.38728  Biso   1.000  O
  O16      1.0000 0.99120  0.97070  0.11272  Biso   1.000  O
  C45      1.0000 0.94840  0.63200  0.58635  Biso   1.000  C
  C46      1.0000 0.05160  0.13200  0.91365  Biso   1.000  C
  C47      1.0000 0.05160  0.36800  0.41365  Biso   1.000  C
  C48      1.0000 0.94840  0.86800  0.08635  Biso   1.000  C
  O17      1.0000 0.30410  0.42850  0.69164  Biso   1.000  O
  O18      1.0000 0.69590  0.92850  0.80836  Biso   1.000  O
  O19      1.0000 0.69590  0.57150  0.30836  Biso   1.000  O
  O20      1.0000 0.30410  0.07150  0.19164  Biso   1.000  O
  H69      1.0000 0.27100  0.35800  0.70500  Biso   1.000  H
  H70      1.0000 0.72900  0.85800  0.79500  Biso   1.000  H
  H71      1.0000 0.72900  0.64200  0.29500  Biso   1.000  H
  H72      1.0000 0.27100  0.14200  0.20500  Biso   1.000  H
  H73      1.0000 0.19600  0.46100  0.67300  Biso   1.000  H
  H74      1.0000 0.80400  0.96100  0.82700  Biso   1.000  H
  H75      1.0000 0.80400  0.53900  0.32700  Biso   1.000  H
  H76      1.0000 0.19600  0.03900  0.17300  Biso   1.000  H
