data_image0
_cell_length_a       10.286
_cell_length_b       13.701
_cell_length_c       21.974
_cell_angle_alpha    90
_cell_angle_beta     93.24
_cell_angle_gamma    90

_symmetry_space_group_name_H-M    "P 1"
_symmetry_int_tables_number       1

loop_
  _symmetry_equiv_pos_as_xyz
  'x, y, z'

loop_
  _atom_site_label
  _atom_site_occupancy
  _atom_site_fract_x
  _atom_site_fract_y
  _atom_site_fract_z
  _atom_site_thermal_displace_type
  _atom_site_B_iso_or_equiv
  _atom_site_type_symbol
  Cu1      1.0000 0.54900  0.08029  0.60400  Biso   1.000  Cu
  Cu2      1.0000 0.54900  0.91971  0.10400  Biso   1.000  Cu
  Cu3      1.0000 0.04900  0.58029  0.60400  Biso   1.000  Cu
  Cu4      1.0000 0.04900  0.41971  0.10400  Biso   1.000  Cu
  S1       1.0000 0.77260  0.12430  0.77610  Biso   1.000  S
  S2       1.0000 0.77260  0.87570  0.27610  Biso   1.000  S
  S3       1.0000 0.27260  0.62430  0.77610  Biso   1.000  S
  S4       1.0000 0.27260  0.37570  0.27610  Biso   1.000  S
  S5       1.0000 0.53650  0.90870  0.42720  Biso   1.000  S
  S6       1.0000 0.53650  0.09130  0.92720  Biso   1.000  S
  S7       1.0000 0.03650  0.40870  0.42720  Biso   1.000  S
  S8       1.0000 0.03650  0.59130  0.92720  Biso   1.000  S
  S9       1.0000 0.89870  0.96870  0.67970  Biso   1.000  S
  S10      1.0000 0.89870  0.03130  0.17970  Biso   1.000  S
  S11      1.0000 0.39870  0.46870  0.67970  Biso   1.000  S
  S12      1.0000 0.39870  0.53130  0.17970  Biso   1.000  S
  S13      1.0000 0.35390  0.10110  0.40100  Biso   1.000  S
  S14      1.0000 0.35390  0.89890  0.90100  Biso   1.000  S
  S15      1.0000 0.85390  0.60110  0.40100  Biso   1.000  S
  S16      1.0000 0.85390  0.39890  0.90100  Biso   1.000  S
  O1       1.0000 0.89800  0.87860  0.64380  Biso   1.000  O
  O2       1.0000 0.89800  0.12140  0.14380  Biso   1.000  O
  O3       1.0000 0.39800  0.37860  0.64380  Biso   1.000  O
  O4       1.0000 0.39800  0.62140  0.14380  Biso   1.000  O
  O5       1.0000 0.25230  0.17110  0.40950  Biso   1.000  O
  O6       1.0000 0.25230  0.82890  0.90950  Biso   1.000  O
  O7       1.0000 0.75230  0.67110  0.40950  Biso   1.000  O
  O8       1.0000 0.75230  0.32890  0.90950  Biso   1.000  O
  O9       1.0000 0.93560  0.96000  0.74420  Biso   1.000  O
  O10      1.0000 0.93560  0.04000  0.24420  Biso   1.000  O
  O11      1.0000 0.43560  0.46000  0.74420  Biso   1.000  O
  O12      1.0000 0.43560  0.54000  0.24420  Biso   1.000  O
  O13      1.0000 0.32590  0.01690  0.36170  Biso   1.000  O
  O14      1.0000 0.32590  0.98310  0.86170  Biso   1.000  O
  O15      1.0000 0.82590  0.51690  0.36170  Biso   1.000  O
  O16      1.0000 0.82590  0.48310  0.86170  Biso   1.000  O
  O17      1.0000 0.98200  0.15040  0.41560  Biso   1.000  O
  O18      1.0000 0.98200  0.84960  0.91560  Biso   1.000  O
  O19      1.0000 0.48200  0.65040  0.41560  Biso   1.000  O
  O20      1.0000 0.48200  0.34960  0.91560  Biso   1.000  O
  N1       1.0000 0.62150  0.14280  0.68210  Biso   1.000  N
  N2       1.0000 0.62150  0.85720  0.18210  Biso   1.000  N
  N3       1.0000 0.12150  0.64280  0.68210  Biso   1.000  N
  N4       1.0000 0.12150  0.35720  0.18210  Biso   1.000  N
  N5       1.0000 0.55260  0.98550  0.53280  Biso   1.000  N
  N6       1.0000 0.55260  0.01450  0.03280  Biso   1.000  N
  N7       1.0000 0.05260  0.48550  0.53280  Biso   1.000  N
  N8       1.0000 0.05260  0.51450  0.03280  Biso   1.000  N
  N9       1.0000 0.76310  0.01820  0.66720  Biso   1.000  N
  N10      1.0000 0.76310  0.98180  0.16720  Biso   1.000  N
  N11      1.0000 0.26310  0.51820  0.66720  Biso   1.000  N
  N12      1.0000 0.26310  0.48180  0.16720  Biso   1.000  N
  N13      1.0000 0.40340  0.06930  0.46810  Biso   1.000  N
  N14      1.0000 0.40340  0.93070  0.96810  Biso   1.000  N
  N15      1.0000 0.90340  0.56930  0.46810  Biso   1.000  N
  N16      1.0000 0.90340  0.43070  0.96810  Biso   1.000  N
  N17      1.0000 0.33980  0.18830  0.58070  Biso   1.000  N
  N18      1.0000 0.33980  0.81170  0.08070  Biso   1.000  N
  N19      1.0000 0.83980  0.68830  0.58070  Biso   1.000  N
  N20      1.0000 0.83980  0.31170  0.08070  Biso   1.000  N
  N21      1.0000 0.81420  0.30770  0.30830  Biso   1.000  N
  N22      1.0000 0.81420  0.69230  0.80830  Biso   1.000  N
  N23      1.0000 0.31420  0.80770  0.30830  Biso   1.000  N
  N24      1.0000 0.31420  0.19230  0.80830  Biso   1.000  N
  N25      1.0000 0.65240  0.17290  0.55480  Biso   1.000  N
  N26      1.0000 0.65240  0.82710  0.05480  Biso   1.000  N
  N27      1.0000 0.15240  0.67290  0.55480  Biso   1.000  N
  N28      1.0000 0.15240  0.32710  0.05480  Biso   1.000  N
  N29      1.0000 0.44960  0.98730  0.65190  Biso   1.000  N
  N30      1.0000 0.44960  0.01270  0.15190  Biso   1.000  N
  N31      1.0000 0.94960  0.48730  0.65190  Biso   1.000  N
  N32      1.0000 0.94960  0.51270  0.15190  Biso   1.000  N
  N33      1.0000 0.32930  0.93220  0.72470  Biso   1.000  N
  N34      1.0000 0.32930  0.06780  0.22470  Biso   1.000  N
  N35      1.0000 0.82930  0.43220  0.72470  Biso   1.000  N
  N36      1.0000 0.82930  0.56780  0.22470  Biso   1.000  N
  N37      1.0000 0.80160  0.22570  0.49400  Biso   1.000  N
  N38      1.0000 0.80160  0.77430  0.99400  Biso   1.000  N
  N39      1.0000 0.30160  0.72570  0.49400  Biso   1.000  N
  N40      1.0000 0.30160  0.27430  0.99400  Biso   1.000  N
  C1       1.0000 0.72190  0.09180  0.70240  Biso   1.000  C
  C2       1.0000 0.72190  0.90820  0.20240  Biso   1.000  C
  C3       1.0000 0.22190  0.59180  0.70240  Biso   1.000  C
  C4       1.0000 0.22190  0.40820  0.20240  Biso   1.000  C
  C5       1.0000 0.49280  0.99900  0.47930  Biso   1.000  C
  C6       1.0000 0.49280  0.00100  0.97930  Biso   1.000  C
  C7       1.0000 0.99280  0.49900  0.47930  Biso   1.000  C
  C8       1.0000 0.99280  0.50100  0.97930  Biso   1.000  C
  C9       1.0000 0.65300  0.21410  0.77690  Biso   1.000  C
  C10      1.0000 0.65300  0.78590  0.27690  Biso   1.000  C
  C11      1.0000 0.15300  0.71410  0.77690  Biso   1.000  C
  C12      1.0000 0.15300  0.28590  0.27690  Biso   1.000  C
  C13      1.0000 0.64700  0.85830  0.48370  Biso   1.000  C
  C14      1.0000 0.64700  0.14170  0.98370  Biso   1.000  C
  C15      1.0000 0.14700  0.35830  0.48370  Biso   1.000  C
  C16      1.0000 0.14700  0.64170  0.98370  Biso   1.000  C
  C17      1.0000 0.63800  0.90870  0.53630  Biso   1.000  C
  C18      1.0000 0.63800  0.09130  0.03630  Biso   1.000  C
  C19      1.0000 0.13800  0.40870  0.53630  Biso   1.000  C
  C20      1.0000 0.13800  0.59130  0.03630  Biso   1.000  C
  C21      1.0000 0.58570  0.21230  0.72320  Biso   1.000  C
  C22      1.0000 0.58570  0.78770  0.22320  Biso   1.000  C
  C23      1.0000 0.08570  0.71230  0.72320  Biso   1.000  C
  C24      1.0000 0.08570  0.28770  0.22320  Biso   1.000  C
  C25      1.0000 0.48830  0.16440  0.36910  Biso   1.000  C
  C26      1.0000 0.48830  0.83560  0.86910  Biso   1.000  C
  C27      1.0000 0.98830  0.66440  0.36910  Biso   1.000  C
  C28      1.0000 0.98830  0.33560  0.86910  Biso   1.000  C
  C29      1.0000 0.02090  0.04300  0.64700  Biso   1.000  C
  C30      1.0000 0.02090  0.95700  0.14700  Biso   1.000  C
  C31      1.0000 0.52090  0.54300  0.64700  Biso   1.000  C
  C32      1.0000 0.52090  0.45700  0.14700  Biso   1.000  C
  C33      1.0000 0.05900  0.02270  0.58920  Biso   1.000  C
  C34      1.0000 0.05900  0.97730  0.08920  Biso   1.000  C
  C35      1.0000 0.55900  0.52270  0.58920  Biso   1.000  C
  C36      1.0000 0.55900  0.47730  0.08920  Biso   1.000  C
  C37      1.0000 0.51100  0.26000  0.38390  Biso   1.000  C
  C38      1.0000 0.51100  0.74000  0.88390  Biso   1.000  C
  C39      1.0000 0.01100  0.76000  0.38390  Biso   1.000  C
  C40      1.0000 0.01100  0.24000  0.88390  Biso   1.000  C
  C41      1.0000 0.61500  0.30940  0.36420  Biso   1.000  C
  C42      1.0000 0.61500  0.69060  0.86420  Biso   1.000  C
  C43      1.0000 0.11500  0.80940  0.36420  Biso   1.000  C
  C44      1.0000 0.11500  0.19060  0.86420  Biso   1.000  C
  C45      1.0000 0.16000  0.07340  0.56620  Biso   1.000  C
  C46      1.0000 0.16000  0.92660  0.06620  Biso   1.000  C
  C47      1.0000 0.66000  0.57340  0.56620  Biso   1.000  C
  C48      1.0000 0.66000  0.42660  0.06620  Biso   1.000  C
  C49      1.0000 0.22600  0.14730  0.60030  Biso   1.000  C
  C50      1.0000 0.22600  0.85270  0.10030  Biso   1.000  C
  C51      1.0000 0.72600  0.64730  0.60030  Biso   1.000  C
  C52      1.0000 0.72600  0.35270  0.10030  Biso   1.000  C
  C53      1.0000 0.70300  0.26090  0.32780  Biso   1.000  C
  C54      1.0000 0.70300  0.73910  0.82780  Biso   1.000  C
  C55      1.0000 0.20300  0.76090  0.32780  Biso   1.000  C
  C56      1.0000 0.20300  0.23910  0.82780  Biso   1.000  C
  C57      1.0000 0.67800  0.16370  0.31260  Biso   1.000  C
  C58      1.0000 0.67800  0.83630  0.81260  Biso   1.000  C
  C59      1.0000 0.17800  0.66370  0.31260  Biso   1.000  C
  C60      1.0000 0.17800  0.33630  0.81260  Biso   1.000  C
  C61      1.0000 0.17890  0.17150  0.65720  Biso   1.000  C
  C62      1.0000 0.17890  0.82850  0.15720  Biso   1.000  C
  C63      1.0000 0.67890  0.67150  0.65720  Biso   1.000  C
  C64      1.0000 0.67890  0.32850  0.15720  Biso   1.000  C
  C65      1.0000 0.07900  0.11920  0.68020  Biso   1.000  C
  C66      1.0000 0.07900  0.88080  0.18020  Biso   1.000  C
  C67      1.0000 0.57900  0.61920  0.68020  Biso   1.000  C
  C68      1.0000 0.57900  0.38080  0.18020  Biso   1.000  C
  C69      1.0000 0.57100  0.11430  0.33370  Biso   1.000  C
  C70      1.0000 0.57100  0.88570  0.83370  Biso   1.000  C
  C71      1.0000 0.07100  0.61430  0.33370  Biso   1.000  C
  C72      1.0000 0.07100  0.38570  0.83370  Biso   1.000  C
  C73      1.0000 0.39000  0.00840  0.70170  Biso   1.000  C
  C74      1.0000 0.39000  0.99160  0.20170  Biso   1.000  C
  C75      1.0000 0.89000  0.50840  0.70170  Biso   1.000  C
  C76      1.0000 0.89000  0.49160  0.20170  Biso   1.000  C
  C77      1.0000 0.74200  0.14920  0.51910  Biso   1.000  C
  C78      1.0000 0.74200  0.85080  0.01910  Biso   1.000  C
  C79      1.0000 0.24200  0.64920  0.51910  Biso   1.000  C
  C80      1.0000 0.24200  0.35080  0.01910  Biso   1.000  C
  C81      1.0000 0.74400  0.30570  0.51670  Biso   1.000  C
  C82      1.0000 0.74400  0.69430  0.01670  Biso   1.000  C
  C83      1.0000 0.24400  0.80570  0.51670  Biso   1.000  C
  C84      1.0000 0.24400  0.19430  0.01670  Biso   1.000  C
  C85      1.0000 0.34800  0.85800  0.68690  Biso   1.000  C
  C86      1.0000 0.34800  0.14200  0.18690  Biso   1.000  C
  C87      1.0000 0.84800  0.35800  0.68690  Biso   1.000  C
  C88      1.0000 0.84800  0.64200  0.18690  Biso   1.000  C
  C89      1.0000 0.42800  0.89150  0.64190  Biso   1.000  C
  C90      1.0000 0.42800  0.10850  0.14190  Biso   1.000  C
  C91      1.0000 0.92800  0.39150  0.64190  Biso   1.000  C
  C92      1.0000 0.92800  0.60850  0.14190  Biso   1.000  C
  C93      1.0000 0.65200  0.27320  0.55550  Biso   1.000  C
  C94      1.0000 0.65200  0.72680  0.05550  Biso   1.000  C
  C95      1.0000 0.15200  0.77320  0.55550  Biso   1.000  C
  C96      1.0000 0.15200  0.22680  0.05550  Biso   1.000  C
  C97      1.0000 0.95100  0.05000  0.39960  Biso   1.000  C
  C98      1.0000 0.95100  0.95000  0.89960  Biso   1.000  C
  C99      1.0000 0.45100  0.55000  0.39960  Biso   1.000  C
  C100     1.0000 0.45100  0.45000  0.89960  Biso   1.000  C
  H1       1.0000 0.70320  0.80350  0.47790  Biso   1.000  H
  H2       1.0000 0.70320  0.19650  0.97790  Biso   1.000  H
  H3       1.0000 0.20320  0.30350  0.47790  Biso   1.000  H
  H4       1.0000 0.20320  0.69650  0.97790  Biso   1.000  H
  H5       1.0000 0.63590  0.25850  0.80900  Biso   1.000  H
  H6       1.0000 0.63590  0.74150  0.30900  Biso   1.000  H
  H7       1.0000 0.13590  0.75850  0.80900  Biso   1.000  H
  H8       1.0000 0.13590  0.24150  0.30900  Biso   1.000  H
  H9       1.0000 0.68840  0.89260  0.57310  Biso   1.000  H
  H10      1.0000 0.68840  0.10740  0.07310  Biso   1.000  H
  H11      1.0000 0.18840  0.39260  0.57310  Biso   1.000  H
  H12      1.0000 0.18840  0.60740  0.07310  Biso   1.000  H
  H13      1.0000 0.51480  0.25720  0.71340  Biso   1.000  H
  H14      1.0000 0.51480  0.74280  0.21340  Biso   1.000  H
  H15      1.0000 0.01480  0.75720  0.71340  Biso   1.000  H
  H16      1.0000 0.01480  0.24280  0.21340  Biso   1.000  H
  H17      1.0000 0.01490  0.97180  0.56500  Biso   1.000  H
  H18      1.0000 0.01490  0.02820  0.06500  Biso   1.000  H
  H19      1.0000 0.51490  0.47180  0.56500  Biso   1.000  H
  H20      1.0000 0.51490  0.52820  0.06500  Biso   1.000  H
  H21      1.0000 0.44830  0.29390  0.40790  Biso   1.000  H
  H22      1.0000 0.44830  0.70610  0.90790  Biso   1.000  H
  H23      1.0000 0.94830  0.79390  0.40790  Biso   1.000  H
  H24      1.0000 0.94830  0.20610  0.90790  Biso   1.000  H
  H25      1.0000 0.18880  0.05890  0.52540  Biso   1.000  H
  H26      1.0000 0.18880  0.94110  0.02540  Biso   1.000  H
  H27      1.0000 0.68880  0.55890  0.52540  Biso   1.000  H
  H28      1.0000 0.68880  0.44110  0.02540  Biso   1.000  H
  H29      1.0000 0.63050  0.37740  0.37520  Biso   1.000  H
  H30      1.0000 0.63050  0.62260  0.87520  Biso   1.000  H
  H31      1.0000 0.13050  0.87740  0.37520  Biso   1.000  H
  H32      1.0000 0.13050  0.12260  0.87520  Biso   1.000  H
  H33      1.0000 0.21610  0.22700  0.67880  Biso   1.000  H
  H34      1.0000 0.21610  0.77300  0.17880  Biso   1.000  H
  H35      1.0000 0.71610  0.72700  0.67880  Biso   1.000  H
  H36      1.0000 0.71610  0.27300  0.17880  Biso   1.000  H
  H37      1.0000 0.73290  0.12910  0.28600  Biso   1.000  H
  H38      1.0000 0.73290  0.87090  0.78600  Biso   1.000  H
  H39      1.0000 0.23290  0.62910  0.28600  Biso   1.000  H
  H40      1.0000 0.23290  0.37090  0.78600  Biso   1.000  H
  H41      1.0000 0.05060  0.13470  0.72050  Biso   1.000  H
  H42      1.0000 0.05060  0.86530  0.22050  Biso   1.000  H
  H43      1.0000 0.55060  0.63470  0.72050  Biso   1.000  H
  H44      1.0000 0.55060  0.36530  0.22050  Biso   1.000  H
  H45      1.0000 0.55320  0.04620  0.32250  Biso   1.000  H
  H46      1.0000 0.55320  0.95380  0.82250  Biso   1.000  H
  H47      1.0000 0.05320  0.54620  0.32250  Biso   1.000  H
  H48      1.0000 0.05320  0.45380  0.82250  Biso   1.000  H
  H49      1.0000 0.76440  0.08040  0.50930  Biso   1.000  H
  H50      1.0000 0.76440  0.91960  0.00930  Biso   1.000  H
  H51      1.0000 0.26440  0.58040  0.50930  Biso   1.000  H
  H52      1.0000 0.26440  0.41960  0.00930  Biso   1.000  H
  H53      1.0000 0.39350  0.07390  0.72020  Biso   1.000  H
  H54      1.0000 0.39350  0.92610  0.22020  Biso   1.000  H
  H55      1.0000 0.89350  0.57390  0.72020  Biso   1.000  H
  H56      1.0000 0.89350  0.42610  0.22020  Biso   1.000  H
  H57      1.0000 0.76410  0.37370  0.50780  Biso   1.000  H
  H58      1.0000 0.76410  0.62630  0.00780  Biso   1.000  H
  H59      1.0000 0.26410  0.87370  0.50780  Biso   1.000  H
  H60      1.0000 0.26410  0.12630  0.00780  Biso   1.000  H
  H61      1.0000 0.32120  0.79020  0.69240  Biso   1.000  H
  H62      1.0000 0.32120  0.20980  0.19240  Biso   1.000  H
  H63      1.0000 0.82120  0.29020  0.69240  Biso   1.000  H
  H64      1.0000 0.82120  0.70980  0.19240  Biso   1.000  H
  H65      1.0000 0.59760  0.31270  0.58000  Biso   1.000  H
  H66      1.0000 0.59760  0.68730  0.08000  Biso   1.000  H
  H67      1.0000 0.09760  0.81270  0.58000  Biso   1.000  H
  H68      1.0000 0.09760  0.18730  0.08000  Biso   1.000  H
  H69      1.0000 0.45830  0.85380  0.60790  Biso   1.000  H
  H70      1.0000 0.45830  0.14620  0.10790  Biso   1.000  H
  H71      1.0000 0.95830  0.35380  0.60790  Biso   1.000  H
  H72      1.0000 0.95830  0.64620  0.10790  Biso   1.000  H
