data_image0
_cell_length_a       11.738
_cell_length_b       12.39
_cell_length_c       13.634
_cell_angle_alpha    90
_cell_angle_beta     90
_cell_angle_gamma    90

_symmetry_space_group_name_H-M    "P 1"
_symmetry_int_tables_number       1

loop_
  _symmetry_equiv_pos_as_xyz
  'x, y, z'

loop_
  _atom_site_label
  _atom_site_occupancy
  _atom_site_fract_x
  _atom_site_fract_y
  _atom_site_fract_z
  _atom_site_thermal_displace_type
  _atom_site_B_iso_or_equiv
  _atom_site_type_symbol
  Cu1      1.0000 0.25000  0.25000  0.53978  Biso   1.000  Cu
  Cu2      1.0000 0.75000  0.75000  0.96022  Biso   1.000  Cu
  Cu3      1.0000 0.75000  0.75000  0.46022  Biso   1.000  Cu
  Cu4      1.0000 0.25000  0.25000  0.03978  Biso   1.000  Cu
  N1       1.0000 0.25000  0.25000  0.39130  Biso   1.000  N
  N2       1.0000 0.75000  0.75000  0.10870  Biso   1.000  N
  N3       1.0000 0.75000  0.75000  0.60870  Biso   1.000  N
  N4       1.0000 0.25000  0.25000  0.89130  Biso   1.000  N
  C1       1.0000 0.27830  0.16220  0.33980  Biso   1.000  C
  C2       1.0000 0.22170  0.33780  0.33980  Biso   1.000  C
  C3       1.0000 0.77830  0.83780  0.16020  Biso   1.000  C
  C4       1.0000 0.72170  0.66220  0.16020  Biso   1.000  C
  C5       1.0000 0.72170  0.83780  0.66020  Biso   1.000  C
  C6       1.0000 0.77830  0.66220  0.66020  Biso   1.000  C
  C7       1.0000 0.22170  0.16220  0.83980  Biso   1.000  C
  C8       1.0000 0.27830  0.33780  0.83980  Biso   1.000  C
  C9       1.0000 0.27870  0.16330  0.23910  Biso   1.000  C
  C10      1.0000 0.22130  0.33670  0.23910  Biso   1.000  C
  C11      1.0000 0.77870  0.83670  0.26090  Biso   1.000  C
  C12      1.0000 0.72130  0.66330  0.26090  Biso   1.000  C
  C13      1.0000 0.72130  0.83670  0.76090  Biso   1.000  C
  C14      1.0000 0.77870  0.66330  0.76090  Biso   1.000  C
  C15      1.0000 0.22130  0.16330  0.73910  Biso   1.000  C
  C16      1.0000 0.27870  0.33670  0.73910  Biso   1.000  C
  N5       1.0000 0.25000  0.25000  0.18820  Biso   1.000  N
  N6       1.0000 0.75000  0.75000  0.31180  Biso   1.000  N
  N7       1.0000 0.75000  0.75000  0.81180  Biso   1.000  N
  N8       1.0000 0.25000  0.25000  0.68820  Biso   1.000  N
  N9       1.0000 0.40780  0.31440  0.54170  Biso   1.000  N
  N10      1.0000 0.09220  0.18560  0.54170  Biso   1.000  N
  N11      1.0000 0.90780  0.68560  0.95830  Biso   1.000  N
  N12      1.0000 0.59220  0.81440  0.95830  Biso   1.000  N
  N13      1.0000 0.59220  0.68560  0.45830  Biso   1.000  N
  N14      1.0000 0.90780  0.81440  0.45830  Biso   1.000  N
  N15      1.0000 0.09220  0.31440  0.04170  Biso   1.000  N
  N16      1.0000 0.40780  0.18560  0.04170  Biso   1.000  N
  C17      1.0000 0.49540  0.34550  0.55730  Biso   1.000  C
  C18      1.0000 0.00460  0.15450  0.55730  Biso   1.000  C
  C19      1.0000 0.99540  0.65450  0.94270  Biso   1.000  C
  C20      1.0000 0.50460  0.84550  0.94270  Biso   1.000  C
  C21      1.0000 0.50460  0.65450  0.44270  Biso   1.000  C
  C22      1.0000 0.99540  0.84550  0.44270  Biso   1.000  C
  C23      1.0000 0.00460  0.34550  0.05730  Biso   1.000  C
  C24      1.0000 0.49540  0.15450  0.05730  Biso   1.000  C
  C25      1.0000 0.60940  0.38630  0.57400  Biso   1.000  C
  C26      1.0000 0.89060  0.11370  0.57400  Biso   1.000  C
  C27      1.0000 0.10940  0.61370  0.92600  Biso   1.000  C
  C28      1.0000 0.39060  0.88630  0.92600  Biso   1.000  C
  C29      1.0000 0.39060  0.61370  0.42600  Biso   1.000  C
  C30      1.0000 0.10940  0.88630  0.42600  Biso   1.000  C
  C31      1.0000 0.89060  0.38630  0.07400  Biso   1.000  C
  C32      1.0000 0.60940  0.11370  0.07400  Biso   1.000  C
  N17      1.0000 0.33050  0.07300  0.54610  Biso   1.000  N
  N18      1.0000 0.16950  0.42700  0.54610  Biso   1.000  N
  N19      1.0000 0.83050  0.92700  0.95390  Biso   1.000  N
  N20      1.0000 0.66950  0.57300  0.95390  Biso   1.000  N
  N21      1.0000 0.66950  0.92700  0.45390  Biso   1.000  N
  N22      1.0000 0.83050  0.57300  0.45390  Biso   1.000  N
  N23      1.0000 0.16950  0.07300  0.04610  Biso   1.000  N
  N24      1.0000 0.33050  0.42700  0.04610  Biso   1.000  N
  C33      1.0000 0.36080  0.99090  0.56730  Biso   1.000  C
  C34      1.0000 0.13920  0.50910  0.56730  Biso   1.000  C
  C35      1.0000 0.86080  0.00910  0.93270  Biso   1.000  C
  C36      1.0000 0.63920  0.49090  0.93270  Biso   1.000  C
  C37      1.0000 0.63920  0.00910  0.43270  Biso   1.000  C
  C38      1.0000 0.86080  0.49090  0.43270  Biso   1.000  C
  C39      1.0000 0.13920  0.99090  0.06730  Biso   1.000  C
  C40      1.0000 0.36080  0.50910  0.06730  Biso   1.000  C
  C41      1.0000 0.40350  0.88470  0.59150  Biso   1.000  C
  C42      1.0000 0.09650  0.61530  0.59150  Biso   1.000  C
  C43      1.0000 0.90350  0.11530  0.90850  Biso   1.000  C
  C44      1.0000 0.59650  0.38470  0.90850  Biso   1.000  C
  C45      1.0000 0.59650  0.11530  0.40850  Biso   1.000  C
  C46      1.0000 0.90350  0.38470  0.40850  Biso   1.000  C
  C47      1.0000 0.09650  0.88470  0.09150  Biso   1.000  C
  C48      1.0000 0.40350  0.61530  0.09150  Biso   1.000  C
  B1       1.0000 0.57500  0.38310  0.25620  Biso   1.000  B
  B2       1.0000 0.92500  0.11690  0.25620  Biso   1.000  B
  B3       1.0000 0.07500  0.61690  0.24380  Biso   1.000  B
  B4       1.0000 0.42500  0.88310  0.24380  Biso   1.000  B
  B5       1.0000 0.42500  0.61690  0.74380  Biso   1.000  B
  B6       1.0000 0.07500  0.88310  0.74380  Biso   1.000  B
  B7       1.0000 0.92500  0.38310  0.75620  Biso   1.000  B
  B8       1.0000 0.57500  0.11690  0.75620  Biso   1.000  B
  F1       1.0000 0.64100  0.39050  0.33050  Biso   1.000  F
  F2       1.0000 0.85900  0.10950  0.33050  Biso   1.000  F
  F3       1.0000 0.14100  0.60950  0.16950  Biso   1.000  F
  F4       1.0000 0.35900  0.89050  0.16950  Biso   1.000  F
  F5       1.0000 0.35900  0.60950  0.66950  Biso   1.000  F
  F6       1.0000 0.14100  0.89050  0.66950  Biso   1.000  F
  F7       1.0000 0.85900  0.39050  0.83050  Biso   1.000  F
  F8       1.0000 0.64100  0.10950  0.83050  Biso   1.000  F
  F9       1.0000 0.50200  0.46300  0.26500  Biso   1.000  F
  F10      1.0000 0.99800  0.03700  0.26500  Biso   1.000  F
  F11      1.0000 0.00200  0.53700  0.23500  Biso   1.000  F
  F12      1.0000 0.49800  0.96300  0.23500  Biso   1.000  F
  F13      1.0000 0.49800  0.53700  0.73500  Biso   1.000  F
  F14      1.0000 0.00200  0.96300  0.73500  Biso   1.000  F
  F15      1.0000 0.99800  0.46300  0.76500  Biso   1.000  F
  F16      1.0000 0.50200  0.03700  0.76500  Biso   1.000  F
  F17      1.0000 0.62200  0.40840  0.17490  Biso   1.000  F
  F18      1.0000 0.87800  0.09160  0.17490  Biso   1.000  F
  F19      1.0000 0.12200  0.59160  0.32510  Biso   1.000  F
  F20      1.0000 0.37800  0.90840  0.32510  Biso   1.000  F
  F21      1.0000 0.37800  0.59160  0.82510  Biso   1.000  F
  F22      1.0000 0.12200  0.90840  0.82510  Biso   1.000  F
  F23      1.0000 0.87800  0.40840  0.67490  Biso   1.000  F
  F24      1.0000 0.62200  0.09160  0.67490  Biso   1.000  F
  F25      1.0000 0.51400  0.29770  0.25290  Biso   1.000  F
  F26      1.0000 0.98600  0.20230  0.25290  Biso   1.000  F
  F27      1.0000 0.01400  0.70230  0.24710  Biso   1.000  F
  F28      1.0000 0.48600  0.79770  0.24710  Biso   1.000  F
  F29      1.0000 0.48600  0.70230  0.74710  Biso   1.000  F
  F30      1.0000 0.01400  0.79770  0.74710  Biso   1.000  F
  F31      1.0000 0.98600  0.29770  0.75290  Biso   1.000  F
  F32      1.0000 0.51400  0.20230  0.75290  Biso   1.000  F
  H1       1.0000 0.30100  0.10300  0.38000  Biso   1.000  H
  H2       1.0000 0.19900  0.39700  0.38000  Biso   1.000  H
  H3       1.0000 0.80100  0.89700  0.12000  Biso   1.000  H
  H4       1.0000 0.69900  0.60300  0.12000  Biso   1.000  H
  H5       1.0000 0.69900  0.89700  0.62000  Biso   1.000  H
  H6       1.0000 0.80100  0.60300  0.62000  Biso   1.000  H
  H7       1.0000 0.19900  0.10300  0.88000  Biso   1.000  H
  H8       1.0000 0.30100  0.39700  0.88000  Biso   1.000  H
  H9       1.0000 0.29900  0.11100  0.20900  Biso   1.000  H
  H10      1.0000 0.20100  0.38900  0.20900  Biso   1.000  H
  H11      1.0000 0.79900  0.88900  0.29100  Biso   1.000  H
  H12      1.0000 0.70100  0.61100  0.29100  Biso   1.000  H
  H13      1.0000 0.70100  0.88900  0.79100  Biso   1.000  H
  H14      1.0000 0.79900  0.61100  0.79100  Biso   1.000  H
  H15      1.0000 0.20100  0.11100  0.70900  Biso   1.000  H
  H16      1.0000 0.29900  0.38900  0.70900  Biso   1.000  H
  H17      1.0000 0.66600  0.35000  0.52700  Biso   1.000  H
  H18      1.0000 0.83400  0.15000  0.52700  Biso   1.000  H
  H19      1.0000 0.16600  0.65000  0.97300  Biso   1.000  H
  H20      1.0000 0.33400  0.85000  0.97300  Biso   1.000  H
  H21      1.0000 0.33400  0.65000  0.47300  Biso   1.000  H
  H22      1.0000 0.16600  0.85000  0.47300  Biso   1.000  H
  H23      1.0000 0.83400  0.35000  0.02700  Biso   1.000  H
  H24      1.0000 0.66600  0.15000  0.02700  Biso   1.000  H
  H25      1.0000 0.61400  0.46000  0.60200  Biso   1.000  H
  H26      1.0000 0.88600  0.04000  0.60200  Biso   1.000  H
  H27      1.0000 0.11400  0.54000  0.89800  Biso   1.000  H
  H28      1.0000 0.38600  0.96000  0.89800  Biso   1.000  H
  H29      1.0000 0.38600  0.54000  0.39800  Biso   1.000  H
  H30      1.0000 0.11400  0.96000  0.39800  Biso   1.000  H
  H31      1.0000 0.88600  0.46000  0.10200  Biso   1.000  H
  H32      1.0000 0.61400  0.04000  0.10200  Biso   1.000  H
  H33      1.0000 0.65600  0.33700  0.62100  Biso   1.000  H
  H34      1.0000 0.84400  0.16300  0.62100  Biso   1.000  H
  H35      1.0000 0.15600  0.66300  0.87900  Biso   1.000  H
  H36      1.0000 0.34400  0.83700  0.87900  Biso   1.000  H
  H37      1.0000 0.34400  0.66300  0.37900  Biso   1.000  H
  H38      1.0000 0.15600  0.83700  0.37900  Biso   1.000  H
  H39      1.0000 0.84400  0.33700  0.12100  Biso   1.000  H
  H40      1.0000 0.65600  0.16300  0.12100  Biso   1.000  H
  H41      1.0000 0.33900  0.84800  0.63300  Biso   1.000  H
  H42      1.0000 0.16100  0.65200  0.63300  Biso   1.000  H
  H43      1.0000 0.83900  0.15200  0.86700  Biso   1.000  H
  H44      1.0000 0.66100  0.34800  0.86700  Biso   1.000  H
  H45      1.0000 0.66100  0.15200  0.36700  Biso   1.000  H
  H46      1.0000 0.83900  0.34800  0.36700  Biso   1.000  H
  H47      1.0000 0.16100  0.84800  0.13300  Biso   1.000  H
  H48      1.0000 0.33900  0.65200  0.13300  Biso   1.000  H
  H49      1.0000 0.46300  0.86600  0.64200  Biso   1.000  H
  H50      1.0000 0.03700  0.63400  0.64200  Biso   1.000  H
  H51      1.0000 0.96300  0.13400  0.85800  Biso   1.000  H
  H52      1.0000 0.53700  0.36600  0.85800  Biso   1.000  H
  H53      1.0000 0.53700  0.13400  0.35800  Biso   1.000  H
  H54      1.0000 0.96300  0.36600  0.35800  Biso   1.000  H
  H55      1.0000 0.03700  0.86600  0.14200  Biso   1.000  H
  H56      1.0000 0.46300  0.63400  0.14200  Biso   1.000  H
  H57      1.0000 0.35900  0.81300  0.58000  Biso   1.000  H
  H58      1.0000 0.14100  0.68700  0.58000  Biso   1.000  H
  H59      1.0000 0.85900  0.18700  0.92000  Biso   1.000  H
  H60      1.0000 0.64100  0.31300  0.92000  Biso   1.000  H
  H61      1.0000 0.64100  0.18700  0.42000  Biso   1.000  H
  H62      1.0000 0.85900  0.31300  0.42000  Biso   1.000  H
  H63      1.0000 0.14100  0.81300  0.08000  Biso   1.000  H
  H64      1.0000 0.35900  0.68700  0.08000  Biso   1.000  H
