data_image0
_cell_length_a       7.8681
_cell_length_b       17.6088
_cell_length_c       20.976
_cell_angle_alpha    90
_cell_angle_beta     90
_cell_angle_gamma    90

_symmetry_space_group_name_H-M    "P 1"
_symmetry_int_tables_number       1

loop_
  _symmetry_equiv_pos_as_xyz
  'x, y, z'

loop_
  _atom_site_label
  _atom_site_occupancy
  _atom_site_fract_x
  _atom_site_fract_y
  _atom_site_fract_z
  _atom_site_thermal_displace_type
  _atom_site_B_iso_or_equiv
  _atom_site_type_symbol
  Cu1      1.0000 0.39339  0.67703  0.24309  Biso   1.000  Cu
  Cu2      1.0000 0.10661  0.32297  0.74309  Biso   1.000  Cu
  Cu3      1.0000 0.89339  0.82297  0.75691  Biso   1.000  Cu
  Cu4      1.0000 0.60661  0.17703  0.25691  Biso   1.000  Cu
  Cu5      1.0000 0.60661  0.32297  0.75691  Biso   1.000  Cu
  Cu6      1.0000 0.89339  0.67703  0.25691  Biso   1.000  Cu
  Cu7      1.0000 0.10661  0.17703  0.24309  Biso   1.000  Cu
  Cu8      1.0000 0.39339  0.82297  0.74309  Biso   1.000  Cu
  Cl1      1.0000 0.46110  0.68386  0.13878  Biso   1.000  Cl
  Cl2      1.0000 0.03890  0.31614  0.63878  Biso   1.000  Cl
  Cl3      1.0000 0.96110  0.81614  0.86122  Biso   1.000  Cl
  Cl4      1.0000 0.53890  0.18386  0.36122  Biso   1.000  Cl
  Cl5      1.0000 0.53890  0.31614  0.86122  Biso   1.000  Cl
  Cl6      1.0000 0.96110  0.68386  0.36122  Biso   1.000  Cl
  Cl7      1.0000 0.03890  0.18386  0.13878  Biso   1.000  Cl
  Cl8      1.0000 0.46110  0.81614  0.63878  Biso   1.000  Cl
  Cl9      1.0000 0.17840  0.59319  0.23073  Biso   1.000  Cl
  Cl10     1.0000 0.32160  0.40681  0.73073  Biso   1.000  Cl
  Cl11     1.0000 0.67840  0.90681  0.76927  Biso   1.000  Cl
  Cl12     1.0000 0.82160  0.09319  0.26927  Biso   1.000  Cl
  Cl13     1.0000 0.82160  0.40681  0.76927  Biso   1.000  Cl
  Cl14     1.0000 0.67840  0.59319  0.26927  Biso   1.000  Cl
  Cl15     1.0000 0.32160  0.09319  0.23073  Biso   1.000  Cl
  Cl16     1.0000 0.17840  0.90681  0.73073  Biso   1.000  Cl
  O1       1.0000 0.34100  0.67840  0.33690  Biso   1.000  O
  O2       1.0000 0.15900  0.32160  0.83690  Biso   1.000  O
  O3       1.0000 0.84100  0.82160  0.66310  Biso   1.000  O
  O4       1.0000 0.65900  0.17840  0.16310  Biso   1.000  O
  O5       1.0000 0.65900  0.32160  0.66310  Biso   1.000  O
  O6       1.0000 0.84100  0.67840  0.16310  Biso   1.000  O
  O7       1.0000 0.15900  0.17840  0.33690  Biso   1.000  O
  O8       1.0000 0.34100  0.82160  0.83690  Biso   1.000  O
  H1       1.0000 0.28900  0.64700  0.36080  Biso   1.000  H
  H2       1.0000 0.21100  0.35300  0.86080  Biso   1.000  H
  H3       1.0000 0.78900  0.85300  0.63920  Biso   1.000  H
  H4       1.0000 0.71100  0.14700  0.13920  Biso   1.000  H
  H5       1.0000 0.71100  0.35300  0.63920  Biso   1.000  H
  H6       1.0000 0.78900  0.64700  0.13920  Biso   1.000  H
  H7       1.0000 0.21100  0.14700  0.36080  Biso   1.000  H
  H8       1.0000 0.28900  0.85300  0.86080  Biso   1.000  H
  O9       1.0000 0.30560  0.67350  0.48900  Biso   1.000  O
  O10      1.0000 0.19440  0.32650  0.98900  Biso   1.000  O
  O11      1.0000 0.80560  0.82650  0.51100  Biso   1.000  O
  O12      1.0000 0.69440  0.17350  0.01100  Biso   1.000  O
  O13      1.0000 0.69440  0.32650  0.51100  Biso   1.000  O
  O14      1.0000 0.80560  0.67350  0.01100  Biso   1.000  O
  O15      1.0000 0.19440  0.17350  0.48900  Biso   1.000  O
  O16      1.0000 0.30560  0.82650  0.98900  Biso   1.000  O
  N1       1.0000 0.49760  0.77770  0.26710  Biso   1.000  N
  N2       1.0000 0.00240  0.22230  0.76710  Biso   1.000  N
  N3       1.0000 0.99760  0.72230  0.73290  Biso   1.000  N
  N4       1.0000 0.50240  0.27770  0.23290  Biso   1.000  N
  N5       1.0000 0.50240  0.22230  0.73290  Biso   1.000  N
  N6       1.0000 0.99760  0.77770  0.23290  Biso   1.000  N
  N7       1.0000 0.00240  0.27770  0.26710  Biso   1.000  N
  N8       1.0000 0.49760  0.72230  0.76710  Biso   1.000  N
  C1       1.0000 0.56170  0.82900  0.22680  Biso   1.000  C
  C2       1.0000 0.93830  0.17100  0.72680  Biso   1.000  C
  C3       1.0000 0.06170  0.67100  0.77320  Biso   1.000  C
  C4       1.0000 0.43830  0.32900  0.27320  Biso   1.000  C
  C5       1.0000 0.43830  0.17100  0.77320  Biso   1.000  C
  C6       1.0000 0.06170  0.82900  0.27320  Biso   1.000  C
  C7       1.0000 0.93830  0.32900  0.22680  Biso   1.000  C
  C8       1.0000 0.56170  0.67100  0.72680  Biso   1.000  C
  H9       1.0000 0.55630  0.81990  0.18310  Biso   1.000  H
  H10      1.0000 0.94370  0.18010  0.68310  Biso   1.000  H
  H11      1.0000 0.05630  0.68010  0.81690  Biso   1.000  H
  H12      1.0000 0.44370  0.31990  0.31690  Biso   1.000  H
  H13      1.0000 0.44370  0.18010  0.81690  Biso   1.000  H
  H14      1.0000 0.05630  0.81990  0.31690  Biso   1.000  H
  H15      1.0000 0.94370  0.31990  0.18310  Biso   1.000  H
  H16      1.0000 0.55630  0.68010  0.68310  Biso   1.000  H
  C9       1.0000 0.63600  0.89560  0.24840  Biso   1.000  C
  C10      1.0000 0.86400  0.10440  0.74840  Biso   1.000  C
  C11      1.0000 0.13600  0.60440  0.75160  Biso   1.000  C
  C12      1.0000 0.36400  0.39560  0.25160  Biso   1.000  C
  C13      1.0000 0.36400  0.10440  0.75160  Biso   1.000  C
  C14      1.0000 0.13600  0.89560  0.25160  Biso   1.000  C
  C15      1.0000 0.86400  0.39560  0.24840  Biso   1.000  C
  C16      1.0000 0.63600  0.60440  0.74840  Biso   1.000  C
  H17      1.0000 0.68180  0.92990  0.21940  Biso   1.000  H
  H18      1.0000 0.81820  0.07010  0.71940  Biso   1.000  H
  H19      1.0000 0.18180  0.57010  0.78060  Biso   1.000  H
  H20      1.0000 0.31820  0.42990  0.28060  Biso   1.000  H
  H21      1.0000 0.31820  0.07010  0.78060  Biso   1.000  H
  H22      1.0000 0.18180  0.92990  0.28060  Biso   1.000  H
  H23      1.0000 0.81820  0.42990  0.21940  Biso   1.000  H
  H24      1.0000 0.68180  0.57010  0.71940  Biso   1.000  H
  C17      1.0000 0.64200  0.91060  0.31210  Biso   1.000  C
  C18      1.0000 0.85800  0.08940  0.81210  Biso   1.000  C
  C19      1.0000 0.14200  0.58940  0.68790  Biso   1.000  C
  C20      1.0000 0.35800  0.41060  0.18790  Biso   1.000  C
  C21      1.0000 0.35800  0.08940  0.68790  Biso   1.000  C
  C22      1.0000 0.14200  0.91060  0.18790  Biso   1.000  C
  C23      1.0000 0.85800  0.41060  0.31210  Biso   1.000  C
  C24      1.0000 0.64200  0.58940  0.81210  Biso   1.000  C
  H25      1.0000 0.68800  0.95590  0.32700  Biso   1.000  H
  H26      1.0000 0.81200  0.04410  0.82700  Biso   1.000  H
  H27      1.0000 0.18800  0.54410  0.67300  Biso   1.000  H
  H28      1.0000 0.31200  0.45590  0.17300  Biso   1.000  H
  H29      1.0000 0.31200  0.04410  0.67300  Biso   1.000  H
  H30      1.0000 0.18800  0.95590  0.17300  Biso   1.000  H
  H31      1.0000 0.81200  0.45590  0.32700  Biso   1.000  H
  H32      1.0000 0.68800  0.54410  0.82700  Biso   1.000  H
  C25      1.0000 0.57840  0.85720  0.35400  Biso   1.000  C
  C26      1.0000 0.92160  0.14280  0.85400  Biso   1.000  C
  C27      1.0000 0.07840  0.64280  0.64600  Biso   1.000  C
  C28      1.0000 0.42160  0.35720  0.14600  Biso   1.000  C
  C29      1.0000 0.42160  0.14280  0.64600  Biso   1.000  C
  C30      1.0000 0.07840  0.85720  0.14600  Biso   1.000  C
  C31      1.0000 0.92160  0.35720  0.35400  Biso   1.000  C
  C32      1.0000 0.57840  0.64280  0.85400  Biso   1.000  C
  H33      1.0000 0.58690  0.86450  0.39780  Biso   1.000  H
  H34      1.0000 0.91310  0.13550  0.89780  Biso   1.000  H
  H35      1.0000 0.08690  0.63550  0.60220  Biso   1.000  H
  H36      1.0000 0.41310  0.36450  0.10220  Biso   1.000  H
  H37      1.0000 0.41310  0.13550  0.60220  Biso   1.000  H
  H38      1.0000 0.08690  0.86450  0.10220  Biso   1.000  H
  H39      1.0000 0.91310  0.36450  0.39780  Biso   1.000  H
  H40      1.0000 0.58690  0.63550  0.89780  Biso   1.000  H
  C33      1.0000 0.50180  0.79280  0.32960  Biso   1.000  C
  C34      1.0000 0.99820  0.20720  0.82960  Biso   1.000  C
  C35      1.0000 0.00180  0.70720  0.67040  Biso   1.000  C
  C36      1.0000 0.49820  0.29280  0.17040  Biso   1.000  C
  C37      1.0000 0.49820  0.20720  0.67040  Biso   1.000  C
  C38      1.0000 0.00180  0.79280  0.17040  Biso   1.000  C
  C39      1.0000 0.99820  0.29280  0.32960  Biso   1.000  C
  C40      1.0000 0.50180  0.70720  0.82960  Biso   1.000  C
  C41      1.0000 0.41650  0.73670  0.37510  Biso   1.000  C
  C42      1.0000 0.08350  0.26330  0.87510  Biso   1.000  C
  C43      1.0000 0.91650  0.76330  0.62490  Biso   1.000  C
  C44      1.0000 0.58350  0.23670  0.12490  Biso   1.000  C
  C45      1.0000 0.58350  0.26330  0.62490  Biso   1.000  C
  C46      1.0000 0.91650  0.73670  0.12490  Biso   1.000  C
  C47      1.0000 0.08350  0.23670  0.37510  Biso   1.000  C
  C48      1.0000 0.41650  0.76330  0.87510  Biso   1.000  C
  H41      1.0000 0.32720  0.76300  0.39900  Biso   1.000  H
  H42      1.0000 0.17280  0.23700  0.89900  Biso   1.000  H
  H43      1.0000 0.82720  0.73700  0.60100  Biso   1.000  H
  H44      1.0000 0.67280  0.26300  0.10100  Biso   1.000  H
  H45      1.0000 0.67280  0.23700  0.60100  Biso   1.000  H
  H46      1.0000 0.82720  0.76300  0.10100  Biso   1.000  H
  H47      1.0000 0.17280  0.26300  0.39900  Biso   1.000  H
  H48      1.0000 0.32720  0.73700  0.89900  Biso   1.000  H
  C49      1.0000 0.54080  0.70130  0.42170  Biso   1.000  C
  C50      1.0000 0.95920  0.29870  0.92170  Biso   1.000  C
  C51      1.0000 0.04080  0.79870  0.57830  Biso   1.000  C
  C52      1.0000 0.45920  0.20130  0.07830  Biso   1.000  C
  C53      1.0000 0.45920  0.29870  0.57830  Biso   1.000  C
  C54      1.0000 0.04080  0.70130  0.07830  Biso   1.000  C
  C55      1.0000 0.95920  0.20130  0.42170  Biso   1.000  C
  C56      1.0000 0.54080  0.79870  0.92170  Biso   1.000  C
  H49      1.0000 0.60960  0.66440  0.39900  Biso   1.000  H
  H50      1.0000 0.89040  0.33560  0.89900  Biso   1.000  H
  H51      1.0000 0.10960  0.83560  0.60100  Biso   1.000  H
  H52      1.0000 0.39040  0.16440  0.10100  Biso   1.000  H
  H53      1.0000 0.39040  0.33560  0.60100  Biso   1.000  H
  H54      1.0000 0.10960  0.66440  0.10100  Biso   1.000  H
  H55      1.0000 0.89040  0.16440  0.39900  Biso   1.000  H
  H56      1.0000 0.60960  0.83560  0.89900  Biso   1.000  H
  H57      1.0000 0.61630  0.74070  0.43730  Biso   1.000  H
  H58      1.0000 0.88370  0.25930  0.93730  Biso   1.000  H
  H59      1.0000 0.11630  0.75930  0.56270  Biso   1.000  H
  H60      1.0000 0.38370  0.24070  0.06270  Biso   1.000  H
  H61      1.0000 0.38370  0.25930  0.56270  Biso   1.000  H
  H62      1.0000 0.11630  0.74070  0.06270  Biso   1.000  H
  H63      1.0000 0.88370  0.24070  0.43730  Biso   1.000  H
  H64      1.0000 0.61630  0.75930  0.93730  Biso   1.000  H
  C57      1.0000 0.45910  0.66260  0.47790  Biso   1.000  C
  C58      1.0000 0.04090  0.33740  0.97790  Biso   1.000  C
  C59      1.0000 0.95910  0.83740  0.52210  Biso   1.000  C
  C60      1.0000 0.54090  0.16260  0.02210  Biso   1.000  C
  C61      1.0000 0.54090  0.33740  0.52210  Biso   1.000  C
  C62      1.0000 0.95910  0.66260  0.02210  Biso   1.000  C
  C63      1.0000 0.04090  0.16260  0.47790  Biso   1.000  C
  C64      1.0000 0.45910  0.83740  0.97790  Biso   1.000  C
  C65      1.0000 0.55970  0.60960  0.51720  Biso   1.000  C
  C66      1.0000 0.94030  0.39040  0.01720  Biso   1.000  C
  C67      1.0000 0.05970  0.89040  0.48280  Biso   1.000  C
  C68      1.0000 0.44030  0.10960  0.98280  Biso   1.000  C
  C69      1.0000 0.44030  0.39040  0.48280  Biso   1.000  C
  C70      1.0000 0.05970  0.60960  0.98280  Biso   1.000  C
  C71      1.0000 0.94030  0.10960  0.51720  Biso   1.000  C
  C72      1.0000 0.55970  0.89040  0.01720  Biso   1.000  C
  C73      1.0000 0.73360  0.60270  0.50810  Biso   1.000  C
  C74      1.0000 0.76640  0.39730  0.00810  Biso   1.000  C
  C75      1.0000 0.23360  0.89730  0.49190  Biso   1.000  C
  C76      1.0000 0.26640  0.10270  0.99190  Biso   1.000  C
  C77      1.0000 0.26640  0.39730  0.49190  Biso   1.000  C
  C78      1.0000 0.23360  0.60270  0.99190  Biso   1.000  C
  C79      1.0000 0.76640  0.10270  0.50810  Biso   1.000  C
  C80      1.0000 0.73360  0.89730  0.00810  Biso   1.000  C
  H65      1.0000 0.79080  0.63320  0.47900  Biso   1.000  H
  H66      1.0000 0.70920  0.36680  0.97900  Biso   1.000  H
  H67      1.0000 0.29080  0.86680  0.52100  Biso   1.000  H
  H68      1.0000 0.20920  0.13320  0.02100  Biso   1.000  H
  H69      1.0000 0.20920  0.36680  0.52100  Biso   1.000  H
  H70      1.0000 0.29080  0.63320  0.02100  Biso   1.000  H
  H71      1.0000 0.70920  0.13320  0.47900  Biso   1.000  H
  H72      1.0000 0.79080  0.86680  0.97900  Biso   1.000  H
  C81      1.0000 0.81860  0.54940  0.54370  Biso   1.000  C
  C82      1.0000 0.68140  0.45060  0.04370  Biso   1.000  C
  C83      1.0000 0.31860  0.95060  0.45630  Biso   1.000  C
  C84      1.0000 0.18140  0.04940  0.95630  Biso   1.000  C
  C85      1.0000 0.18140  0.45060  0.45630  Biso   1.000  C
  C86      1.0000 0.31860  0.54940  0.95630  Biso   1.000  C
  C87      1.0000 0.68140  0.04940  0.54370  Biso   1.000  C
  C88      1.0000 0.81860  0.95060  0.04370  Biso   1.000  C
  H73      1.0000 0.93430  0.54240  0.53680  Biso   1.000  H
  H74      1.0000 0.56570  0.45760  0.03680  Biso   1.000  H
  H75      1.0000 0.43430  0.95760  0.46320  Biso   1.000  H
  H76      1.0000 0.06570  0.04240  0.96320  Biso   1.000  H
  H77      1.0000 0.06570  0.45760  0.46320  Biso   1.000  H
  H78      1.0000 0.43430  0.54240  0.96320  Biso   1.000  H
  H79      1.0000 0.56570  0.04240  0.53680  Biso   1.000  H
  H80      1.0000 0.93430  0.95760  0.03680  Biso   1.000  H
  C89      1.0000 0.73950  0.50630  0.58870  Biso   1.000  C
  C90      1.0000 0.76050  0.49370  0.08870  Biso   1.000  C
  C91      1.0000 0.23950  0.99370  0.41130  Biso   1.000  C
  C92      1.0000 0.26050  0.00630  0.91130  Biso   1.000  C
  C93      1.0000 0.26050  0.49370  0.41130  Biso   1.000  C
  C94      1.0000 0.23950  0.50630  0.91130  Biso   1.000  C
  C95      1.0000 0.76050  0.00630  0.58870  Biso   1.000  C
  C96      1.0000 0.73950  0.99370  0.08870  Biso   1.000  C
  H81      1.0000 0.80150  0.47150  0.61250  Biso   1.000  H
  H82      1.0000 0.69850  0.52850  0.11250  Biso   1.000  H
  H83      1.0000 0.30150  0.02850  0.38750  Biso   1.000  H
  H84      1.0000 0.19850  0.97150  0.88750  Biso   1.000  H
  H85      1.0000 0.19850  0.52850  0.38750  Biso   1.000  H
  H86      1.0000 0.30150  0.47150  0.88750  Biso   1.000  H
  H87      1.0000 0.69850  0.97150  0.61250  Biso   1.000  H
  H88      1.0000 0.80150  0.02850  0.11250  Biso   1.000  H
  C97      1.0000 0.56700  0.51440  0.59890  Biso   1.000  C
  C98      1.0000 0.93300  0.48560  0.09890  Biso   1.000  C
  C99      1.0000 0.06700  0.98560  0.40110  Biso   1.000  C
  C100     1.0000 0.43300  0.01440  0.90110  Biso   1.000  C
  C101     1.0000 0.43300  0.48560  0.40110  Biso   1.000  C
  C102     1.0000 0.06700  0.51440  0.90110  Biso   1.000  C
  C103     1.0000 0.93300  0.01440  0.59890  Biso   1.000  C
  C104     1.0000 0.56700  0.98560  0.09890  Biso   1.000  C
  H89      1.0000 0.51190  0.48570  0.62990  Biso   1.000  H
  H90      1.0000 0.98810  0.51430  0.12990  Biso   1.000  H
  H91      1.0000 0.01190  0.01430  0.37010  Biso   1.000  H
  H92      1.0000 0.48810  0.98570  0.87010  Biso   1.000  H
  H93      1.0000 0.48810  0.51430  0.37010  Biso   1.000  H
  H94      1.0000 0.01190  0.48570  0.87010  Biso   1.000  H
  H95      1.0000 0.98810  0.98570  0.62990  Biso   1.000  H
  H96      1.0000 0.51190  0.01430  0.12990  Biso   1.000  H
  C105     1.0000 0.47930  0.56550  0.56270  Biso   1.000  C
  C106     1.0000 0.02070  0.43450  0.06270  Biso   1.000  C
  C107     1.0000 0.97930  0.93450  0.43730  Biso   1.000  C
  C108     1.0000 0.52070  0.06550  0.93730  Biso   1.000  C
  C109     1.0000 0.52070  0.43450  0.43730  Biso   1.000  C
  C110     1.0000 0.97930  0.56550  0.93730  Biso   1.000  C
  C111     1.0000 0.02070  0.06550  0.56270  Biso   1.000  C
  C112     1.0000 0.47930  0.93450  0.06270  Biso   1.000  C
  H97      1.0000 0.36290  0.57080  0.56880  Biso   1.000  H
  H98      1.0000 0.13710  0.42920  0.06880  Biso   1.000  H
  H99      1.0000 0.86290  0.92920  0.43120  Biso   1.000  H
  H100     1.0000 0.63710  0.07080  0.93120  Biso   1.000  H
  H101     1.0000 0.63710  0.42920  0.43120  Biso   1.000  H
  H102     1.0000 0.86290  0.57080  0.93120  Biso   1.000  H
  H103     1.0000 0.13710  0.07080  0.56880  Biso   1.000  H
  H104     1.0000 0.36290  0.92920  0.06880  Biso   1.000  H
