data_image0
_cell_length_a       30.244
_cell_length_b       9.5735
_cell_length_c       25.011
_cell_angle_alpha    90
_cell_angle_beta     122.941
_cell_angle_gamma    90

_symmetry_space_group_name_H-M    "P 1"
_symmetry_int_tables_number       1

loop_
  _symmetry_equiv_pos_as_xyz
  'x, y, z'

loop_
  _atom_site_label
  _atom_site_occupancy
  _atom_site_fract_x
  _atom_site_fract_y
  _atom_site_fract_z
  _atom_site_thermal_displace_type
  _atom_site_B_iso_or_equiv
  _atom_site_type_symbol
  Cu1      1.0000 0.50000  0.00000  0.50000  Biso   1.000  Cu
  Cu2      1.0000 0.00000  0.50000  0.50000  Biso   1.000  Cu
  Cu3      1.0000 0.50000  0.00000  0.00000  Biso   1.000  Cu
  Cu4      1.0000 0.00000  0.50000  0.00000  Biso   1.000  Cu
  Cu5      1.0000 0.75000  0.75000  0.50000  Biso   1.000  Cu
  Cu6      1.0000 0.25000  0.25000  0.50000  Biso   1.000  Cu
  Cu7      1.0000 0.25000  0.75000  0.00000  Biso   1.000  Cu
  Cu8      1.0000 0.75000  0.25000  0.00000  Biso   1.000  Cu
  O1       1.0000 0.50295  0.90230  0.57554  Biso   1.000  O
  O2       1.0000 0.00295  0.40230  0.57554  Biso   1.000  O
  O3       1.0000 0.49705  0.90230  0.92446  Biso   1.000  O
  O4       1.0000 0.99705  0.40230  0.92446  Biso   1.000  O
  O5       1.0000 0.49705  0.09770  0.42446  Biso   1.000  O
  O6       1.0000 0.99705  0.59770  0.42446  Biso   1.000  O
  O7       1.0000 0.50295  0.09770  0.07554  Biso   1.000  O
  O8       1.0000 0.00295  0.59770  0.07554  Biso   1.000  O
  O9       1.0000 0.80985  0.82700  0.58728  Biso   1.000  O
  O10      1.0000 0.30985  0.32700  0.58728  Biso   1.000  O
  O11      1.0000 0.19015  0.82700  0.91272  Biso   1.000  O
  O12      1.0000 0.69015  0.32700  0.91272  Biso   1.000  O
  O13      1.0000 0.19015  0.17300  0.41272  Biso   1.000  O
  O14      1.0000 0.69015  0.67300  0.41272  Biso   1.000  O
  O15      1.0000 0.80985  0.17300  0.08728  Biso   1.000  O
  O16      1.0000 0.30985  0.67300  0.08728  Biso   1.000  O
  O17      1.0000 0.57150  0.13210  0.55562  Biso   1.000  O
  O18      1.0000 0.07150  0.63210  0.55562  Biso   1.000  O
  O19      1.0000 0.42850  0.13210  0.94438  Biso   1.000  O
  O20      1.0000 0.92850  0.63210  0.94438  Biso   1.000  O
  O21      1.0000 0.42850  0.86790  0.44438  Biso   1.000  O
  O22      1.0000 0.92850  0.36790  0.44438  Biso   1.000  O
  O23      1.0000 0.57150  0.86790  0.05562  Biso   1.000  O
  O24      1.0000 0.07150  0.36790  0.05562  Biso   1.000  O
  O25      1.0000 0.75736  0.91410  0.45527  Biso   1.000  O
  O26      1.0000 0.25736  0.41410  0.45527  Biso   1.000  O
  O27      1.0000 0.24264  0.91410  0.04473  Biso   1.000  O
  O28      1.0000 0.74264  0.41410  0.04473  Biso   1.000  O
  O29      1.0000 0.24264  0.08590  0.54473  Biso   1.000  O
  O30      1.0000 0.74264  0.58590  0.54473  Biso   1.000  O
  O31      1.0000 0.75736  0.08590  0.95527  Biso   1.000  O
  O32      1.0000 0.25736  0.58590  0.95527  Biso   1.000  O
  N1       1.0000 0.69488  0.87860  0.51383  Biso   1.000  N
  N2       1.0000 0.19488  0.37860  0.51383  Biso   1.000  N
  N3       1.0000 0.30512  0.87860  0.98617  Biso   1.000  N
  N4       1.0000 0.80512  0.37860  0.98617  Biso   1.000  N
  N5       1.0000 0.30512  0.12140  0.48617  Biso   1.000  N
  N6       1.0000 0.80512  0.62140  0.48617  Biso   1.000  N
  N7       1.0000 0.69488  0.12140  0.01383  Biso   1.000  N
  N8       1.0000 0.19488  0.62140  0.01383  Biso   1.000  N
  N9       1.0000 0.61397  0.09920  0.61011  Biso   1.000  N
  N10      1.0000 0.11397  0.59920  0.61011  Biso   1.000  N
  N11      1.0000 0.38603  0.09920  0.88989  Biso   1.000  N
  N12      1.0000 0.88603  0.59920  0.88989  Biso   1.000  N
  N13      1.0000 0.38603  0.90080  0.38989  Biso   1.000  N
  N14      1.0000 0.88603  0.40080  0.38989  Biso   1.000  N
  N15      1.0000 0.61397  0.90080  0.11011  Biso   1.000  N
  N16      1.0000 0.11397  0.40080  0.11011  Biso   1.000  N
  O33      1.0000 0.54008  0.84210  0.49501  Biso   1.000  O
  O34      1.0000 0.04008  0.34210  0.49501  Biso   1.000  O
  O35      1.0000 0.45992  0.84210  0.00499  Biso   1.000  O
  O36      1.0000 0.95992  0.34210  0.00499  Biso   1.000  O
  O37      1.0000 0.45992  0.15790  0.50499  Biso   1.000  O
  O38      1.0000 0.95992  0.65790  0.50499  Biso   1.000  O
  O39      1.0000 0.54008  0.15790  0.99501  Biso   1.000  O
  O40      1.0000 0.04008  0.65790  0.99501  Biso   1.000  O
  C1       1.0000 0.70180  0.89940  0.57110  Biso   1.000  C
  C2       1.0000 0.20180  0.39940  0.57110  Biso   1.000  C
  C3       1.0000 0.29820  0.89940  0.92890  Biso   1.000  C
  C4       1.0000 0.79820  0.39940  0.92890  Biso   1.000  C
  C5       1.0000 0.29820  0.10060  0.42890  Biso   1.000  C
  C6       1.0000 0.79820  0.60060  0.42890  Biso   1.000  C
  C7       1.0000 0.70180  0.10060  0.07110  Biso   1.000  C
  C8       1.0000 0.20180  0.60060  0.07110  Biso   1.000  C
  H1       1.0000 0.73300  0.85500  0.60600  Biso   1.000  H
  H2       1.0000 0.23300  0.35500  0.60600  Biso   1.000  H
  H3       1.0000 0.26700  0.85500  0.89400  Biso   1.000  H
  H4       1.0000 0.76700  0.35500  0.89400  Biso   1.000  H
  H5       1.0000 0.26700  0.14500  0.39400  Biso   1.000  H
  H6       1.0000 0.76700  0.64500  0.39400  Biso   1.000  H
  H7       1.0000 0.73300  0.14500  0.10600  Biso   1.000  H
  H8       1.0000 0.23300  0.64500  0.10600  Biso   1.000  H
  N17      1.0000 0.64918  0.95110  0.47199  Biso   1.000  N
  N18      1.0000 0.14918  0.45110  0.47199  Biso   1.000  N
  N19      1.0000 0.35082  0.95110  0.02801  Biso   1.000  N
  N20      1.0000 0.85082  0.45110  0.02801  Biso   1.000  N
  N21      1.0000 0.35082  0.04890  0.52801  Biso   1.000  N
  N22      1.0000 0.85082  0.54890  0.52801  Biso   1.000  N
  N23      1.0000 0.64918  0.04890  0.97199  Biso   1.000  N
  N24      1.0000 0.14918  0.54890  0.97199  Biso   1.000  N
  N25      1.0000 0.69327  0.01950  0.68100  Biso   1.000  N
  N26      1.0000 0.19327  0.51950  0.68100  Biso   1.000  N
  N27      1.0000 0.30673  0.01950  0.81900  Biso   1.000  N
  N28      1.0000 0.80673  0.51950  0.81900  Biso   1.000  N
  N29      1.0000 0.30673  0.98050  0.31900  Biso   1.000  N
  N30      1.0000 0.80673  0.48050  0.31900  Biso   1.000  N
  N31      1.0000 0.69327  0.98050  0.18100  Biso   1.000  N
  N32      1.0000 0.19327  0.48050  0.18100  Biso   1.000  N
  C9       1.0000 0.82903  0.94730  0.59500  Biso   1.000  C
  C10      1.0000 0.32903  0.44730  0.59500  Biso   1.000  C
  C11      1.0000 0.17097  0.94730  0.90500  Biso   1.000  C
  C12      1.0000 0.67097  0.44730  0.90500  Biso   1.000  C
  C13      1.0000 0.17097  0.05270  0.40500  Biso   1.000  C
  C14      1.0000 0.67097  0.55270  0.40500  Biso   1.000  C
  C15      1.0000 0.82903  0.05270  0.09500  Biso   1.000  C
  C16      1.0000 0.32903  0.55270  0.09500  Biso   1.000  C
  C17      1.0000 0.65590  0.03000  0.61710  Biso   1.000  C
  C18      1.0000 0.15590  0.53000  0.61710  Biso   1.000  C
  C19      1.0000 0.34410  0.03000  0.88290  Biso   1.000  C
  C20      1.0000 0.84410  0.53000  0.88290  Biso   1.000  C
  C21      1.0000 0.34410  0.97000  0.38290  Biso   1.000  C
  C22      1.0000 0.84410  0.47000  0.38290  Biso   1.000  C
  C23      1.0000 0.65590  0.97000  0.11710  Biso   1.000  C
  C24      1.0000 0.15590  0.47000  0.11710  Biso   1.000  C
  C25      1.0000 0.66173  0.98240  0.56700  Biso   1.000  C
  C26      1.0000 0.16173  0.48240  0.56700  Biso   1.000  C
  C27      1.0000 0.33827  0.98240  0.93300  Biso   1.000  C
  C28      1.0000 0.83827  0.48240  0.93300  Biso   1.000  C
  C29      1.0000 0.33827  0.01760  0.43300  Biso   1.000  C
  C30      1.0000 0.83827  0.51760  0.43300  Biso   1.000  C
  C31      1.0000 0.66173  0.01760  0.06700  Biso   1.000  C
  C32      1.0000 0.16173  0.51760  0.06700  Biso   1.000  C
  C33      1.0000 0.78318  0.02240  0.48350  Biso   1.000  C
  C34      1.0000 0.28318  0.52240  0.48350  Biso   1.000  C
  C35      1.0000 0.21682  0.02240  0.01650  Biso   1.000  C
  C36      1.0000 0.71682  0.52240  0.01650  Biso   1.000  C
  C37      1.0000 0.21682  0.97760  0.51650  Biso   1.000  C
  C38      1.0000 0.71682  0.47760  0.51650  Biso   1.000  C
  C39      1.0000 0.78318  0.97760  0.98350  Biso   1.000  C
  C40      1.0000 0.28318  0.47760  0.98350  Biso   1.000  C
  C41      1.0000 0.62850  0.01250  0.50180  Biso   1.000  C
  C42      1.0000 0.12850  0.51250  0.50180  Biso   1.000  C
  C43      1.0000 0.37150  0.01250  0.99820  Biso   1.000  C
  C44      1.0000 0.87150  0.51250  0.99820  Biso   1.000  C
  C45      1.0000 0.37150  0.98750  0.49820  Biso   1.000  C
  C46      1.0000 0.87150  0.48750  0.49820  Biso   1.000  C
  C47      1.0000 0.62850  0.98750  0.00180  Biso   1.000  C
  C48      1.0000 0.12850  0.48750  0.00180  Biso   1.000  C
  H9       1.0000 0.59600  0.07000  0.48100  Biso   1.000  H
  H10      1.0000 0.09600  0.57000  0.48100  Biso   1.000  H
  H11      1.0000 0.40400  0.07000  0.01900  Biso   1.000  H
  H12      1.0000 0.90400  0.57000  0.01900  Biso   1.000  H
  H13      1.0000 0.40400  0.93000  0.51900  Biso   1.000  H
  H14      1.0000 0.90400  0.43000  0.51900  Biso   1.000  H
  H15      1.0000 0.59600  0.93000  0.98100  Biso   1.000  H
  H16      1.0000 0.09600  0.43000  0.98100  Biso   1.000  H
  C49      1.0000 0.55080  0.72690  0.52430  Biso   1.000  C
  C50      1.0000 0.05080  0.22690  0.52430  Biso   1.000  C
  C51      1.0000 0.44920  0.72690  0.97570  Biso   1.000  C
  C52      1.0000 0.94920  0.22690  0.97570  Biso   1.000  C
  C53      1.0000 0.44920  0.27310  0.47570  Biso   1.000  C
  C54      1.0000 0.94920  0.77310  0.47570  Biso   1.000  C
  C55      1.0000 0.55080  0.27310  0.02430  Biso   1.000  C
  C56      1.0000 0.05080  0.77310  0.02430  Biso   1.000  C
  C57      1.0000 0.51760  0.77810  0.59240  Biso   1.000  C
  C58      1.0000 0.01760  0.27810  0.59240  Biso   1.000  C
  C59      1.0000 0.48240  0.77810  0.90760  Biso   1.000  C
  C60      1.0000 0.98240  0.27810  0.90760  Biso   1.000  C
  C61      1.0000 0.48240  0.22190  0.40760  Biso   1.000  C
  C62      1.0000 0.98240  0.72190  0.40760  Biso   1.000  C
  C63      1.0000 0.51760  0.22190  0.09240  Biso   1.000  C
  C64      1.0000 0.01760  0.72190  0.09240  Biso   1.000  C
  O41      1.0000 0.73825  0.96190  0.70498  Biso   1.000  O
  O42      1.0000 0.23825  0.46190  0.70498  Biso   1.000  O
  O43      1.0000 0.26175  0.96190  0.79502  Biso   1.000  O
  O44      1.0000 0.76175  0.46190  0.79502  Biso   1.000  O
  O45      1.0000 0.26175  0.03810  0.29502  Biso   1.000  O
  O46      1.0000 0.76175  0.53810  0.29502  Biso   1.000  O
  O47      1.0000 0.73825  0.03810  0.20498  Biso   1.000  O
  O48      1.0000 0.23825  0.53810  0.20498  Biso   1.000  O
  C65      1.0000 0.67160  0.06180  0.72050  Biso   1.000  C
  C66      1.0000 0.17160  0.56180  0.72050  Biso   1.000  C
  C67      1.0000 0.32840  0.06180  0.77950  Biso   1.000  C
  C68      1.0000 0.82840  0.56180  0.77950  Biso   1.000  C
  C69      1.0000 0.32840  0.93820  0.27950  Biso   1.000  C
  C70      1.0000 0.82840  0.43820  0.27950  Biso   1.000  C
  C71      1.0000 0.67160  0.93820  0.22050  Biso   1.000  C
  C72      1.0000 0.17160  0.43820  0.22050  Biso   1.000  C
  C73      1.0000 0.81850  0.04610  0.54800  Biso   1.000  C
  C74      1.0000 0.31850  0.54610  0.54800  Biso   1.000  C
  C75      1.0000 0.18150  0.04610  0.95200  Biso   1.000  C
  C76      1.0000 0.68150  0.54610  0.95200  Biso   1.000  C
  C77      1.0000 0.18150  0.95390  0.45200  Biso   1.000  C
  C78      1.0000 0.68150  0.45390  0.45200  Biso   1.000  C
  C79      1.0000 0.81850  0.95390  0.04800  Biso   1.000  C
  C80      1.0000 0.31850  0.45390  0.04800  Biso   1.000  C
  H17      1.0000 0.83600  0.13400  0.56000  Biso   1.000  H
  H18      1.0000 0.33600  0.63400  0.56000  Biso   1.000  H
  H19      1.0000 0.16400  0.13400  0.94000  Biso   1.000  H
  H20      1.0000 0.66400  0.63400  0.94000  Biso   1.000  H
  H21      1.0000 0.16400  0.86600  0.44000  Biso   1.000  H
  H22      1.0000 0.66400  0.36600  0.44000  Biso   1.000  H
  H23      1.0000 0.83600  0.86600  0.06000  Biso   1.000  H
  H24      1.0000 0.33600  0.36600  0.06000  Biso   1.000  H
  C81      1.0000 0.62560  0.15950  0.67230  Biso   1.000  C
  C82      1.0000 0.12560  0.65950  0.67230  Biso   1.000  C
  C83      1.0000 0.37440  0.15950  0.82770  Biso   1.000  C
  C84      1.0000 0.87440  0.65950  0.82770  Biso   1.000  C
  C85      1.0000 0.37440  0.84050  0.32770  Biso   1.000  C
  C86      1.0000 0.87440  0.34050  0.32770  Biso   1.000  C
  C87      1.0000 0.62560  0.84050  0.17230  Biso   1.000  C
  C88      1.0000 0.12560  0.34050  0.17230  Biso   1.000  C
  C89      1.0000 0.77430  0.14510  0.43780  Biso   1.000  C
  C90      1.0000 0.27430  0.64510  0.43780  Biso   1.000  C
  C91      1.0000 0.22570  0.14510  0.06220  Biso   1.000  C
  C92      1.0000 0.72570  0.64510  0.06220  Biso   1.000  C
  C93      1.0000 0.22570  0.85490  0.56220  Biso   1.000  C
  C94      1.0000 0.72570  0.35490  0.56220  Biso   1.000  C
  C95      1.0000 0.77430  0.85490  0.93780  Biso   1.000  C
  C96      1.0000 0.27430  0.35490  0.93780  Biso   1.000  C
  F1       1.0000 0.52560  0.81040  0.69150  Biso   1.000  F
  F2       1.0000 0.02560  0.31040  0.69150  Biso   1.000  F
  F3       1.0000 0.47440  0.81040  0.80850  Biso   1.000  F
  F4       1.0000 0.97440  0.31040  0.80850  Biso   1.000  F
  F5       1.0000 0.47440  0.18960  0.30850  Biso   1.000  F
  F6       1.0000 0.97440  0.68960  0.30850  Biso   1.000  F
  F7       1.0000 0.52560  0.18960  0.19150  Biso   1.000  F
  F8       1.0000 0.02560  0.68960  0.19150  Biso   1.000  F
  F9       1.0000 0.45521  0.71300  0.61620  Biso   1.000  F
  F10      1.0000 0.95521  0.21300  0.61620  Biso   1.000  F
  F11      1.0000 0.54479  0.71300  0.88380  Biso   1.000  F
  F12      1.0000 0.04479  0.21300  0.88380  Biso   1.000  F
  F13      1.0000 0.54479  0.28700  0.38380  Biso   1.000  F
  F14      1.0000 0.04479  0.78700  0.38380  Biso   1.000  F
  F15      1.0000 0.45521  0.28700  0.11620  Biso   1.000  F
  F16      1.0000 0.95521  0.78700  0.11620  Biso   1.000  F
  C97      1.0000 0.64370  0.31200  0.67300  Biso   1.000  C
  C98      1.0000 0.14370  0.81200  0.67300  Biso   1.000  C
  C99      1.0000 0.35630  0.31200  0.82700  Biso   1.000  C
  C100     1.0000 0.85630  0.81200  0.82700  Biso   1.000  C
  C101     1.0000 0.35630  0.68800  0.32700  Biso   1.000  C
  C102     1.0000 0.85630  0.18800  0.32700  Biso   1.000  C
  C103     1.0000 0.64370  0.68800  0.17300  Biso   1.000  C
  C104     1.0000 0.14370  0.18800  0.17300  Biso   1.000  C
  H25      1.0000 0.67500  0.31800  0.67900  Biso   1.000  H
  H26      1.0000 0.17500  0.81800  0.67900  Biso   1.000  H
  H27      1.0000 0.32500  0.31800  0.82100  Biso   1.000  H
  H28      1.0000 0.82500  0.81800  0.82100  Biso   1.000  H
  H29      1.0000 0.32500  0.68200  0.32100  Biso   1.000  H
  H30      1.0000 0.82500  0.18200  0.32100  Biso   1.000  H
  H31      1.0000 0.67500  0.68200  0.17900  Biso   1.000  H
  H32      1.0000 0.17500  0.18200  0.17900  Biso   1.000  H
  H33      1.0000 0.64550  0.37200  0.70800  Biso   1.000  H
  H34      1.0000 0.14550  0.87200  0.70800  Biso   1.000  H
  H35      1.0000 0.35450  0.37200  0.79200  Biso   1.000  H
  H36      1.0000 0.85450  0.87200  0.79200  Biso   1.000  H
  H37      1.0000 0.35450  0.62800  0.29200  Biso   1.000  H
  H38      1.0000 0.85450  0.12800  0.29200  Biso   1.000  H
  H39      1.0000 0.64550  0.62800  0.20800  Biso   1.000  H
  H40      1.0000 0.14550  0.12800  0.20800  Biso   1.000  H
  H41      1.0000 0.60800  0.35200  0.63300  Biso   1.000  H
  H42      1.0000 0.10800  0.85200  0.63300  Biso   1.000  H
  H43      1.0000 0.39200  0.35200  0.86700  Biso   1.000  H
  H44      1.0000 0.89200  0.85200  0.86700  Biso   1.000  H
  H45      1.0000 0.39200  0.64800  0.36700  Biso   1.000  H
  H46      1.0000 0.89200  0.14800  0.36700  Biso   1.000  H
  H47      1.0000 0.60800  0.64800  0.13300  Biso   1.000  H
  H48      1.0000 0.10800  0.14800  0.13300  Biso   1.000  H
  C105     1.0000 0.57680  0.16030  0.67520  Biso   1.000  C
  C106     1.0000 0.07680  0.66030  0.67520  Biso   1.000  C
  C107     1.0000 0.42320  0.16030  0.82480  Biso   1.000  C
  C108     1.0000 0.92320  0.66030  0.82480  Biso   1.000  C
  C109     1.0000 0.42320  0.83970  0.32480  Biso   1.000  C
  C110     1.0000 0.92320  0.33970  0.32480  Biso   1.000  C
  C111     1.0000 0.57680  0.83970  0.17520  Biso   1.000  C
  C112     1.0000 0.07680  0.33970  0.17520  Biso   1.000  C
  H49      1.0000 0.54600  0.23600  0.63600  Biso   1.000  H
  H50      1.0000 0.04600  0.73600  0.63600  Biso   1.000  H
  H51      1.0000 0.45400  0.23600  0.86400  Biso   1.000  H
  H52      1.0000 0.95400  0.73600  0.86400  Biso   1.000  H
  H53      1.0000 0.45400  0.76400  0.36400  Biso   1.000  H
  H54      1.0000 0.95400  0.26400  0.36400  Biso   1.000  H
  H55      1.0000 0.54600  0.76400  0.13600  Biso   1.000  H
  H56      1.0000 0.04600  0.26400  0.13600  Biso   1.000  H
  H57      1.0000 0.58640  0.20100  0.71700  Biso   1.000  H
  H58      1.0000 0.08640  0.70100  0.71700  Biso   1.000  H
  H59      1.0000 0.41360  0.20100  0.78300  Biso   1.000  H
  H60      1.0000 0.91360  0.70100  0.78300  Biso   1.000  H
  H61      1.0000 0.41360  0.79900  0.28300  Biso   1.000  H
  H62      1.0000 0.91360  0.29900  0.28300  Biso   1.000  H
  H63      1.0000 0.58640  0.79900  0.21700  Biso   1.000  H
  H64      1.0000 0.08640  0.29900  0.21700  Biso   1.000  H
  H65      1.0000 0.56100  0.09000  0.67400  Biso   1.000  H
  H66      1.0000 0.06100  0.59000  0.67400  Biso   1.000  H
  H67      1.0000 0.43900  0.09000  0.82600  Biso   1.000  H
  H68      1.0000 0.93900  0.59000  0.82600  Biso   1.000  H
  H69      1.0000 0.43900  0.91000  0.32600  Biso   1.000  H
  H70      1.0000 0.93900  0.41000  0.32600  Biso   1.000  H
  H71      1.0000 0.56100  0.91000  0.17400  Biso   1.000  H
  H72      1.0000 0.06100  0.41000  0.17400  Biso   1.000  H
  C113     1.0000 0.62820  0.95770  0.40330  Biso   1.000  C
  C114     1.0000 0.12820  0.45770  0.40330  Biso   1.000  C
  C115     1.0000 0.37180  0.95770  0.09670  Biso   1.000  C
  C116     1.0000 0.87180  0.45770  0.09670  Biso   1.000  C
  C117     1.0000 0.37180  0.04230  0.59670  Biso   1.000  C
  C118     1.0000 0.87180  0.54230  0.59670  Biso   1.000  C
  C119     1.0000 0.62820  0.04230  0.90330  Biso   1.000  C
  C120     1.0000 0.12820  0.54230  0.90330  Biso   1.000  C
  H73      1.0000 0.65000  0.92200  0.39200  Biso   1.000  H
  H74      1.0000 0.15000  0.42200  0.39200  Biso   1.000  H
  H75      1.0000 0.35000  0.92200  0.10800  Biso   1.000  H
  H76      1.0000 0.85000  0.42200  0.10800  Biso   1.000  H
  H77      1.0000 0.35000  0.07800  0.60800  Biso   1.000  H
  H78      1.0000 0.85000  0.57800  0.60800  Biso   1.000  H
  H79      1.0000 0.65000  0.07800  0.89200  Biso   1.000  H
  H80      1.0000 0.15000  0.57800  0.89200  Biso   1.000  H
  H81      1.0000 0.61600  0.05000  0.37900  Biso   1.000  H
  H82      1.0000 0.11600  0.55000  0.37900  Biso   1.000  H
  H83      1.0000 0.38400  0.05000  0.12100  Biso   1.000  H
  H84      1.0000 0.88400  0.55000  0.12100  Biso   1.000  H
  H85      1.0000 0.38400  0.95000  0.62100  Biso   1.000  H
  H86      1.0000 0.88400  0.45000  0.62100  Biso   1.000  H
  H87      1.0000 0.61600  0.95000  0.87900  Biso   1.000  H
  H88      1.0000 0.11600  0.45000  0.87900  Biso   1.000  H
  C121     1.0000 0.86780  0.98850  0.66530  Biso   1.000  C
  C122     1.0000 0.36780  0.48850  0.66530  Biso   1.000  C
  C123     1.0000 0.13220  0.98850  0.83470  Biso   1.000  C
  C124     1.0000 0.63220  0.48850  0.83470  Biso   1.000  C
  C125     1.0000 0.13220  0.01150  0.33470  Biso   1.000  C
  C126     1.0000 0.63220  0.51150  0.33470  Biso   1.000  C
  C127     1.0000 0.86780  0.01150  0.16530  Biso   1.000  C
  C128     1.0000 0.36780  0.51150  0.16530  Biso   1.000  C
  C129     1.0000 0.65260  0.92770  0.73560  Biso   1.000  C
  C130     1.0000 0.15260  0.42770  0.73560  Biso   1.000  C
  C131     1.0000 0.34740  0.92770  0.76440  Biso   1.000  C
  C132     1.0000 0.84740  0.42770  0.76440  Biso   1.000  C
  C133     1.0000 0.34740  0.07230  0.26440  Biso   1.000  C
  C134     1.0000 0.84740  0.57230  0.26440  Biso   1.000  C
  C135     1.0000 0.65260  0.07230  0.23560  Biso   1.000  C
  C136     1.0000 0.15260  0.57230  0.23560  Biso   1.000  C
  H89      1.0000 0.62610  0.89400  0.69800  Biso   1.000  H
  H90      1.0000 0.12610  0.39400  0.69800  Biso   1.000  H
  H91      1.0000 0.37390  0.89400  0.80200  Biso   1.000  H
  H92      1.0000 0.87390  0.39400  0.80200  Biso   1.000  H
  H93      1.0000 0.37390  0.10600  0.30200  Biso   1.000  H
  H94      1.0000 0.87390  0.60600  0.30200  Biso   1.000  H
  H95      1.0000 0.62610  0.10600  0.19800  Biso   1.000  H
  H96      1.0000 0.12610  0.60600  0.19800  Biso   1.000  H
  H97      1.0000 0.63900  0.94900  0.76600  Biso   1.000  H
  H98      1.0000 0.13900  0.44900  0.76600  Biso   1.000  H
  H99      1.0000 0.36100  0.94900  0.73400  Biso   1.000  H
  H100     1.0000 0.86100  0.44900  0.73400  Biso   1.000  H
  H101     1.0000 0.36100  0.05100  0.23400  Biso   1.000  H
  H102     1.0000 0.86100  0.55100  0.23400  Biso   1.000  H
  H103     1.0000 0.63900  0.05100  0.26600  Biso   1.000  H
  H104     1.0000 0.13900  0.55100  0.26600  Biso   1.000  H
  H105     1.0000 0.68300  0.86600  0.75700  Biso   1.000  H
  H106     1.0000 0.18300  0.36600  0.75700  Biso   1.000  H
  H107     1.0000 0.31700  0.86600  0.74300  Biso   1.000  H
  H108     1.0000 0.81700  0.36600  0.74300  Biso   1.000  H
  H109     1.0000 0.31700  0.13400  0.24300  Biso   1.000  H
  H110     1.0000 0.81700  0.63400  0.24300  Biso   1.000  H
  H111     1.0000 0.68300  0.13400  0.25700  Biso   1.000  H
  H112     1.0000 0.18300  0.63400  0.25700  Biso   1.000  H
  F17      1.0000 0.52690  0.59920  0.66550  Biso   1.000  F
  F18      1.0000 0.02690  0.09920  0.66550  Biso   1.000  F
  F19      1.0000 0.47310  0.59920  0.83450  Biso   1.000  F
  F20      1.0000 0.97310  0.09920  0.83450  Biso   1.000  F
  F21      1.0000 0.47310  0.40080  0.33450  Biso   1.000  F
  F22      1.0000 0.97310  0.90080  0.33450  Biso   1.000  F
  F23      1.0000 0.52690  0.40080  0.16550  Biso   1.000  F
  F24      1.0000 0.02690  0.90080  0.16550  Biso   1.000  F
  C137     1.0000 0.54130  0.69060  0.57110  Biso   1.000  C
  C138     1.0000 0.04130  0.19060  0.57110  Biso   1.000  C
  C139     1.0000 0.45870  0.69060  0.92890  Biso   1.000  C
  C140     1.0000 0.95870  0.19060  0.92890  Biso   1.000  C
  C141     1.0000 0.45870  0.30940  0.42890  Biso   1.000  C
  C142     1.0000 0.95870  0.80940  0.42890  Biso   1.000  C
  C143     1.0000 0.54130  0.30940  0.07110  Biso   1.000  C
  C144     1.0000 0.04130  0.80940  0.07110  Biso   1.000  C
  H113     1.0000 0.54900  0.61300  0.58700  Biso   1.000  H
  H114     1.0000 0.04900  0.11300  0.58700  Biso   1.000  H
  H115     1.0000 0.45100  0.61300  0.91300  Biso   1.000  H
  H116     1.0000 0.95100  0.11300  0.91300  Biso   1.000  H
  H117     1.0000 0.45100  0.38700  0.41300  Biso   1.000  H
  H118     1.0000 0.95100  0.88700  0.41300  Biso   1.000  H
  H119     1.0000 0.54900  0.38700  0.08700  Biso   1.000  H
  H120     1.0000 0.04900  0.88700  0.08700  Biso   1.000  H
  C145     1.0000 0.71490  0.13230  0.78230  Biso   1.000  C
  C146     1.0000 0.21490  0.63230  0.78230  Biso   1.000  C
  C147     1.0000 0.28510  0.13230  0.71770  Biso   1.000  C
  C148     1.0000 0.78510  0.63230  0.71770  Biso   1.000  C
  C149     1.0000 0.28510  0.86770  0.21770  Biso   1.000  C
  C150     1.0000 0.78510  0.36770  0.21770  Biso   1.000  C
  C151     1.0000 0.71490  0.86770  0.28230  Biso   1.000  C
  C152     1.0000 0.21490  0.36770  0.28230  Biso   1.000  C
  H121     1.0000 0.74320  0.08100  0.80900  Biso   1.000  H
  H122     1.0000 0.24320  0.58100  0.80900  Biso   1.000  H
  H123     1.0000 0.25680  0.08100  0.69100  Biso   1.000  H
  H124     1.0000 0.75680  0.58100  0.69100  Biso   1.000  H
  H125     1.0000 0.25680  0.91900  0.19100  Biso   1.000  H
  H126     1.0000 0.75680  0.41900  0.19100  Biso   1.000  H
  H127     1.0000 0.74320  0.91900  0.30900  Biso   1.000  H
  H128     1.0000 0.24320  0.41900  0.30900  Biso   1.000  H
  H129     1.0000 0.70000  0.14500  0.80600  Biso   1.000  H
  H130     1.0000 0.20000  0.64500  0.80600  Biso   1.000  H
  H131     1.0000 0.30000  0.14500  0.69400  Biso   1.000  H
  H132     1.0000 0.80000  0.64500  0.69400  Biso   1.000  H
  H133     1.0000 0.30000  0.85500  0.19400  Biso   1.000  H
  H134     1.0000 0.80000  0.35500  0.19400  Biso   1.000  H
  H135     1.0000 0.70000  0.85500  0.30600  Biso   1.000  H
  H136     1.0000 0.20000  0.35500  0.30600  Biso   1.000  H
  H137     1.0000 0.72920  0.20400  0.77200  Biso   1.000  H
  H138     1.0000 0.22920  0.70400  0.77200  Biso   1.000  H
  H139     1.0000 0.27080  0.20400  0.72800  Biso   1.000  H
  H140     1.0000 0.77080  0.70400  0.72800  Biso   1.000  H
  H141     1.0000 0.27080  0.79600  0.22800  Biso   1.000  H
  H142     1.0000 0.77080  0.29600  0.22800  Biso   1.000  H
  H143     1.0000 0.72920  0.79600  0.27200  Biso   1.000  H
  H144     1.0000 0.22920  0.29600  0.27200  Biso   1.000  H
  C153     1.0000 0.50690  0.72220  0.64190  Biso   1.000  C
  C154     1.0000 0.00690  0.22220  0.64190  Biso   1.000  C
  C155     1.0000 0.49310  0.72220  0.85810  Biso   1.000  C
  C156     1.0000 0.99310  0.22220  0.85810  Biso   1.000  C
  C157     1.0000 0.49310  0.27780  0.35810  Biso   1.000  C
  C158     1.0000 0.99310  0.77780  0.35810  Biso   1.000  C
  C159     1.0000 0.50690  0.27780  0.14190  Biso   1.000  C
  C160     1.0000 0.00690  0.77780  0.14190  Biso   1.000  C
  C161     1.0000 0.57490  0.89290  0.36320  Biso   1.000  C
  C162     1.0000 0.07490  0.39290  0.36320  Biso   1.000  C
  C163     1.0000 0.42510  0.89290  0.13680  Biso   1.000  C
  C164     1.0000 0.92510  0.39290  0.13680  Biso   1.000  C
  C165     1.0000 0.42510  0.10710  0.63680  Biso   1.000  C
  C166     1.0000 0.92510  0.60710  0.63680  Biso   1.000  C
  C167     1.0000 0.57490  0.10710  0.86320  Biso   1.000  C
  C168     1.0000 0.07490  0.60710  0.86320  Biso   1.000  C
  H145     1.0000 0.56280  0.90140  0.31900  Biso   1.000  H
  H146     1.0000 0.06280  0.40140  0.31900  Biso   1.000  H
  H147     1.0000 0.43720  0.90140  0.18100  Biso   1.000  H
  H148     1.0000 0.93720  0.40140  0.18100  Biso   1.000  H
  H149     1.0000 0.43720  0.09860  0.68100  Biso   1.000  H
  H150     1.0000 0.93720  0.59860  0.68100  Biso   1.000  H
  H151     1.0000 0.56280  0.09860  0.81900  Biso   1.000  H
  H152     1.0000 0.06280  0.59860  0.81900  Biso   1.000  H
  H153     1.0000 0.55070  0.93970  0.37080  Biso   1.000  H
  H154     1.0000 0.05070  0.43970  0.37080  Biso   1.000  H
  H155     1.0000 0.44930  0.93970  0.12920  Biso   1.000  H
  H156     1.0000 0.94930  0.43970  0.12920  Biso   1.000  H
  H157     1.0000 0.44930  0.06030  0.62920  Biso   1.000  H
  H158     1.0000 0.94930  0.56030  0.62920  Biso   1.000  H
  H159     1.0000 0.55070  0.06030  0.87080  Biso   1.000  H
  H160     1.0000 0.05070  0.56030  0.87080  Biso   1.000  H
  H161     1.0000 0.57680  0.79590  0.37400  Biso   1.000  H
  H162     1.0000 0.07680  0.29590  0.37400  Biso   1.000  H
  H163     1.0000 0.42320  0.79590  0.12600  Biso   1.000  H
  H164     1.0000 0.92320  0.29590  0.12600  Biso   1.000  H
  H165     1.0000 0.42320  0.20410  0.62600  Biso   1.000  H
  H166     1.0000 0.92320  0.70410  0.62600  Biso   1.000  H
  H167     1.0000 0.57680  0.20410  0.87400  Biso   1.000  H
  H168     1.0000 0.07680  0.70410  0.87400  Biso   1.000  H
  F25      1.0000 0.57330  0.51500  0.51340  Biso   1.000  F
  F26      1.0000 0.07330  0.01500  0.51340  Biso   1.000  F
  F27      1.0000 0.42670  0.51500  0.98660  Biso   1.000  F
  F28      1.0000 0.92670  0.01500  0.98660  Biso   1.000  F
  F29      1.0000 0.42670  0.48500  0.48660  Biso   1.000  F
  F30      1.0000 0.92670  0.98500  0.48660  Biso   1.000  F
  F31      1.0000 0.57330  0.48500  0.01340  Biso   1.000  F
  F32      1.0000 0.07330  0.98500  0.01340  Biso   1.000  F
  F33      1.0000 0.89520  0.89200  0.70070  Biso   1.000  F
  F34      1.0000 0.39520  0.39200  0.70070  Biso   1.000  F
  F35      1.0000 0.10480  0.89200  0.79930  Biso   1.000  F
  F36      1.0000 0.60480  0.39200  0.79930  Biso   1.000  F
  F37      1.0000 0.10480  0.10800  0.29930  Biso   1.000  F
  F38      1.0000 0.60480  0.60800  0.29930  Biso   1.000  F
  F39      1.0000 0.89520  0.10800  0.20070  Biso   1.000  F
  F40      1.0000 0.39520  0.60800  0.20070  Biso   1.000  F
  F41      1.0000 0.83960  0.02900  0.69000  Biso   1.000  F
  F42      1.0000 0.33960  0.52900  0.69000  Biso   1.000  F
  F43      1.0000 0.16040  0.02900  0.81000  Biso   1.000  F
  F44      1.0000 0.66040  0.52900  0.81000  Biso   1.000  F
  F45      1.0000 0.16040  0.97100  0.31000  Biso   1.000  F
  F46      1.0000 0.66040  0.47100  0.31000  Biso   1.000  F
  F47      1.0000 0.83960  0.97100  0.19000  Biso   1.000  F
  F48      1.0000 0.33960  0.47100  0.19000  Biso   1.000  F
  C169     1.0000 0.57770  0.62660  0.50370  Biso   1.000  C
  C170     1.0000 0.07770  0.12660  0.50370  Biso   1.000  C
  C171     1.0000 0.42230  0.62660  0.99630  Biso   1.000  C
  C172     1.0000 0.92230  0.12660  0.99630  Biso   1.000  C
  C173     1.0000 0.42230  0.37340  0.49630  Biso   1.000  C
  C174     1.0000 0.92230  0.87340  0.49630  Biso   1.000  C
  C175     1.0000 0.57770  0.37340  0.00370  Biso   1.000  C
  C176     1.0000 0.07770  0.87340  0.00370  Biso   1.000  C
  F49      1.0000 0.89680  0.09100  0.67290  Biso   1.000  F
  F50      1.0000 0.39680  0.59100  0.67290  Biso   1.000  F
  F51      1.0000 0.10320  0.09100  0.82710  Biso   1.000  F
  F52      1.0000 0.60320  0.59100  0.82710  Biso   1.000  F
  F53      1.0000 0.10320  0.90900  0.32710  Biso   1.000  F
  F54      1.0000 0.60320  0.40900  0.32710  Biso   1.000  F
  F55      1.0000 0.89680  0.90900  0.17290  Biso   1.000  F
  F56      1.0000 0.39680  0.40900  0.17290  Biso   1.000  F
  F57      1.0000 0.61430  0.66190  0.50430  Biso   1.000  F
  F58      1.0000 0.11430  0.16190  0.50430  Biso   1.000  F
  F59      1.0000 0.38570  0.66190  0.99570  Biso   1.000  F
  F60      1.0000 0.88570  0.16190  0.99570  Biso   1.000  F
  F61      1.0000 0.38570  0.33810  0.49570  Biso   1.000  F
  F62      1.0000 0.88570  0.83810  0.49570  Biso   1.000  F
  F63      1.0000 0.61430  0.33810  0.00430  Biso   1.000  F
  F64      1.0000 0.11430  0.83810  0.00430  Biso   1.000  F
  F65      1.0000 0.57240  0.48140  0.51790  Biso   1.000  F
  F66      1.0000 0.07240  0.98140  0.51790  Biso   1.000  F
  F67      1.0000 0.42760  0.48140  0.98210  Biso   1.000  F
  F68      1.0000 0.92760  0.98140  0.98210  Biso   1.000  F
  F69      1.0000 0.42760  0.51860  0.48210  Biso   1.000  F
  F70      1.0000 0.92760  0.01860  0.48210  Biso   1.000  F
  F71      1.0000 0.57240  0.51860  0.01790  Biso   1.000  F
  F72      1.0000 0.07240  0.01860  0.01790  Biso   1.000  F
  F73      1.0000 0.91630  0.93500  0.68310  Biso   1.000  F
  F74      1.0000 0.41630  0.43500  0.68310  Biso   1.000  F
  F75      1.0000 0.08370  0.93500  0.81690  Biso   1.000  F
  F76      1.0000 0.58370  0.43500  0.81690  Biso   1.000  F
  F77      1.0000 0.08370  0.06500  0.31690  Biso   1.000  F
  F78      1.0000 0.58370  0.56500  0.31690  Biso   1.000  F
  F79      1.0000 0.91630  0.06500  0.18310  Biso   1.000  F
  F80      1.0000 0.41630  0.56500  0.18310  Biso   1.000  F
  F81      1.0000 0.58230  0.65400  0.46180  Biso   1.000  F
  F82      1.0000 0.08230  0.15400  0.46180  Biso   1.000  F
  F83      1.0000 0.41770  0.65400  0.03820  Biso   1.000  F
  F84      1.0000 0.91770  0.15400  0.03820  Biso   1.000  F
  F85      1.0000 0.41770  0.34600  0.53820  Biso   1.000  F
  F86      1.0000 0.91770  0.84600  0.53820  Biso   1.000  F
  F87      1.0000 0.58230  0.34600  0.96180  Biso   1.000  F
  F88      1.0000 0.08230  0.84600  0.96180  Biso   1.000  F
  F89      1.0000 0.63440  0.62460  0.56120  Biso   1.000  F
  F90      1.0000 0.13440  0.12460  0.56120  Biso   1.000  F
  F91      1.0000 0.36560  0.62460  0.93880  Biso   1.000  F
  F92      1.0000 0.86560  0.12460  0.93880  Biso   1.000  F
  F93      1.0000 0.36560  0.37540  0.43880  Biso   1.000  F
  F94      1.0000 0.86560  0.87540  0.43880  Biso   1.000  F
  F95      1.0000 0.63440  0.37540  0.06120  Biso   1.000  F
  F96      1.0000 0.13440  0.87540  0.06120  Biso   1.000  F
  F97      1.0000 0.85650  0.94900  0.70250  Biso   1.000  F
  F98      1.0000 0.35650  0.44900  0.70250  Biso   1.000  F
  F99      1.0000 0.14350  0.94900  0.79750  Biso   1.000  F
  F100     1.0000 0.64350  0.44900  0.79750  Biso   1.000  F
  F101     1.0000 0.14350  0.05100  0.29750  Biso   1.000  F
  F102     1.0000 0.64350  0.55100  0.29750  Biso   1.000  F
  F103     1.0000 0.85650  0.05100  0.20250  Biso   1.000  F
  F104     1.0000 0.35650  0.55100  0.20250  Biso   1.000  F
  F105     1.0000 0.53660  0.60000  0.43310  Biso   1.000  F
  F106     1.0000 0.03660  0.10000  0.43310  Biso   1.000  F
  F107     1.0000 0.46340  0.60000  0.06690  Biso   1.000  F
  F108     1.0000 0.96340  0.10000  0.06690  Biso   1.000  F
  F109     1.0000 0.46340  0.40000  0.56690  Biso   1.000  F
  F110     1.0000 0.96340  0.90000  0.56690  Biso   1.000  F
  F111     1.0000 0.53660  0.40000  0.93310  Biso   1.000  F
  F112     1.0000 0.03660  0.90000  0.93310  Biso   1.000  F
  F113     1.0000 0.87830  0.12300  0.67520  Biso   1.000  F
  F114     1.0000 0.37830  0.62300  0.67520  Biso   1.000  F
  F115     1.0000 0.12170  0.12300  0.82480  Biso   1.000  F
  F116     1.0000 0.62170  0.62300  0.82480  Biso   1.000  F
  F117     1.0000 0.12170  0.87700  0.32480  Biso   1.000  F
  F118     1.0000 0.62170  0.37700  0.32480  Biso   1.000  F
  F119     1.0000 0.87830  0.87700  0.17520  Biso   1.000  F
  F120     1.0000 0.37830  0.37700  0.17520  Biso   1.000  F
  F121     1.0000 0.72040  0.16290  0.39390  Biso   1.000  F
  F122     1.0000 0.22040  0.66290  0.39390  Biso   1.000  F
  F123     1.0000 0.27960  0.16290  0.10610  Biso   1.000  F
  F124     1.0000 0.77960  0.66290  0.10610  Biso   1.000  F
  F125     1.0000 0.27960  0.83710  0.60610  Biso   1.000  F
  F126     1.0000 0.77960  0.33710  0.60610  Biso   1.000  F
  F127     1.0000 0.72040  0.83710  0.89390  Biso   1.000  F
  F128     1.0000 0.22040  0.33710  0.89390  Biso   1.000  F
  F129     1.0000 0.81190  0.14900  0.42690  Biso   1.000  F
  F130     1.0000 0.31190  0.64900  0.42690  Biso   1.000  F
  F131     1.0000 0.18810  0.14900  0.07310  Biso   1.000  F
  F132     1.0000 0.68810  0.64900  0.07310  Biso   1.000  F
  F133     1.0000 0.18810  0.85100  0.57310  Biso   1.000  F
  F134     1.0000 0.68810  0.35100  0.57310  Biso   1.000  F
  F135     1.0000 0.81190  0.85100  0.92690  Biso   1.000  F
  F136     1.0000 0.31190  0.35100  0.92690  Biso   1.000  F
  F137     1.0000 0.79180  0.26060  0.46640  Biso   1.000  F
  F138     1.0000 0.29180  0.76060  0.46640  Biso   1.000  F
  F139     1.0000 0.20820  0.26060  0.03360  Biso   1.000  F
  F140     1.0000 0.70820  0.76060  0.03360  Biso   1.000  F
  F141     1.0000 0.20820  0.73940  0.53360  Biso   1.000  F
  F142     1.0000 0.70820  0.23940  0.53360  Biso   1.000  F
  F143     1.0000 0.79180  0.73940  0.96640  Biso   1.000  F
  F144     1.0000 0.29180  0.23940  0.96640  Biso   1.000  F
  F145     1.0000 0.73150  0.14000  0.38910  Biso   1.000  F
  F146     1.0000 0.23150  0.64000  0.38910  Biso   1.000  F
  F147     1.0000 0.26850  0.14000  0.11090  Biso   1.000  F
  F148     1.0000 0.76850  0.64000  0.11090  Biso   1.000  F
  F149     1.0000 0.26850  0.86000  0.61090  Biso   1.000  F
  F150     1.0000 0.76850  0.36000  0.61090  Biso   1.000  F
  F151     1.0000 0.73150  0.86000  0.88910  Biso   1.000  F
  F152     1.0000 0.23150  0.36000  0.88910  Biso   1.000  F
  F153     1.0000 0.79260  0.11300  0.40310  Biso   1.000  F
  F154     1.0000 0.29260  0.61300  0.40310  Biso   1.000  F
  F155     1.0000 0.20740  0.11300  0.09690  Biso   1.000  F
  F156     1.0000 0.70740  0.61300  0.09690  Biso   1.000  F
  F157     1.0000 0.20740  0.88700  0.59690  Biso   1.000  F
  F158     1.0000 0.70740  0.38700  0.59690  Biso   1.000  F
  F159     1.0000 0.79260  0.88700  0.90310  Biso   1.000  F
  F160     1.0000 0.29260  0.38700  0.90310  Biso   1.000  F
  F161     1.0000 0.77870  0.27030  0.46370  Biso   1.000  F
  F162     1.0000 0.27870  0.77030  0.46370  Biso   1.000  F
  F163     1.0000 0.22130  0.27030  0.03630  Biso   1.000  F
  F164     1.0000 0.72130  0.77030  0.03630  Biso   1.000  F
  F165     1.0000 0.22130  0.72970  0.53630  Biso   1.000  F
  F166     1.0000 0.72130  0.22970  0.53630  Biso   1.000  F
  F167     1.0000 0.77870  0.72970  0.96370  Biso   1.000  F
  F168     1.0000 0.27870  0.22970  0.96370  Biso   1.000  F
