data_image0
_cell_length_a       29.887
_cell_length_b       9.4884
_cell_length_c       24.726
_cell_angle_alpha    90
_cell_angle_beta     123.936
_cell_angle_gamma    90

_symmetry_space_group_name_H-M    "P 1"
_symmetry_int_tables_number       1

loop_
  _symmetry_equiv_pos_as_xyz
  'x, y, z'

loop_
  _atom_site_label
  _atom_site_occupancy
  _atom_site_fract_x
  _atom_site_fract_y
  _atom_site_fract_z
  _atom_site_thermal_displace_type
  _atom_site_B_iso_or_equiv
  _atom_site_type_symbol
  Cu1      1.0000 0.25000  0.75000  0.00000  Biso   1.000  Cu
  Cu2      1.0000 0.75000  0.25000  0.00000  Biso   1.000  Cu
  Cu3      1.0000 0.75000  0.75000  0.50000  Biso   1.000  Cu
  Cu4      1.0000 0.25000  0.25000  0.50000  Biso   1.000  Cu
  Cu5      1.0000 0.00000  0.00000  0.00000  Biso   1.000  Cu
  Cu6      1.0000 0.50000  0.50000  0.00000  Biso   1.000  Cu
  Cu7      1.0000 0.00000  0.00000  0.50000  Biso   1.000  Cu
  Cu8      1.0000 0.50000  0.50000  0.50000  Biso   1.000  Cu
  O1       1.0000 0.31486  0.83330  0.08965  Biso   1.000  O
  O2       1.0000 0.81486  0.33330  0.08965  Biso   1.000  O
  O3       1.0000 0.68514  0.83330  0.41035  Biso   1.000  O
  O4       1.0000 0.18514  0.33330  0.41035  Biso   1.000  O
  O5       1.0000 0.68514  0.16670  0.91035  Biso   1.000  O
  O6       1.0000 0.18514  0.66670  0.91035  Biso   1.000  O
  O7       1.0000 0.31486  0.16670  0.58965  Biso   1.000  O
  O8       1.0000 0.81486  0.66670  0.58965  Biso   1.000  O
  C1       1.0000 0.37350  0.99550  0.16900  Biso   1.000  C
  C2       1.0000 0.87350  0.49550  0.16900  Biso   1.000  C
  C3       1.0000 0.62650  0.99550  0.33100  Biso   1.000  C
  C4       1.0000 0.12650  0.49550  0.33100  Biso   1.000  C
  C5       1.0000 0.62650  0.00450  0.83100  Biso   1.000  C
  C6       1.0000 0.12650  0.50450  0.83100  Biso   1.000  C
  C7       1.0000 0.37350  0.00450  0.66900  Biso   1.000  C
  C8       1.0000 0.87350  0.50450  0.66900  Biso   1.000  C
  F1       1.0000 0.40590  0.89700  0.20700  Biso   1.000  F
  F2       1.0000 0.90590  0.39700  0.20700  Biso   1.000  F
  F3       1.0000 0.59410  0.89700  0.29300  Biso   1.000  F
  F4       1.0000 0.09410  0.39700  0.29300  Biso   1.000  F
  F5       1.0000 0.59410  0.10300  0.79300  Biso   1.000  F
  F6       1.0000 0.09410  0.60300  0.79300  Biso   1.000  F
  F7       1.0000 0.40590  0.10300  0.70700  Biso   1.000  F
  F8       1.0000 0.90590  0.60300  0.70700  Biso   1.000  F
  F9       1.0000 0.34370  0.02400  0.19470  Biso   1.000  F
  F10      1.0000 0.84370  0.52400  0.19470  Biso   1.000  F
  F11      1.0000 0.65630  0.02400  0.30530  Biso   1.000  F
  F12      1.0000 0.15630  0.52400  0.30530  Biso   1.000  F
  F13      1.0000 0.65630  0.97600  0.80530  Biso   1.000  F
  F14      1.0000 0.15630  0.47600  0.80530  Biso   1.000  F
  F15      1.0000 0.34370  0.97600  0.69470  Biso   1.000  F
  F16      1.0000 0.84370  0.47600  0.69470  Biso   1.000  F
  F17      1.0000 0.40190  0.10500  0.17800  Biso   1.000  F
  F18      1.0000 0.90190  0.60500  0.17800  Biso   1.000  F
  F19      1.0000 0.59810  0.10500  0.32200  Biso   1.000  F
  F20      1.0000 0.09810  0.60500  0.32200  Biso   1.000  F
  F21      1.0000 0.59810  0.89500  0.82200  Biso   1.000  F
  F22      1.0000 0.09810  0.39500  0.82200  Biso   1.000  F
  F23      1.0000 0.40190  0.89500  0.67800  Biso   1.000  F
  F24      1.0000 0.90190  0.39500  0.67800  Biso   1.000  F
  F25      1.0000 0.41640  0.91800  0.18930  Biso   1.000  F
  F26      1.0000 0.91640  0.41800  0.18930  Biso   1.000  F
  F27      1.0000 0.58360  0.91800  0.31070  Biso   1.000  F
  F28      1.0000 0.08360  0.41800  0.31070  Biso   1.000  F
  F29      1.0000 0.58360  0.08200  0.81070  Biso   1.000  F
  F30      1.0000 0.08360  0.58200  0.81070  Biso   1.000  F
  F31      1.0000 0.41640  0.08200  0.68930  Biso   1.000  F
  F32      1.0000 0.91640  0.58200  0.68930  Biso   1.000  F
  F33      1.0000 0.35650  0.97800  0.20360  Biso   1.000  F
  F34      1.0000 0.85650  0.47800  0.20360  Biso   1.000  F
  F35      1.0000 0.64350  0.97800  0.29640  Biso   1.000  F
  F36      1.0000 0.14350  0.47800  0.29640  Biso   1.000  F
  F37      1.0000 0.64350  0.02200  0.79640  Biso   1.000  F
  F38      1.0000 0.14350  0.52200  0.79640  Biso   1.000  F
  F39      1.0000 0.35650  0.02200  0.70360  Biso   1.000  F
  F40      1.0000 0.85650  0.52200  0.70360  Biso   1.000  F
  F41      1.0000 0.39050  0.12800  0.17800  Biso   1.000  F
  F42      1.0000 0.89050  0.62800  0.17800  Biso   1.000  F
  F43      1.0000 0.60950  0.12800  0.32200  Biso   1.000  F
  F44      1.0000 0.10950  0.62800  0.32200  Biso   1.000  F
  F45      1.0000 0.60950  0.87200  0.82200  Biso   1.000  F
  F46      1.0000 0.10950  0.37200  0.82200  Biso   1.000  F
  F47      1.0000 0.39050  0.87200  0.67800  Biso   1.000  F
  F48      1.0000 0.89050  0.37200  0.67800  Biso   1.000  F
  C9       1.0000 0.33330  0.95430  0.09720  Biso   1.000  C
  C10      1.0000 0.83330  0.45430  0.09720  Biso   1.000  C
  C11      1.0000 0.66670  0.95430  0.40280  Biso   1.000  C
  C12      1.0000 0.16670  0.45430  0.40280  Biso   1.000  C
  C13      1.0000 0.66670  0.04570  0.90280  Biso   1.000  C
  C14      1.0000 0.16670  0.54570  0.90280  Biso   1.000  C
  C15      1.0000 0.33330  0.04570  0.59720  Biso   1.000  C
  C16      1.0000 0.83330  0.54570  0.59720  Biso   1.000  C
  C17      1.0000 0.32150  0.05390  0.05040  Biso   1.000  C
  C18      1.0000 0.82150  0.55390  0.05040  Biso   1.000  C
  C19      1.0000 0.67850  0.05390  0.44960  Biso   1.000  C
  C20      1.0000 0.17850  0.55390  0.44960  Biso   1.000  C
  C21      1.0000 0.67850  0.94610  0.94960  Biso   1.000  C
  C22      1.0000 0.17850  0.44610  0.94960  Biso   1.000  C
  C23      1.0000 0.32150  0.94610  0.55040  Biso   1.000  C
  C24      1.0000 0.82150  0.44610  0.55040  Biso   1.000  C
  H1       1.0000 0.32800  0.11000  0.05800  Biso   1.000  H
  H2       1.0000 0.82800  0.61000  0.05800  Biso   1.000  H
  H3       1.0000 0.67200  0.11000  0.44200  Biso   1.000  H
  H4       1.0000 0.17200  0.61000  0.44200  Biso   1.000  H
  H5       1.0000 0.67200  0.89000  0.94200  Biso   1.000  H
  H6       1.0000 0.17200  0.39000  0.94200  Biso   1.000  H
  H7       1.0000 0.32800  0.89000  0.55800  Biso   1.000  H
  H8       1.0000 0.82800  0.39000  0.55800  Biso   1.000  H
  C25      1.0000 0.28390  0.03570  0.98440  Biso   1.000  C
  C26      1.0000 0.78390  0.53570  0.98440  Biso   1.000  C
  C27      1.0000 0.71610  0.03570  0.51560  Biso   1.000  C
  C28      1.0000 0.21610  0.53570  0.51560  Biso   1.000  C
  C29      1.0000 0.71610  0.96430  0.01560  Biso   1.000  C
  C30      1.0000 0.21610  0.46430  0.01560  Biso   1.000  C
  C31      1.0000 0.28390  0.96430  0.48440  Biso   1.000  C
  C32      1.0000 0.78390  0.46430  0.48440  Biso   1.000  C
  C33      1.0000 0.27190  0.16260  0.93950  Biso   1.000  C
  C34      1.0000 0.77190  0.66260  0.93950  Biso   1.000  C
  C35      1.0000 0.72810  0.16260  0.56050  Biso   1.000  C
  C36      1.0000 0.22810  0.66260  0.56050  Biso   1.000  C
  C37      1.0000 0.72810  0.83740  0.06050  Biso   1.000  C
  C38      1.0000 0.22810  0.33740  0.06050  Biso   1.000  C
  C39      1.0000 0.27190  0.83740  0.43950  Biso   1.000  C
  C40      1.0000 0.77190  0.33740  0.43950  Biso   1.000  C
  F49      1.0000 0.28454  0.28510  0.97120  Biso   1.000  F
  F50      1.0000 0.78454  0.78510  0.97120  Biso   1.000  F
  F51      1.0000 0.71546  0.28510  0.52880  Biso   1.000  F
  F52      1.0000 0.21546  0.78510  0.52880  Biso   1.000  F
  F53      1.0000 0.71546  0.71490  0.02880  Biso   1.000  F
  F54      1.0000 0.21546  0.21490  0.02880  Biso   1.000  F
  F55      1.0000 0.28454  0.71490  0.47120  Biso   1.000  F
  F56      1.0000 0.78454  0.21490  0.47120  Biso   1.000  F
  F57      1.0000 0.21958  0.16870  0.89244  Biso   1.000  F
  F58      1.0000 0.71958  0.66870  0.89244  Biso   1.000  F
  F59      1.0000 0.78042  0.16870  0.60756  Biso   1.000  F
  F60      1.0000 0.28042  0.66870  0.60756  Biso   1.000  F
  F61      1.0000 0.78042  0.83130  0.10756  Biso   1.000  F
  F62      1.0000 0.28042  0.33130  0.10756  Biso   1.000  F
  F63      1.0000 0.21958  0.83130  0.39244  Biso   1.000  F
  F64      1.0000 0.71958  0.33130  0.39244  Biso   1.000  F
  F65      1.0000 0.29860  0.15490  0.91090  Biso   1.000  F
  F66      1.0000 0.79860  0.65490  0.91090  Biso   1.000  F
  F67      1.0000 0.70140  0.15490  0.58910  Biso   1.000  F
  F68      1.0000 0.20140  0.65490  0.58910  Biso   1.000  F
  F69      1.0000 0.70140  0.84510  0.08910  Biso   1.000  F
  F70      1.0000 0.20140  0.34510  0.08910  Biso   1.000  F
  F71      1.0000 0.29860  0.84510  0.41090  Biso   1.000  F
  F72      1.0000 0.79860  0.34510  0.41090  Biso   1.000  F
  O9       1.0000 0.25819  0.92770  0.95522  Biso   1.000  O
  O10      1.0000 0.75819  0.42770  0.95522  Biso   1.000  O
  O11      1.0000 0.74181  0.92770  0.54478  Biso   1.000  O
  O12      1.0000 0.24181  0.42770  0.54478  Biso   1.000  O
  O13      1.0000 0.74181  0.07230  0.04478  Biso   1.000  O
  O14      1.0000 0.24181  0.57230  0.04478  Biso   1.000  O
  O15      1.0000 0.25819  0.07230  0.45522  Biso   1.000  O
  O16      1.0000 0.75819  0.57230  0.45522  Biso   1.000  O
  O17      1.0000 0.04585  0.82430  0.00120  Biso   1.000  O
  O18      1.0000 0.54585  0.32430  0.00120  Biso   1.000  O
  O19      1.0000 0.95415  0.82430  0.49880  Biso   1.000  O
  O20      1.0000 0.45415  0.32430  0.49880  Biso   1.000  O
  O21      1.0000 0.95415  0.17570  0.99880  Biso   1.000  O
  O22      1.0000 0.45415  0.67570  0.99880  Biso   1.000  O
  O23      1.0000 0.04585  0.17570  0.50120  Biso   1.000  O
  O24      1.0000 0.54585  0.67570  0.50120  Biso   1.000  O
  C41      1.0000 0.08560  0.60620  0.01410  Biso   1.000  C
  C42      1.0000 0.58560  0.10620  0.01410  Biso   1.000  C
  C43      1.0000 0.91440  0.60620  0.48590  Biso   1.000  C
  C44      1.0000 0.41440  0.10620  0.48590  Biso   1.000  C
  C45      1.0000 0.91440  0.39380  0.98590  Biso   1.000  C
  C46      1.0000 0.41440  0.89380  0.98590  Biso   1.000  C
  C47      1.0000 0.08560  0.39380  0.51410  Biso   1.000  C
  C48      1.0000 0.58560  0.89380  0.51410  Biso   1.000  C
  F73      1.0000 0.12710  0.64100  0.02280  Biso   1.000  F
  F74      1.0000 0.62710  0.14100  0.02280  Biso   1.000  F
  F75      1.0000 0.87290  0.64100  0.47720  Biso   1.000  F
  F76      1.0000 0.37290  0.14100  0.47720  Biso   1.000  F
  F77      1.0000 0.87290  0.35900  0.97720  Biso   1.000  F
  F78      1.0000 0.37290  0.85900  0.97720  Biso   1.000  F
  F79      1.0000 0.12710  0.35900  0.52280  Biso   1.000  F
  F80      1.0000 0.62710  0.85900  0.52280  Biso   1.000  F
  F81      1.0000 0.07460  0.49500  0.02170  Biso   1.000  F
  F82      1.0000 0.57460  0.99500  0.02170  Biso   1.000  F
  F83      1.0000 0.92540  0.49500  0.47830  Biso   1.000  F
  F84      1.0000 0.42540  0.99500  0.47830  Biso   1.000  F
  F85      1.0000 0.92540  0.50500  0.97830  Biso   1.000  F
  F86      1.0000 0.42540  0.00500  0.97830  Biso   1.000  F
  F87      1.0000 0.07460  0.50500  0.52170  Biso   1.000  F
  F88      1.0000 0.57460  0.00500  0.52170  Biso   1.000  F
  F89      1.0000 0.08220  0.45400  0.02370  Biso   1.000  F
  F90      1.0000 0.58220  0.95400  0.02370  Biso   1.000  F
  F91      1.0000 0.91780  0.45400  0.47630  Biso   1.000  F
  F92      1.0000 0.41780  0.95400  0.47630  Biso   1.000  F
  F93      1.0000 0.91780  0.54600  0.97630  Biso   1.000  F
  F94      1.0000 0.41780  0.04600  0.97630  Biso   1.000  F
  F95      1.0000 0.08220  0.54600  0.52370  Biso   1.000  F
  F96      1.0000 0.58220  0.04600  0.52370  Biso   1.000  F
  F97      1.0000 0.14390  0.61480  0.07770  Biso   1.000  F
  F98      1.0000 0.64390  0.11480  0.07770  Biso   1.000  F
  F99      1.0000 0.85610  0.61480  0.42230  Biso   1.000  F
  F100     1.0000 0.35610  0.11480  0.42230  Biso   1.000  F
  F101     1.0000 0.85610  0.38520  0.92230  Biso   1.000  F
  F102     1.0000 0.35610  0.88520  0.92230  Biso   1.000  F
  F103     1.0000 0.14390  0.38520  0.57770  Biso   1.000  F
  F104     1.0000 0.64390  0.88520  0.57770  Biso   1.000  F
  F105     1.0000 0.09600  0.63870  0.97760  Biso   1.000  F
  F106     1.0000 0.59600  0.13870  0.97760  Biso   1.000  F
  F107     1.0000 0.90400  0.63870  0.52240  Biso   1.000  F
  F108     1.0000 0.40400  0.13870  0.52240  Biso   1.000  F
  F109     1.0000 0.90400  0.36130  0.02240  Biso   1.000  F
  F110     1.0000 0.40400  0.86130  0.02240  Biso   1.000  F
  F111     1.0000 0.09600  0.36130  0.47760  Biso   1.000  F
  F112     1.0000 0.59600  0.86130  0.47760  Biso   1.000  F
  F113     1.0000 0.05130  0.59640  0.93960  Biso   1.000  F
  F114     1.0000 0.55130  0.09640  0.93960  Biso   1.000  F
  F115     1.0000 0.94870  0.59640  0.56040  Biso   1.000  F
  F116     1.0000 0.44870  0.09640  0.56040  Biso   1.000  F
  F117     1.0000 0.94870  0.40360  0.06040  Biso   1.000  F
  F118     1.0000 0.44870  0.90360  0.06040  Biso   1.000  F
  F119     1.0000 0.05130  0.40360  0.43960  Biso   1.000  F
  F120     1.0000 0.55130  0.90360  0.43960  Biso   1.000  F
  C49      1.0000 0.05550  0.71100  0.03110  Biso   1.000  C
  C50      1.0000 0.55550  0.21100  0.03110  Biso   1.000  C
  C51      1.0000 0.94450  0.71100  0.46890  Biso   1.000  C
  C52      1.0000 0.44450  0.21100  0.46890  Biso   1.000  C
  C53      1.0000 0.94450  0.28900  0.96890  Biso   1.000  C
  C54      1.0000 0.44450  0.78900  0.96890  Biso   1.000  C
  C55      1.0000 0.05550  0.28900  0.53110  Biso   1.000  C
  C56      1.0000 0.55550  0.78900  0.53110  Biso   1.000  C
  C57      1.0000 0.04400  0.67270  0.07590  Biso   1.000  C
  C58      1.0000 0.54400  0.17270  0.07590  Biso   1.000  C
  C59      1.0000 0.95600  0.67270  0.42410  Biso   1.000  C
  C60      1.0000 0.45600  0.17270  0.42410  Biso   1.000  C
  C61      1.0000 0.95600  0.32730  0.92410  Biso   1.000  C
  C62      1.0000 0.45600  0.82730  0.92410  Biso   1.000  C
  C63      1.0000 0.04400  0.32730  0.57590  Biso   1.000  C
  C64      1.0000 0.54400  0.82730  0.57590  Biso   1.000  C
  H9       1.0000 0.04900  0.58100  0.08700  Biso   1.000  H
  H10      1.0000 0.54900  0.08100  0.08700  Biso   1.000  H
  H11      1.0000 0.95100  0.58100  0.41300  Biso   1.000  H
  H12      1.0000 0.45100  0.08100  0.41300  Biso   1.000  H
  H13      1.0000 0.95100  0.41900  0.91300  Biso   1.000  H
  H14      1.0000 0.45100  0.91900  0.91300  Biso   1.000  H
  H15      1.0000 0.04900  0.41900  0.58700  Biso   1.000  H
  H16      1.0000 0.54900  0.91900  0.58700  Biso   1.000  H
  C65      1.0000 0.01850  0.76110  0.09500  Biso   1.000  C
  C66      1.0000 0.51850  0.26110  0.09500  Biso   1.000  C
  C67      1.0000 0.98150  0.76110  0.40500  Biso   1.000  C
  C68      1.0000 0.48150  0.26110  0.40500  Biso   1.000  C
  C69      1.0000 0.98150  0.23890  0.90500  Biso   1.000  C
  C70      1.0000 0.48150  0.73890  0.90500  Biso   1.000  C
  C71      1.0000 0.01850  0.23890  0.59500  Biso   1.000  C
  C72      1.0000 0.51850  0.73890  0.59500  Biso   1.000  C
  C73      1.0000 0.00470  0.70860  0.14230  Biso   1.000  C
  C74      1.0000 0.50470  0.20860  0.14230  Biso   1.000  C
  C75      1.0000 0.99530  0.70860  0.35770  Biso   1.000  C
  C76      1.0000 0.49530  0.20860  0.35770  Biso   1.000  C
  C77      1.0000 0.99530  0.29140  0.85770  Biso   1.000  C
  C78      1.0000 0.49530  0.79140  0.85770  Biso   1.000  C
  C79      1.0000 0.00470  0.29140  0.64230  Biso   1.000  C
  C80      1.0000 0.50470  0.79140  0.64230  Biso   1.000  C
  F121     1.0000 0.95138  0.71000  0.11320  Biso   1.000  F
  F122     1.0000 0.45138  0.21000  0.11320  Biso   1.000  F
  F123     1.0000 0.04862  0.71000  0.38680  Biso   1.000  F
  F124     1.0000 0.54862  0.21000  0.38680  Biso   1.000  F
  F125     1.0000 0.04862  0.29000  0.88680  Biso   1.000  F
  F126     1.0000 0.54862  0.79000  0.88680  Biso   1.000  F
  F127     1.0000 0.95138  0.29000  0.61320  Biso   1.000  F
  F128     1.0000 0.45138  0.79000  0.61320  Biso   1.000  F
  F129     1.0000 0.02140  0.57800  0.16290  Biso   1.000  F
  F130     1.0000 0.52140  0.07800  0.16290  Biso   1.000  F
  F131     1.0000 0.97860  0.57800  0.33710  Biso   1.000  F
  F132     1.0000 0.47860  0.07800  0.33710  Biso   1.000  F
  F133     1.0000 0.97860  0.42200  0.83710  Biso   1.000  F
  F134     1.0000 0.47860  0.92200  0.83710  Biso   1.000  F
  F135     1.0000 0.02140  0.42200  0.66290  Biso   1.000  F
  F136     1.0000 0.52140  0.92200  0.66290  Biso   1.000  F
  F137     1.0000 0.02580  0.78980  0.19450  Biso   1.000  F
  F138     1.0000 0.52580  0.28980  0.19450  Biso   1.000  F
  F139     1.0000 0.97420  0.78980  0.30550  Biso   1.000  F
  F140     1.0000 0.47420  0.28980  0.30550  Biso   1.000  F
  F141     1.0000 0.97420  0.21020  0.80550  Biso   1.000  F
  F142     1.0000 0.47420  0.71020  0.80550  Biso   1.000  F
  F143     1.0000 0.02580  0.21020  0.69450  Biso   1.000  F
  F144     1.0000 0.52580  0.71020  0.69450  Biso   1.000  F
  O25      1.0000 0.00494  0.88750  0.07823  Biso   1.000  O
  O26      1.0000 0.50494  0.38750  0.07823  Biso   1.000  O
  O27      1.0000 0.99506  0.88750  0.42177  Biso   1.000  O
  O28      1.0000 0.49506  0.38750  0.42177  Biso   1.000  O
  O29      1.0000 0.99506  0.11250  0.92177  Biso   1.000  O
  O30      1.0000 0.49506  0.61250  0.92177  Biso   1.000  O
  O31      1.0000 0.00494  0.11250  0.57823  Biso   1.000  O
  O32      1.0000 0.50494  0.61250  0.57823  Biso   1.000  O
  O33      1.0000 0.07013  0.12810  0.05865  Biso   1.000  O
  O34      1.0000 0.57013  0.62810  0.05865  Biso   1.000  O
  O35      1.0000 0.92987  0.12810  0.44135  Biso   1.000  O
  O36      1.0000 0.42987  0.62810  0.44135  Biso   1.000  O
  O37      1.0000 0.92987  0.87190  0.94135  Biso   1.000  O
  O38      1.0000 0.42987  0.37190  0.94135  Biso   1.000  O
  O39      1.0000 0.07013  0.87190  0.55865  Biso   1.000  O
  O40      1.0000 0.57013  0.37190  0.55865  Biso   1.000  O
  N1       1.0000 0.11377  0.09260  0.11420  Biso   1.000  N
  N2       1.0000 0.61377  0.59260  0.11420  Biso   1.000  N
  N3       1.0000 0.88623  0.09260  0.38580  Biso   1.000  N
  N4       1.0000 0.38623  0.59260  0.38580  Biso   1.000  N
  N5       1.0000 0.88623  0.90740  0.88580  Biso   1.000  N
  N6       1.0000 0.38623  0.40740  0.88580  Biso   1.000  N
  N7       1.0000 0.11377  0.90740  0.61420  Biso   1.000  N
  N8       1.0000 0.61377  0.40740  0.61420  Biso   1.000  N
  C81      1.0000 0.12620  0.15290  0.17700  Biso   1.000  C
  C82      1.0000 0.62620  0.65290  0.17700  Biso   1.000  C
  C83      1.0000 0.87380  0.15290  0.32300  Biso   1.000  C
  C84      1.0000 0.37380  0.65290  0.32300  Biso   1.000  C
  C85      1.0000 0.87380  0.84710  0.82300  Biso   1.000  C
  C86      1.0000 0.37380  0.34710  0.82300  Biso   1.000  C
  C87      1.0000 0.12620  0.84710  0.67700  Biso   1.000  C
  C88      1.0000 0.62620  0.34710  0.67700  Biso   1.000  C
  C89      1.0000 0.14460  0.30280  0.17950  Biso   1.000  C
  C90      1.0000 0.64460  0.80280  0.17950  Biso   1.000  C
  C91      1.0000 0.85540  0.30280  0.32050  Biso   1.000  C
  C92      1.0000 0.35540  0.80280  0.32050  Biso   1.000  C
  C93      1.0000 0.85540  0.69720  0.82050  Biso   1.000  C
  C94      1.0000 0.35540  0.19720  0.82050  Biso   1.000  C
  C95      1.0000 0.14460  0.69720  0.67950  Biso   1.000  C
  C96      1.0000 0.64460  0.19720  0.67950  Biso   1.000  C
  H17      1.0000 0.11900  0.35200  0.14700  Biso   1.000  H
  H18      1.0000 0.61900  0.85200  0.14700  Biso   1.000  H
  H19      1.0000 0.88100  0.35200  0.35300  Biso   1.000  H
  H20      1.0000 0.38100  0.85200  0.35300  Biso   1.000  H
  H21      1.0000 0.88100  0.64800  0.85300  Biso   1.000  H
  H22      1.0000 0.38100  0.14800  0.85300  Biso   1.000  H
  H23      1.0000 0.11900  0.64800  0.64700  Biso   1.000  H
  H24      1.0000 0.61900  0.14800  0.64700  Biso   1.000  H
  H25      1.0000 0.18000  0.30900  0.17900  Biso   1.000  H
  H26      1.0000 0.68000  0.80900  0.17900  Biso   1.000  H
  H27      1.0000 0.82000  0.30900  0.32100  Biso   1.000  H
  H28      1.0000 0.32000  0.80900  0.32100  Biso   1.000  H
  H29      1.0000 0.82000  0.69100  0.82100  Biso   1.000  H
  H30      1.0000 0.32000  0.19100  0.82100  Biso   1.000  H
  H31      1.0000 0.18000  0.69100  0.67900  Biso   1.000  H
  H32      1.0000 0.68000  0.19100  0.67900  Biso   1.000  H
  H33      1.0000 0.15100  0.34000  0.21300  Biso   1.000  H
  H34      1.0000 0.65100  0.84000  0.21300  Biso   1.000  H
  H35      1.0000 0.84900  0.34000  0.28700  Biso   1.000  H
  H36      1.0000 0.34900  0.84000  0.28700  Biso   1.000  H
  H37      1.0000 0.84900  0.66000  0.78700  Biso   1.000  H
  H38      1.0000 0.34900  0.16000  0.78700  Biso   1.000  H
  H39      1.0000 0.15100  0.66000  0.71300  Biso   1.000  H
  H40      1.0000 0.65100  0.16000  0.71300  Biso   1.000  H
  C97      1.0000 0.07750  0.14850  0.18020  Biso   1.000  C
  C98      1.0000 0.57750  0.64850  0.18020  Biso   1.000  C
  C99      1.0000 0.92250  0.14850  0.31980  Biso   1.000  C
  C100     1.0000 0.42250  0.64850  0.31980  Biso   1.000  C
  C101     1.0000 0.92250  0.85150  0.81980  Biso   1.000  C
  C102     1.0000 0.42250  0.35150  0.81980  Biso   1.000  C
  C103     1.0000 0.07750  0.85150  0.68020  Biso   1.000  C
  C104     1.0000 0.57750  0.35150  0.68020  Biso   1.000  C
  H41      1.0000 0.05400  0.20700  0.14800  Biso   1.000  H
  H42      1.0000 0.55400  0.70700  0.14800  Biso   1.000  H
  H43      1.0000 0.94600  0.20700  0.35200  Biso   1.000  H
  H44      1.0000 0.44600  0.70700  0.35200  Biso   1.000  H
  H45      1.0000 0.94600  0.79300  0.85200  Biso   1.000  H
  H46      1.0000 0.44600  0.29300  0.85200  Biso   1.000  H
  H47      1.0000 0.05400  0.79300  0.64800  Biso   1.000  H
  H48      1.0000 0.55400  0.29300  0.64800  Biso   1.000  H
  H49      1.0000 0.09300  0.19400  0.22200  Biso   1.000  H
  H50      1.0000 0.59300  0.69400  0.22200  Biso   1.000  H
  H51      1.0000 0.90700  0.19400  0.27800  Biso   1.000  H
  H52      1.0000 0.40700  0.69400  0.27800  Biso   1.000  H
  H53      1.0000 0.90700  0.80600  0.77800  Biso   1.000  H
  H54      1.0000 0.40700  0.30600  0.77800  Biso   1.000  H
  H55      1.0000 0.09300  0.80600  0.72200  Biso   1.000  H
  H56      1.0000 0.59300  0.30600  0.72200  Biso   1.000  H
  H57      1.0000 0.06500  0.07300  0.17200  Biso   1.000  H
  H58      1.0000 0.56500  0.57300  0.17200  Biso   1.000  H
  H59      1.0000 0.93500  0.07300  0.32800  Biso   1.000  H
  H60      1.0000 0.43500  0.57300  0.32800  Biso   1.000  H
  H61      1.0000 0.93500  0.92700  0.82800  Biso   1.000  H
  H62      1.0000 0.43500  0.42700  0.82800  Biso   1.000  H
  H63      1.0000 0.06500  0.92700  0.67200  Biso   1.000  H
  H64      1.0000 0.56500  0.42700  0.67200  Biso   1.000  H
  C105     1.0000 0.17320  0.05240  0.22570  Biso   1.000  C
  C106     1.0000 0.67320  0.55240  0.22570  Biso   1.000  C
  C107     1.0000 0.82680  0.05240  0.27430  Biso   1.000  C
  C108     1.0000 0.32680  0.55240  0.27430  Biso   1.000  C
  C109     1.0000 0.82680  0.94760  0.77430  Biso   1.000  C
  C110     1.0000 0.32680  0.44760  0.77430  Biso   1.000  C
  C111     1.0000 0.17320  0.94760  0.72570  Biso   1.000  C
  C112     1.0000 0.67320  0.44760  0.72570  Biso   1.000  C
  C113     1.0000 0.21830  0.11930  0.29000  Biso   1.000  C
  C114     1.0000 0.71830  0.61930  0.29000  Biso   1.000  C
  C115     1.0000 0.78170  0.11930  0.21000  Biso   1.000  C
  C116     1.0000 0.28170  0.61930  0.21000  Biso   1.000  C
  C117     1.0000 0.78170  0.88070  0.71000  Biso   1.000  C
  C118     1.0000 0.28170  0.38070  0.71000  Biso   1.000  C
  C119     1.0000 0.21830  0.88070  0.79000  Biso   1.000  C
  C120     1.0000 0.71830  0.38070  0.79000  Biso   1.000  C
  H65      1.0000 0.23500  0.20500  0.28000  Biso   1.000  H
  H66      1.0000 0.73500  0.70500  0.28000  Biso   1.000  H
  H67      1.0000 0.76500  0.20500  0.22000  Biso   1.000  H
  H68      1.0000 0.26500  0.70500  0.22000  Biso   1.000  H
  H69      1.0000 0.76500  0.79500  0.72000  Biso   1.000  H
  H70      1.0000 0.26500  0.29500  0.72000  Biso   1.000  H
  H71      1.0000 0.23500  0.79500  0.78000  Biso   1.000  H
  H72      1.0000 0.73500  0.29500  0.78000  Biso   1.000  H
  H73      1.0000 0.25100  0.04600  0.31900  Biso   1.000  H
  H74      1.0000 0.75100  0.54600  0.31900  Biso   1.000  H
  H75      1.0000 0.74900  0.04600  0.18100  Biso   1.000  H
  H76      1.0000 0.24900  0.54600  0.18100  Biso   1.000  H
  H77      1.0000 0.74900  0.95400  0.68100  Biso   1.000  H
  H78      1.0000 0.24900  0.45400  0.68100  Biso   1.000  H
  H79      1.0000 0.25100  0.95400  0.81900  Biso   1.000  H
  H80      1.0000 0.75100  0.45400  0.81900  Biso   1.000  H
  H81      1.0000 0.19200  0.14600  0.31000  Biso   1.000  H
  H82      1.0000 0.69200  0.64600  0.31000  Biso   1.000  H
  H83      1.0000 0.80800  0.14600  0.19000  Biso   1.000  H
  H84      1.0000 0.30800  0.64600  0.19000  Biso   1.000  H
  H85      1.0000 0.80800  0.85400  0.69000  Biso   1.000  H
  H86      1.0000 0.30800  0.35400  0.69000  Biso   1.000  H
  H87      1.0000 0.19200  0.85400  0.81000  Biso   1.000  H
  H88      1.0000 0.69200  0.35400  0.81000  Biso   1.000  H
  C121     1.0000 0.15350  0.91510  0.23830  Biso   1.000  C
  C122     1.0000 0.65350  0.41510  0.23830  Biso   1.000  C
  C123     1.0000 0.84650  0.91510  0.26170  Biso   1.000  C
  C124     1.0000 0.34650  0.41510  0.26170  Biso   1.000  C
  C125     1.0000 0.84650  0.08490  0.76170  Biso   1.000  C
  C126     1.0000 0.34650  0.58490  0.76170  Biso   1.000  C
  C127     1.0000 0.15350  0.08490  0.73830  Biso   1.000  C
  C128     1.0000 0.65350  0.58490  0.73830  Biso   1.000  C
  H89      1.0000 0.17900  0.86700  0.25600  Biso   1.000  H
  H90      1.0000 0.67900  0.36700  0.25600  Biso   1.000  H
  H91      1.0000 0.82100  0.86700  0.24400  Biso   1.000  H
  H92      1.0000 0.32100  0.36700  0.24400  Biso   1.000  H
  H93      1.0000 0.82100  0.13300  0.74400  Biso   1.000  H
  H94      1.0000 0.32100  0.63300  0.74400  Biso   1.000  H
  H95      1.0000 0.17900  0.13300  0.75600  Biso   1.000  H
  H96      1.0000 0.67900  0.63300  0.75600  Biso   1.000  H
  H97      1.0000 0.11800  0.88500  0.19700  Biso   1.000  H
  H98      1.0000 0.61800  0.38500  0.19700  Biso   1.000  H
  H99      1.0000 0.88200  0.88500  0.30300  Biso   1.000  H
  H100     1.0000 0.38200  0.38500  0.30300  Biso   1.000  H
  H101     1.0000 0.88200  0.11500  0.80300  Biso   1.000  H
  H102     1.0000 0.38200  0.61500  0.80300  Biso   1.000  H
  H103     1.0000 0.11800  0.11500  0.69700  Biso   1.000  H
  H104     1.0000 0.61800  0.61500  0.69700  Biso   1.000  H
  H105     1.0000 0.13700  0.93600  0.26600  Biso   1.000  H
  H106     1.0000 0.63700  0.43600  0.26600  Biso   1.000  H
  H107     1.0000 0.86300  0.93600  0.23400  Biso   1.000  H
  H108     1.0000 0.36300  0.43600  0.23400  Biso   1.000  H
  H109     1.0000 0.86300  0.06400  0.73400  Biso   1.000  H
  H110     1.0000 0.36300  0.56400  0.73400  Biso   1.000  H
  H111     1.0000 0.13700  0.06400  0.76600  Biso   1.000  H
  H112     1.0000 0.63700  0.56400  0.76600  Biso   1.000  H
  N9       1.0000 0.19485  0.01240  0.18560  Biso   1.000  N
  N10      1.0000 0.69485  0.51240  0.18560  Biso   1.000  N
  N11      1.0000 0.80515  0.01240  0.31440  Biso   1.000  N
  N12      1.0000 0.30515  0.51240  0.31440  Biso   1.000  N
  N13      1.0000 0.80515  0.98760  0.81440  Biso   1.000  N
  N14      1.0000 0.30515  0.48760  0.81440  Biso   1.000  N
  N15      1.0000 0.19485  0.98760  0.68560  Biso   1.000  N
  N16      1.0000 0.69485  0.48760  0.68560  Biso   1.000  N
  O41      1.0000 0.24067  0.95790  0.20958  Biso   1.000  O
  O42      1.0000 0.74067  0.45790  0.20958  Biso   1.000  O
  O43      1.0000 0.75933  0.95790  0.29042  Biso   1.000  O
  O44      1.0000 0.25933  0.45790  0.29042  Biso   1.000  O
  O45      1.0000 0.75933  0.04210  0.79042  Biso   1.000  O
  O46      1.0000 0.25933  0.54210  0.79042  Biso   1.000  O
  O47      1.0000 0.24067  0.04210  0.70958  Biso   1.000  O
  O48      1.0000 0.74067  0.54210  0.70958  Biso   1.000  O
  C129     1.0000 0.15680  0.02840  0.12060  Biso   1.000  C
  C130     1.0000 0.65680  0.52840  0.12060  Biso   1.000  C
  C131     1.0000 0.84320  0.02840  0.37940  Biso   1.000  C
  C132     1.0000 0.34320  0.52840  0.37940  Biso   1.000  C
  C133     1.0000 0.84320  0.97160  0.87940  Biso   1.000  C
  C134     1.0000 0.34320  0.47160  0.87940  Biso   1.000  C
  C135     1.0000 0.15680  0.97160  0.62060  Biso   1.000  C
  C136     1.0000 0.65680  0.47160  0.62060  Biso   1.000  C
  C137     1.0000 0.16160  0.98400  0.06930  Biso   1.000  C
  C138     1.0000 0.66160  0.48400  0.06930  Biso   1.000  C
  C139     1.0000 0.83840  0.98400  0.43070  Biso   1.000  C
  C140     1.0000 0.33840  0.48400  0.43070  Biso   1.000  C
  C141     1.0000 0.83840  0.01600  0.93070  Biso   1.000  C
  C142     1.0000 0.33840  0.51600  0.93070  Biso   1.000  C
  C143     1.0000 0.16160  0.01600  0.56930  Biso   1.000  C
  C144     1.0000 0.66160  0.51600  0.56930  Biso   1.000  C
  C145     1.0000 0.20240  0.90340  0.07310  Biso   1.000  C
  C146     1.0000 0.70240  0.40340  0.07310  Biso   1.000  C
  C147     1.0000 0.79760  0.90340  0.42690  Biso   1.000  C
  C148     1.0000 0.29760  0.40340  0.42690  Biso   1.000  C
  C149     1.0000 0.79760  0.09660  0.92690  Biso   1.000  C
  C150     1.0000 0.29760  0.59660  0.92690  Biso   1.000  C
  C151     1.0000 0.20240  0.09660  0.57310  Biso   1.000  C
  C152     1.0000 0.70240  0.59660  0.57310  Biso   1.000  C
  H113     1.0000 0.22900  0.87300  0.10500  Biso   1.000  H
  H114     1.0000 0.72900  0.37300  0.10500  Biso   1.000  H
  H115     1.0000 0.77100  0.87300  0.39500  Biso   1.000  H
  H116     1.0000 0.27100  0.37300  0.39500  Biso   1.000  H
  H117     1.0000 0.77100  0.12700  0.89500  Biso   1.000  H
  H118     1.0000 0.27100  0.62700  0.89500  Biso   1.000  H
  H119     1.0000 0.22900  0.12700  0.60500  Biso   1.000  H
  H120     1.0000 0.72900  0.62700  0.60500  Biso   1.000  H
  N17      1.0000 0.19423  0.88300  0.01560  Biso   1.000  N
  N18      1.0000 0.69423  0.38300  0.01560  Biso   1.000  N
  N19      1.0000 0.80577  0.88300  0.48440  Biso   1.000  N
  N20      1.0000 0.30577  0.38300  0.48440  Biso   1.000  N
  N21      1.0000 0.80577  0.11700  0.98440  Biso   1.000  N
  N22      1.0000 0.30577  0.61700  0.98440  Biso   1.000  N
  N23      1.0000 0.19423  0.11700  0.51560  Biso   1.000  N
  N24      1.0000 0.69423  0.61700  0.51560  Biso   1.000  N
  N25      1.0000 0.14740  0.95540  0.97320  Biso   1.000  N
  N26      1.0000 0.64740  0.45540  0.97320  Biso   1.000  N
  N27      1.0000 0.85260  0.95540  0.52680  Biso   1.000  N
  N28      1.0000 0.35260  0.45540  0.52680  Biso   1.000  N
  N29      1.0000 0.85260  0.04460  0.02680  Biso   1.000  N
  N30      1.0000 0.35260  0.54460  0.02680  Biso   1.000  N
  N31      1.0000 0.14740  0.04460  0.47320  Biso   1.000  N
  N32      1.0000 0.64740  0.54460  0.47320  Biso   1.000  N
  C153     1.0000 0.12490  0.96220  0.90310  Biso   1.000  C
  C154     1.0000 0.62490  0.46220  0.90310  Biso   1.000  C
  C155     1.0000 0.87510  0.96220  0.59690  Biso   1.000  C
  C156     1.0000 0.37510  0.46220  0.59690  Biso   1.000  C
  C157     1.0000 0.87510  0.03780  0.09690  Biso   1.000  C
  C158     1.0000 0.37510  0.53780  0.09690  Biso   1.000  C
  C159     1.0000 0.12490  0.03780  0.40310  Biso   1.000  C
  C160     1.0000 0.62490  0.53780  0.40310  Biso   1.000  C
  H121     1.0000 0.15000  0.92600  0.89600  Biso   1.000  H
  H122     1.0000 0.65000  0.42600  0.89600  Biso   1.000  H
  H123     1.0000 0.85000  0.92600  0.60400  Biso   1.000  H
  H124     1.0000 0.35000  0.42600  0.60400  Biso   1.000  H
  H125     1.0000 0.85000  0.07400  0.10400  Biso   1.000  H
  H126     1.0000 0.35000  0.57400  0.10400  Biso   1.000  H
  H127     1.0000 0.15000  0.07400  0.39600  Biso   1.000  H
  H128     1.0000 0.65000  0.57400  0.39600  Biso   1.000  H
  H129     1.0000 0.11600  0.06300  0.88700  Biso   1.000  H
  H130     1.0000 0.61600  0.56300  0.88700  Biso   1.000  H
  H131     1.0000 0.88400  0.06300  0.61300  Biso   1.000  H
  H132     1.0000 0.38400  0.56300  0.61300  Biso   1.000  H
  H133     1.0000 0.88400  0.93700  0.11300  Biso   1.000  H
  H134     1.0000 0.38400  0.43700  0.11300  Biso   1.000  H
  H135     1.0000 0.11600  0.93700  0.38700  Biso   1.000  H
  H136     1.0000 0.61600  0.43700  0.38700  Biso   1.000  H
  C161     1.0000 0.07000  0.89630  0.86270  Biso   1.000  C
  C162     1.0000 0.57000  0.39630  0.86270  Biso   1.000  C
  C163     1.0000 0.93000  0.89630  0.63730  Biso   1.000  C
  C164     1.0000 0.43000  0.39630  0.63730  Biso   1.000  C
  C165     1.0000 0.93000  0.10370  0.13730  Biso   1.000  C
  C166     1.0000 0.43000  0.60370  0.13730  Biso   1.000  C
  C167     1.0000 0.07000  0.10370  0.36270  Biso   1.000  C
  C168     1.0000 0.57000  0.60370  0.36270  Biso   1.000  C
  H137     1.0000 0.05100  0.91500  0.81500  Biso   1.000  H
  H138     1.0000 0.55100  0.41500  0.81500  Biso   1.000  H
  H139     1.0000 0.94900  0.91500  0.68500  Biso   1.000  H
  H140     1.0000 0.44900  0.41500  0.68500  Biso   1.000  H
  H141     1.0000 0.94900  0.08500  0.18500  Biso   1.000  H
  H142     1.0000 0.44900  0.58500  0.18500  Biso   1.000  H
  H143     1.0000 0.05100  0.08500  0.31500  Biso   1.000  H
  H144     1.0000 0.55100  0.58500  0.31500  Biso   1.000  H
  H145     1.0000 0.04300  0.94100  0.86500  Biso   1.000  H
  H146     1.0000 0.54300  0.44100  0.86500  Biso   1.000  H
  H147     1.0000 0.95700  0.94100  0.63500  Biso   1.000  H
  H148     1.0000 0.45700  0.44100  0.63500  Biso   1.000  H
  H149     1.0000 0.95700  0.05900  0.13500  Biso   1.000  H
  H150     1.0000 0.45700  0.55900  0.13500  Biso   1.000  H
  H151     1.0000 0.04300  0.05900  0.36500  Biso   1.000  H
  H152     1.0000 0.54300  0.55900  0.36500  Biso   1.000  H
  H153     1.0000 0.07400  0.78800  0.87700  Biso   1.000  H
  H154     1.0000 0.57400  0.28800  0.87700  Biso   1.000  H
  H155     1.0000 0.92600  0.78800  0.62300  Biso   1.000  H
  H156     1.0000 0.42600  0.28800  0.62300  Biso   1.000  H
  H157     1.0000 0.92600  0.21200  0.12300  Biso   1.000  H
  H158     1.0000 0.42600  0.71200  0.12300  Biso   1.000  H
  H159     1.0000 0.07400  0.21200  0.37700  Biso   1.000  H
  H160     1.0000 0.57400  0.71200  0.37700  Biso   1.000  H
  C169     1.0000 0.12740  0.01420  0.00360  Biso   1.000  C
  C170     1.0000 0.62740  0.51420  0.00360  Biso   1.000  C
  C171     1.0000 0.87260  0.01420  0.49640  Biso   1.000  C
  C172     1.0000 0.37260  0.51420  0.49640  Biso   1.000  C
  C173     1.0000 0.87260  0.98580  0.99640  Biso   1.000  C
  C174     1.0000 0.37260  0.48580  0.99640  Biso   1.000  C
  C175     1.0000 0.12740  0.98580  0.50360  Biso   1.000  C
  C176     1.0000 0.62740  0.48580  0.50360  Biso   1.000  C
  H161     1.0000 0.10200  0.05600  0.98600  Biso   1.000  H
  H162     1.0000 0.60200  0.55600  0.98600  Biso   1.000  H
  H163     1.0000 0.89800  0.05600  0.51400  Biso   1.000  H
  H164     1.0000 0.39800  0.55600  0.51400  Biso   1.000  H
  H165     1.0000 0.89800  0.94400  0.01400  Biso   1.000  H
  H166     1.0000 0.39800  0.44400  0.01400  Biso   1.000  H
  H167     1.0000 0.10200  0.94400  0.48600  Biso   1.000  H
  H168     1.0000 0.60200  0.44400  0.48600  Biso   1.000  H
