data_image0
_cell_length_a       30.247
_cell_length_b       9.695
_cell_length_c       25.032
_cell_angle_alpha    90
_cell_angle_beta     123.833
_cell_angle_gamma    90

_symmetry_space_group_name_H-M    "P 1"
_symmetry_int_tables_number       1

loop_
  _symmetry_equiv_pos_as_xyz
  'x, y, z'

loop_
  _atom_site_label
  _atom_site_occupancy
  _atom_site_fract_x
  _atom_site_fract_y
  _atom_site_fract_z
  _atom_site_thermal_displace_type
  _atom_site_B_iso_or_equiv
  _atom_site_type_symbol
  Cu1      1.0000 0.25000  0.75000  0.00000  Biso   1.000  Cu
  Cu2      1.0000 0.75000  0.25000  0.00000  Biso   1.000  Cu
  Cu3      1.0000 0.75000  0.75000  0.50000  Biso   1.000  Cu
  Cu4      1.0000 0.25000  0.25000  0.50000  Biso   1.000  Cu
  Cu5      1.0000 0.00000  0.00000  0.00000  Biso   1.000  Cu
  Cu6      1.0000 0.50000  0.50000  0.00000  Biso   1.000  Cu
  Cu7      1.0000 0.00000  0.00000  0.50000  Biso   1.000  Cu
  Cu8      1.0000 0.50000  0.50000  0.50000  Biso   1.000  Cu
  O1       1.0000 0.31369  0.83350  0.08900  Biso   1.000  O
  O2       1.0000 0.81369  0.33350  0.08900  Biso   1.000  O
  O3       1.0000 0.68631  0.83350  0.41100  Biso   1.000  O
  O4       1.0000 0.18631  0.33350  0.41100  Biso   1.000  O
  O5       1.0000 0.68631  0.16650  0.91100  Biso   1.000  O
  O6       1.0000 0.18631  0.66650  0.91100  Biso   1.000  O
  O7       1.0000 0.31369  0.16650  0.58900  Biso   1.000  O
  O8       1.0000 0.81369  0.66650  0.58900  Biso   1.000  O
  C1       1.0000 0.37280  0.99240  0.16870  Biso   1.000  C
  C2       1.0000 0.87280  0.49240  0.16870  Biso   1.000  C
  C3       1.0000 0.62720  0.99240  0.33130  Biso   1.000  C
  C4       1.0000 0.12720  0.49240  0.33130  Biso   1.000  C
  C5       1.0000 0.62720  0.00760  0.83130  Biso   1.000  C
  C6       1.0000 0.12720  0.50760  0.83130  Biso   1.000  C
  C7       1.0000 0.37280  0.00760  0.66870  Biso   1.000  C
  C8       1.0000 0.87280  0.50760  0.66870  Biso   1.000  C
  F1       1.0000 0.40070  0.89100  0.20490  Biso   1.000  F
  F2       1.0000 0.90070  0.39100  0.20490  Biso   1.000  F
  F3       1.0000 0.59930  0.89100  0.29510  Biso   1.000  F
  F4       1.0000 0.09930  0.39100  0.29510  Biso   1.000  F
  F5       1.0000 0.59930  0.10900  0.79510  Biso   1.000  F
  F6       1.0000 0.09930  0.60900  0.79510  Biso   1.000  F
  F7       1.0000 0.40070  0.10900  0.70490  Biso   1.000  F
  F8       1.0000 0.90070  0.60900  0.70490  Biso   1.000  F
  F9       1.0000 0.34300  0.02800  0.19120  Biso   1.000  F
  F10      1.0000 0.84300  0.52800  0.19120  Biso   1.000  F
  F11      1.0000 0.65700  0.02800  0.30880  Biso   1.000  F
  F12      1.0000 0.15700  0.52800  0.30880  Biso   1.000  F
  F13      1.0000 0.65700  0.97200  0.80880  Biso   1.000  F
  F14      1.0000 0.15700  0.47200  0.80880  Biso   1.000  F
  F15      1.0000 0.34300  0.97200  0.69120  Biso   1.000  F
  F16      1.0000 0.84300  0.47200  0.69120  Biso   1.000  F
  F17      1.0000 0.40360  0.09300  0.17850  Biso   1.000  F
  F18      1.0000 0.90360  0.59300  0.17850  Biso   1.000  F
  F19      1.0000 0.59640  0.09300  0.32150  Biso   1.000  F
  F20      1.0000 0.09640  0.59300  0.32150  Biso   1.000  F
  F21      1.0000 0.59640  0.90700  0.82150  Biso   1.000  F
  F22      1.0000 0.09640  0.40700  0.82150  Biso   1.000  F
  F23      1.0000 0.40360  0.90700  0.67850  Biso   1.000  F
  F24      1.0000 0.90360  0.40700  0.67850  Biso   1.000  F
  F25      1.0000 0.41800  0.93100  0.18940  Biso   1.000  F
  F26      1.0000 0.91800  0.43100  0.18940  Biso   1.000  F
  F27      1.0000 0.58200  0.93100  0.31060  Biso   1.000  F
  F28      1.0000 0.08200  0.43100  0.31060  Biso   1.000  F
  F29      1.0000 0.58200  0.06900  0.81060  Biso   1.000  F
  F30      1.0000 0.08200  0.56900  0.81060  Biso   1.000  F
  F31      1.0000 0.41800  0.06900  0.68940  Biso   1.000  F
  F32      1.0000 0.91800  0.56900  0.68940  Biso   1.000  F
  F33      1.0000 0.35800  0.96700  0.20540  Biso   1.000  F
  F34      1.0000 0.85800  0.46700  0.20540  Biso   1.000  F
  F35      1.0000 0.64200  0.96700  0.29460  Biso   1.000  F
  F36      1.0000 0.14200  0.46700  0.29460  Biso   1.000  F
  F37      1.0000 0.64200  0.03300  0.79460  Biso   1.000  F
  F38      1.0000 0.14200  0.53300  0.79460  Biso   1.000  F
  F39      1.0000 0.35800  0.03300  0.70540  Biso   1.000  F
  F40      1.0000 0.85800  0.53300  0.70540  Biso   1.000  F
  F41      1.0000 0.38690  0.12300  0.17740  Biso   1.000  F
  F42      1.0000 0.88690  0.62300  0.17740  Biso   1.000  F
  F43      1.0000 0.61310  0.12300  0.32260  Biso   1.000  F
  F44      1.0000 0.11310  0.62300  0.32260  Biso   1.000  F
  F45      1.0000 0.61310  0.87700  0.82260  Biso   1.000  F
  F46      1.0000 0.11310  0.37700  0.82260  Biso   1.000  F
  F47      1.0000 0.38690  0.87700  0.67740  Biso   1.000  F
  F48      1.0000 0.88690  0.37700  0.67740  Biso   1.000  F
  C9       1.0000 0.33240  0.95230  0.09720  Biso   1.000  C
  C10      1.0000 0.83240  0.45230  0.09720  Biso   1.000  C
  C11      1.0000 0.66760  0.95230  0.40280  Biso   1.000  C
  C12      1.0000 0.16760  0.45230  0.40280  Biso   1.000  C
  C13      1.0000 0.66760  0.04770  0.90280  Biso   1.000  C
  C14      1.0000 0.16760  0.54770  0.90280  Biso   1.000  C
  C15      1.0000 0.33240  0.04770  0.59720  Biso   1.000  C
  C16      1.0000 0.83240  0.54770  0.59720  Biso   1.000  C
  C17      1.0000 0.32180  0.04960  0.05070  Biso   1.000  C
  C18      1.0000 0.82180  0.54960  0.05070  Biso   1.000  C
  C19      1.0000 0.67820  0.04960  0.44930  Biso   1.000  C
  C20      1.0000 0.17820  0.54960  0.44930  Biso   1.000  C
  C21      1.0000 0.67820  0.95040  0.94930  Biso   1.000  C
  C22      1.0000 0.17820  0.45040  0.94930  Biso   1.000  C
  C23      1.0000 0.32180  0.95040  0.55070  Biso   1.000  C
  C24      1.0000 0.82180  0.45040  0.55070  Biso   1.000  C
  H1       1.0000 0.31800  0.09300  0.05400  Biso   1.000  H
  H2       1.0000 0.81800  0.59300  0.05400  Biso   1.000  H
  H3       1.0000 0.68200  0.09300  0.44600  Biso   1.000  H
  H4       1.0000 0.18200  0.59300  0.44600  Biso   1.000  H
  H5       1.0000 0.68200  0.90700  0.94600  Biso   1.000  H
  H6       1.0000 0.18200  0.40700  0.94600  Biso   1.000  H
  H7       1.0000 0.31800  0.90700  0.55400  Biso   1.000  H
  H8       1.0000 0.81800  0.40700  0.55400  Biso   1.000  H
  C25      1.0000 0.28420  0.03150  0.98480  Biso   1.000  C
  C26      1.0000 0.78420  0.53150  0.98480  Biso   1.000  C
  C27      1.0000 0.71580  0.03150  0.51520  Biso   1.000  C
  C28      1.0000 0.21580  0.53150  0.51520  Biso   1.000  C
  C29      1.0000 0.71580  0.96850  0.01520  Biso   1.000  C
  C30      1.0000 0.21580  0.46850  0.01520  Biso   1.000  C
  C31      1.0000 0.28420  0.96850  0.48480  Biso   1.000  C
  C32      1.0000 0.78420  0.46850  0.48480  Biso   1.000  C
  C33      1.0000 0.27340  0.15830  0.94030  Biso   1.000  C
  C34      1.0000 0.77340  0.65830  0.94030  Biso   1.000  C
  C35      1.0000 0.72660  0.15830  0.55970  Biso   1.000  C
  C36      1.0000 0.22660  0.65830  0.55970  Biso   1.000  C
  C37      1.0000 0.72660  0.84170  0.05970  Biso   1.000  C
  C38      1.0000 0.22660  0.34170  0.05970  Biso   1.000  C
  C39      1.0000 0.27340  0.84170  0.44030  Biso   1.000  C
  C40      1.0000 0.77340  0.34170  0.44030  Biso   1.000  C
  F49      1.0000 0.28510  0.27800  0.97080  Biso   1.000  F
  F50      1.0000 0.78510  0.77800  0.97080  Biso   1.000  F
  F51      1.0000 0.71490  0.27800  0.52920  Biso   1.000  F
  F52      1.0000 0.21490  0.77800  0.52920  Biso   1.000  F
  F53      1.0000 0.71490  0.72200  0.02920  Biso   1.000  F
  F54      1.0000 0.21490  0.22200  0.02920  Biso   1.000  F
  F55      1.0000 0.28510  0.72200  0.47080  Biso   1.000  F
  F56      1.0000 0.78510  0.22200  0.47080  Biso   1.000  F
  F57      1.0000 0.22070  0.16520  0.89400  Biso   1.000  F
  F58      1.0000 0.72070  0.66520  0.89400  Biso   1.000  F
  F59      1.0000 0.77930  0.16520  0.60600  Biso   1.000  F
  F60      1.0000 0.27930  0.66520  0.60600  Biso   1.000  F
  F61      1.0000 0.77930  0.83480  0.10600  Biso   1.000  F
  F62      1.0000 0.27930  0.33480  0.10600  Biso   1.000  F
  F63      1.0000 0.22070  0.83480  0.39400  Biso   1.000  F
  F64      1.0000 0.72070  0.33480  0.39400  Biso   1.000  F
  F65      1.0000 0.29770  0.14710  0.91040  Biso   1.000  F
  F66      1.0000 0.79770  0.64710  0.91040  Biso   1.000  F
  F67      1.0000 0.70230  0.14710  0.58960  Biso   1.000  F
  F68      1.0000 0.20230  0.64710  0.58960  Biso   1.000  F
  F69      1.0000 0.70230  0.85290  0.08960  Biso   1.000  F
  F70      1.0000 0.20230  0.35290  0.08960  Biso   1.000  F
  F71      1.0000 0.29770  0.85290  0.41040  Biso   1.000  F
  F72      1.0000 0.79770  0.35290  0.41040  Biso   1.000  F
  O9       1.0000 0.25870  0.92640  0.95575  Biso   1.000  O
  O10      1.0000 0.75870  0.42640  0.95575  Biso   1.000  O
  O11      1.0000 0.74130  0.92640  0.54425  Biso   1.000  O
  O12      1.0000 0.24130  0.42640  0.54425  Biso   1.000  O
  O13      1.0000 0.74130  0.07360  0.04425  Biso   1.000  O
  O14      1.0000 0.24130  0.57360  0.04425  Biso   1.000  O
  O15      1.0000 0.25870  0.07360  0.45575  Biso   1.000  O
  O16      1.0000 0.75870  0.57360  0.45575  Biso   1.000  O
  O17      1.0000 0.04501  0.82620  0.00030  Biso   1.000  O
  O18      1.0000 0.54501  0.32620  0.00030  Biso   1.000  O
  O19      1.0000 0.95499  0.82620  0.49970  Biso   1.000  O
  O20      1.0000 0.45499  0.32620  0.49970  Biso   1.000  O
  O21      1.0000 0.95499  0.17380  0.99970  Biso   1.000  O
  O22      1.0000 0.45499  0.67380  0.99970  Biso   1.000  O
  O23      1.0000 0.04501  0.17380  0.50030  Biso   1.000  O
  O24      1.0000 0.54501  0.67380  0.50030  Biso   1.000  O
  C41      1.0000 0.08410  0.60860  0.01310  Biso   1.000  C
  C42      1.0000 0.58410  0.10860  0.01310  Biso   1.000  C
  C43      1.0000 0.91590  0.60860  0.48690  Biso   1.000  C
  C44      1.0000 0.41590  0.10860  0.48690  Biso   1.000  C
  C45      1.0000 0.91590  0.39140  0.98690  Biso   1.000  C
  C46      1.0000 0.41590  0.89140  0.98690  Biso   1.000  C
  C47      1.0000 0.08410  0.39140  0.51310  Biso   1.000  C
  C48      1.0000 0.58410  0.89140  0.51310  Biso   1.000  C
  F73      1.0000 0.12450  0.64400  0.01940  Biso   1.000  F
  F74      1.0000 0.62450  0.14400  0.01940  Biso   1.000  F
  F75      1.0000 0.87550  0.64400  0.48060  Biso   1.000  F
  F76      1.0000 0.37550  0.14400  0.48060  Biso   1.000  F
  F77      1.0000 0.87550  0.35600  0.98060  Biso   1.000  F
  F78      1.0000 0.37550  0.85600  0.98060  Biso   1.000  F
  F79      1.0000 0.12450  0.35600  0.51940  Biso   1.000  F
  F80      1.0000 0.62450  0.85600  0.51940  Biso   1.000  F
  F81      1.0000 0.07530  0.50500  0.02000  Biso   1.000  F
  F82      1.0000 0.57530  0.00500  0.02000  Biso   1.000  F
  F83      1.0000 0.92470  0.50500  0.48000  Biso   1.000  F
  F84      1.0000 0.42470  0.00500  0.48000  Biso   1.000  F
  F85      1.0000 0.92470  0.49500  0.98000  Biso   1.000  F
  F86      1.0000 0.42470  0.99500  0.98000  Biso   1.000  F
  F87      1.0000 0.07530  0.49500  0.52000  Biso   1.000  F
  F88      1.0000 0.57530  0.99500  0.52000  Biso   1.000  F
  F89      1.0000 0.07820  0.45900  0.02100  Biso   1.000  F
  F90      1.0000 0.57820  0.95900  0.02100  Biso   1.000  F
  F91      1.0000 0.92180  0.45900  0.47900  Biso   1.000  F
  F92      1.0000 0.42180  0.95900  0.47900  Biso   1.000  F
  F93      1.0000 0.92180  0.54100  0.97900  Biso   1.000  F
  F94      1.0000 0.42180  0.04100  0.97900  Biso   1.000  F
  F95      1.0000 0.07820  0.54100  0.52100  Biso   1.000  F
  F96      1.0000 0.57820  0.04100  0.52100  Biso   1.000  F
  F97      1.0000 0.14230  0.61450  0.07570  Biso   1.000  F
  F98      1.0000 0.64230  0.11450  0.07570  Biso   1.000  F
  F99      1.0000 0.85770  0.61450  0.42430  Biso   1.000  F
  F100     1.0000 0.35770  0.11450  0.42430  Biso   1.000  F
  F101     1.0000 0.85770  0.38550  0.92430  Biso   1.000  F
  F102     1.0000 0.35770  0.88550  0.92430  Biso   1.000  F
  F103     1.0000 0.14230  0.38550  0.57570  Biso   1.000  F
  F104     1.0000 0.64230  0.88550  0.57570  Biso   1.000  F
  F105     1.0000 0.09490  0.64500  0.97640  Biso   1.000  F
  F106     1.0000 0.59490  0.14500  0.97640  Biso   1.000  F
  F107     1.0000 0.90510  0.64500  0.52360  Biso   1.000  F
  F108     1.0000 0.40510  0.14500  0.52360  Biso   1.000  F
  F109     1.0000 0.90510  0.35500  0.02360  Biso   1.000  F
  F110     1.0000 0.40510  0.85500  0.02360  Biso   1.000  F
  F111     1.0000 0.09490  0.35500  0.47640  Biso   1.000  F
  F112     1.0000 0.59490  0.85500  0.47640  Biso   1.000  F
  F113     1.0000 0.05030  0.59690  0.93990  Biso   1.000  F
  F114     1.0000 0.55030  0.09690  0.93990  Biso   1.000  F
  F115     1.0000 0.94970  0.59690  0.56010  Biso   1.000  F
  F116     1.0000 0.44970  0.09690  0.56010  Biso   1.000  F
  F117     1.0000 0.94970  0.40310  0.06010  Biso   1.000  F
  F118     1.0000 0.44970  0.90310  0.06010  Biso   1.000  F
  F119     1.0000 0.05030  0.40310  0.43990  Biso   1.000  F
  F120     1.0000 0.55030  0.90310  0.43990  Biso   1.000  F
  C49      1.0000 0.05510  0.71520  0.03080  Biso   1.000  C
  C50      1.0000 0.55510  0.21520  0.03080  Biso   1.000  C
  C51      1.0000 0.94490  0.71520  0.46920  Biso   1.000  C
  C52      1.0000 0.44490  0.21520  0.46920  Biso   1.000  C
  C53      1.0000 0.94490  0.28480  0.96920  Biso   1.000  C
  C54      1.0000 0.44490  0.78480  0.96920  Biso   1.000  C
  C55      1.0000 0.05510  0.28480  0.53080  Biso   1.000  C
  C56      1.0000 0.55510  0.78480  0.53080  Biso   1.000  C
  C57      1.0000 0.04470  0.67950  0.07570  Biso   1.000  C
  C58      1.0000 0.54470  0.17950  0.07570  Biso   1.000  C
  C59      1.0000 0.95530  0.67950  0.42430  Biso   1.000  C
  C60      1.0000 0.45530  0.17950  0.42430  Biso   1.000  C
  C61      1.0000 0.95530  0.32050  0.92430  Biso   1.000  C
  C62      1.0000 0.45530  0.82050  0.92430  Biso   1.000  C
  C63      1.0000 0.04470  0.32050  0.57570  Biso   1.000  C
  C64      1.0000 0.54470  0.82050  0.57570  Biso   1.000  C
  H9       1.0000 0.04400  0.60400  0.08200  Biso   1.000  H
  H10      1.0000 0.54400  0.10400  0.08200  Biso   1.000  H
  H11      1.0000 0.95600  0.60400  0.41800  Biso   1.000  H
  H12      1.0000 0.45600  0.10400  0.41800  Biso   1.000  H
  H13      1.0000 0.95600  0.39600  0.91800  Biso   1.000  H
  H14      1.0000 0.45600  0.89600  0.91800  Biso   1.000  H
  H15      1.0000 0.04400  0.39600  0.58200  Biso   1.000  H
  H16      1.0000 0.54400  0.89600  0.58200  Biso   1.000  H
  C65      1.0000 0.01950  0.76510  0.09500  Biso   1.000  C
  C66      1.0000 0.51950  0.26510  0.09500  Biso   1.000  C
  C67      1.0000 0.98050  0.76510  0.40500  Biso   1.000  C
  C68      1.0000 0.48050  0.26510  0.40500  Biso   1.000  C
  C69      1.0000 0.98050  0.23490  0.90500  Biso   1.000  C
  C70      1.0000 0.48050  0.73490  0.90500  Biso   1.000  C
  C71      1.0000 0.01950  0.23490  0.59500  Biso   1.000  C
  C72      1.0000 0.51950  0.73490  0.59500  Biso   1.000  C
  C73      1.0000 0.00530  0.71070  0.14250  Biso   1.000  C
  C74      1.0000 0.50530  0.21070  0.14250  Biso   1.000  C
  C75      1.0000 0.99470  0.71070  0.35750  Biso   1.000  C
  C76      1.0000 0.49470  0.21070  0.35750  Biso   1.000  C
  C77      1.0000 0.99470  0.28930  0.85750  Biso   1.000  C
  C78      1.0000 0.49470  0.78930  0.85750  Biso   1.000  C
  C79      1.0000 0.00530  0.28930  0.64250  Biso   1.000  C
  C80      1.0000 0.50530  0.78930  0.64250  Biso   1.000  C
  F121     1.0000 0.95280  0.71270  0.11460  Biso   1.000  F
  F122     1.0000 0.45280  0.21270  0.11460  Biso   1.000  F
  F123     1.0000 0.04720  0.71270  0.38540  Biso   1.000  F
  F124     1.0000 0.54720  0.21270  0.38540  Biso   1.000  F
  F125     1.0000 0.04720  0.28730  0.88540  Biso   1.000  F
  F126     1.0000 0.54720  0.78730  0.88540  Biso   1.000  F
  F127     1.0000 0.95280  0.28730  0.61460  Biso   1.000  F
  F128     1.0000 0.45280  0.78730  0.61460  Biso   1.000  F
  F129     1.0000 0.02320  0.58510  0.16370  Biso   1.000  F
  F130     1.0000 0.52320  0.08510  0.16370  Biso   1.000  F
  F131     1.0000 0.97680  0.58510  0.33630  Biso   1.000  F
  F132     1.0000 0.47680  0.08510  0.33630  Biso   1.000  F
  F133     1.0000 0.97680  0.41490  0.83630  Biso   1.000  F
  F134     1.0000 0.47680  0.91490  0.83630  Biso   1.000  F
  F135     1.0000 0.02320  0.41490  0.66370  Biso   1.000  F
  F136     1.0000 0.52320  0.91490  0.66370  Biso   1.000  F
  F137     1.0000 0.02690  0.79220  0.19450  Biso   1.000  F
  F138     1.0000 0.52690  0.29220  0.19450  Biso   1.000  F
  F139     1.0000 0.97310  0.79220  0.30550  Biso   1.000  F
  F140     1.0000 0.47310  0.29220  0.30550  Biso   1.000  F
  F141     1.0000 0.97310  0.20780  0.80550  Biso   1.000  F
  F142     1.0000 0.47310  0.70780  0.80550  Biso   1.000  F
  F143     1.0000 0.02690  0.20780  0.69450  Biso   1.000  F
  F144     1.0000 0.52690  0.70780  0.69450  Biso   1.000  F
  O25      1.0000 0.00528  0.89020  0.07840  Biso   1.000  O
  O26      1.0000 0.50528  0.39020  0.07840  Biso   1.000  O
  O27      1.0000 0.99472  0.89020  0.42160  Biso   1.000  O
  O28      1.0000 0.49472  0.39020  0.42160  Biso   1.000  O
  O29      1.0000 0.99472  0.10980  0.92160  Biso   1.000  O
  O30      1.0000 0.49472  0.60980  0.92160  Biso   1.000  O
  O31      1.0000 0.00528  0.10980  0.57840  Biso   1.000  O
  O32      1.0000 0.50528  0.60980  0.57840  Biso   1.000  O
  O33      1.0000 0.07014  0.12630  0.05792  Biso   1.000  O
  O34      1.0000 0.57014  0.62630  0.05792  Biso   1.000  O
  O35      1.0000 0.92986  0.12630  0.44208  Biso   1.000  O
  O36      1.0000 0.42986  0.62630  0.44208  Biso   1.000  O
  O37      1.0000 0.92986  0.87370  0.94208  Biso   1.000  O
  O38      1.0000 0.42986  0.37370  0.94208  Biso   1.000  O
  O39      1.0000 0.07014  0.87370  0.55792  Biso   1.000  O
  O40      1.0000 0.57014  0.37370  0.55792  Biso   1.000  O
  N1       1.0000 0.11410  0.09300  0.11330  Biso   1.000  N
  N2       1.0000 0.61410  0.59300  0.11330  Biso   1.000  N
  N3       1.0000 0.88590  0.09300  0.38670  Biso   1.000  N
  N4       1.0000 0.38590  0.59300  0.38670  Biso   1.000  N
  N5       1.0000 0.88590  0.90700  0.88670  Biso   1.000  N
  N6       1.0000 0.38590  0.40700  0.88670  Biso   1.000  N
  N7       1.0000 0.11410  0.90700  0.61330  Biso   1.000  N
  N8       1.0000 0.61410  0.40700  0.61330  Biso   1.000  N
  C81      1.0000 0.12680  0.15240  0.17520  Biso   1.000  C
  C82      1.0000 0.62680  0.65240  0.17520  Biso   1.000  C
  C83      1.0000 0.87320  0.15240  0.32480  Biso   1.000  C
  C84      1.0000 0.37320  0.65240  0.32480  Biso   1.000  C
  C85      1.0000 0.87320  0.84760  0.82480  Biso   1.000  C
  C86      1.0000 0.37320  0.34760  0.82480  Biso   1.000  C
  C87      1.0000 0.12680  0.84760  0.67520  Biso   1.000  C
  C88      1.0000 0.62680  0.34760  0.67520  Biso   1.000  C
  C89      1.0000 0.14360  0.30340  0.17560  Biso   1.000  C
  C90      1.0000 0.64360  0.80340  0.17560  Biso   1.000  C
  C91      1.0000 0.85640  0.30340  0.32440  Biso   1.000  C
  C92      1.0000 0.35640  0.80340  0.32440  Biso   1.000  C
  C93      1.0000 0.85640  0.69660  0.82440  Biso   1.000  C
  C94      1.0000 0.35640  0.19660  0.82440  Biso   1.000  C
  C95      1.0000 0.14360  0.69660  0.67560  Biso   1.000  C
  C96      1.0000 0.64360  0.19660  0.67560  Biso   1.000  C
  H17      1.0000 0.10300  0.33700  0.13400  Biso   1.000  H
  H18      1.0000 0.60300  0.83700  0.13400  Biso   1.000  H
  H19      1.0000 0.89700  0.33700  0.36600  Biso   1.000  H
  H20      1.0000 0.39700  0.83700  0.36600  Biso   1.000  H
  H21      1.0000 0.89700  0.66300  0.86600  Biso   1.000  H
  H22      1.0000 0.39700  0.16300  0.86600  Biso   1.000  H
  H23      1.0000 0.10300  0.66300  0.63400  Biso   1.000  H
  H24      1.0000 0.60300  0.16300  0.63400  Biso   1.000  H
  H25      1.0000 0.17700  0.31500  0.17600  Biso   1.000  H
  H26      1.0000 0.67700  0.81500  0.17600  Biso   1.000  H
  H27      1.0000 0.82300  0.31500  0.32400  Biso   1.000  H
  H28      1.0000 0.32300  0.81500  0.32400  Biso   1.000  H
  H29      1.0000 0.82300  0.68500  0.82400  Biso   1.000  H
  H30      1.0000 0.32300  0.18500  0.82400  Biso   1.000  H
  H31      1.0000 0.17700  0.68500  0.67600  Biso   1.000  H
  H32      1.0000 0.67700  0.18500  0.67600  Biso   1.000  H
  H33      1.0000 0.14800  0.33300  0.20300  Biso   1.000  H
  H34      1.0000 0.64800  0.83300  0.20300  Biso   1.000  H
  H35      1.0000 0.85200  0.33300  0.29700  Biso   1.000  H
  H36      1.0000 0.35200  0.83300  0.29700  Biso   1.000  H
  H37      1.0000 0.85200  0.66700  0.79700  Biso   1.000  H
  H38      1.0000 0.35200  0.16700  0.79700  Biso   1.000  H
  H39      1.0000 0.14800  0.66700  0.70300  Biso   1.000  H
  H40      1.0000 0.64800  0.16700  0.70300  Biso   1.000  H
  C97      1.0000 0.07830  0.14690  0.17930  Biso   1.000  C
  C98      1.0000 0.57830  0.64690  0.17930  Biso   1.000  C
  C99      1.0000 0.92170  0.14690  0.32070  Biso   1.000  C
  C100     1.0000 0.42170  0.64690  0.32070  Biso   1.000  C
  C101     1.0000 0.92170  0.85310  0.82070  Biso   1.000  C
  C102     1.0000 0.42170  0.35310  0.82070  Biso   1.000  C
  C103     1.0000 0.07830  0.85310  0.67930  Biso   1.000  C
  C104     1.0000 0.57830  0.35310  0.67930  Biso   1.000  C
  H41      1.0000 0.06100  0.19700  0.15400  Biso   1.000  H
  H42      1.0000 0.56100  0.69700  0.15400  Biso   1.000  H
  H43      1.0000 0.93900  0.19700  0.34600  Biso   1.000  H
  H44      1.0000 0.43900  0.69700  0.34600  Biso   1.000  H
  H45      1.0000 0.93900  0.80300  0.84600  Biso   1.000  H
  H46      1.0000 0.43900  0.30300  0.84600  Biso   1.000  H
  H47      1.0000 0.06100  0.80300  0.65400  Biso   1.000  H
  H48      1.0000 0.56100  0.30300  0.65400  Biso   1.000  H
  H49      1.0000 0.09300  0.19400  0.21900  Biso   1.000  H
  H50      1.0000 0.59300  0.69400  0.21900  Biso   1.000  H
  H51      1.0000 0.90700  0.19400  0.28100  Biso   1.000  H
  H52      1.0000 0.40700  0.69400  0.28100  Biso   1.000  H
  H53      1.0000 0.90700  0.80600  0.78100  Biso   1.000  H
  H54      1.0000 0.40700  0.30600  0.78100  Biso   1.000  H
  H55      1.0000 0.09300  0.80600  0.71900  Biso   1.000  H
  H56      1.0000 0.59300  0.30600  0.71900  Biso   1.000  H
  H57      1.0000 0.07000  0.04200  0.17500  Biso   1.000  H
  H58      1.0000 0.57000  0.54200  0.17500  Biso   1.000  H
  H59      1.0000 0.93000  0.04200  0.32500  Biso   1.000  H
  H60      1.0000 0.43000  0.54200  0.32500  Biso   1.000  H
  H61      1.0000 0.93000  0.95800  0.82500  Biso   1.000  H
  H62      1.0000 0.43000  0.45800  0.82500  Biso   1.000  H
  H63      1.0000 0.07000  0.95800  0.67500  Biso   1.000  H
  H64      1.0000 0.57000  0.45800  0.67500  Biso   1.000  H
  C105     1.0000 0.17350  0.05590  0.22420  Biso   1.000  C
  C106     1.0000 0.67350  0.55590  0.22420  Biso   1.000  C
  C107     1.0000 0.82650  0.05590  0.27580  Biso   1.000  C
  C108     1.0000 0.32650  0.55590  0.27580  Biso   1.000  C
  C109     1.0000 0.82650  0.94410  0.77580  Biso   1.000  C
  C110     1.0000 0.32650  0.44410  0.77580  Biso   1.000  C
  C111     1.0000 0.17350  0.94410  0.72420  Biso   1.000  C
  C112     1.0000 0.67350  0.44410  0.72420  Biso   1.000  C
  C113     1.0000 0.21970  0.12630  0.28760  Biso   1.000  C
  C114     1.0000 0.71970  0.62630  0.28760  Biso   1.000  C
  C115     1.0000 0.78030  0.12630  0.21240  Biso   1.000  C
  C116     1.0000 0.28030  0.62630  0.21240  Biso   1.000  C
  C117     1.0000 0.78030  0.87370  0.71240  Biso   1.000  C
  C118     1.0000 0.28030  0.37370  0.71240  Biso   1.000  C
  C119     1.0000 0.21970  0.87370  0.78760  Biso   1.000  C
  C120     1.0000 0.71970  0.37370  0.78760  Biso   1.000  C
  H65      1.0000 0.23400  0.22400  0.26300  Biso   1.000  H
  H66      1.0000 0.73400  0.72400  0.26300  Biso   1.000  H
  H67      1.0000 0.76600  0.22400  0.23700  Biso   1.000  H
  H68      1.0000 0.26600  0.72400  0.23700  Biso   1.000  H
  H69      1.0000 0.76600  0.77600  0.73700  Biso   1.000  H
  H70      1.0000 0.26600  0.27600  0.73700  Biso   1.000  H
  H71      1.0000 0.23400  0.77600  0.76300  Biso   1.000  H
  H72      1.0000 0.73400  0.27600  0.76300  Biso   1.000  H
  H73      1.0000 0.25700  0.05200  0.32000  Biso   1.000  H
  H74      1.0000 0.75700  0.55200  0.32000  Biso   1.000  H
  H75      1.0000 0.74300  0.05200  0.18000  Biso   1.000  H
  H76      1.0000 0.24300  0.55200  0.18000  Biso   1.000  H
  H77      1.0000 0.74300  0.94800  0.68000  Biso   1.000  H
  H78      1.0000 0.24300  0.44800  0.68000  Biso   1.000  H
  H79      1.0000 0.25700  0.94800  0.82000  Biso   1.000  H
  H80      1.0000 0.75700  0.44800  0.82000  Biso   1.000  H
  H81      1.0000 0.20700  0.14200  0.30500  Biso   1.000  H
  H82      1.0000 0.70700  0.64200  0.30500  Biso   1.000  H
  H83      1.0000 0.79300  0.14200  0.19500  Biso   1.000  H
  H84      1.0000 0.29300  0.64200  0.19500  Biso   1.000  H
  H85      1.0000 0.79300  0.85800  0.69500  Biso   1.000  H
  H86      1.0000 0.29300  0.35800  0.69500  Biso   1.000  H
  H87      1.0000 0.20700  0.85800  0.80500  Biso   1.000  H
  H88      1.0000 0.70700  0.35800  0.80500  Biso   1.000  H
  C121     1.0000 0.15440  0.92210  0.23870  Biso   1.000  C
  C122     1.0000 0.65440  0.42210  0.23870  Biso   1.000  C
  C123     1.0000 0.84560  0.92210  0.26130  Biso   1.000  C
  C124     1.0000 0.34560  0.42210  0.26130  Biso   1.000  C
  C125     1.0000 0.84560  0.07790  0.76130  Biso   1.000  C
  C126     1.0000 0.34560  0.57790  0.76130  Biso   1.000  C
  C127     1.0000 0.15440  0.07790  0.73870  Biso   1.000  C
  C128     1.0000 0.65440  0.57790  0.73870  Biso   1.000  C
  H89      1.0000 0.18100  0.87500  0.25400  Biso   1.000  H
  H90      1.0000 0.68100  0.37500  0.25400  Biso   1.000  H
  H91      1.0000 0.81900  0.87500  0.24600  Biso   1.000  H
  H92      1.0000 0.31900  0.37500  0.24600  Biso   1.000  H
  H93      1.0000 0.81900  0.12500  0.74600  Biso   1.000  H
  H94      1.0000 0.31900  0.62500  0.74600  Biso   1.000  H
  H95      1.0000 0.18100  0.12500  0.75400  Biso   1.000  H
  H96      1.0000 0.68100  0.62500  0.75400  Biso   1.000  H
  H97      1.0000 0.12600  0.88700  0.19800  Biso   1.000  H
  H98      1.0000 0.62600  0.38700  0.19800  Biso   1.000  H
  H99      1.0000 0.87400  0.88700  0.30200  Biso   1.000  H
  H100     1.0000 0.37400  0.38700  0.30200  Biso   1.000  H
  H101     1.0000 0.87400  0.11300  0.80200  Biso   1.000  H
  H102     1.0000 0.37400  0.61300  0.80200  Biso   1.000  H
  H103     1.0000 0.12600  0.11300  0.69800  Biso   1.000  H
  H104     1.0000 0.62600  0.61300  0.69800  Biso   1.000  H
  H105     1.0000 0.14300  0.94800  0.27200  Biso   1.000  H
  H106     1.0000 0.64300  0.44800  0.27200  Biso   1.000  H
  H107     1.0000 0.85700  0.94800  0.22800  Biso   1.000  H
  H108     1.0000 0.35700  0.44800  0.22800  Biso   1.000  H
  H109     1.0000 0.85700  0.05200  0.72800  Biso   1.000  H
  H110     1.0000 0.35700  0.55200  0.72800  Biso   1.000  H
  H111     1.0000 0.14300  0.05200  0.77200  Biso   1.000  H
  H112     1.0000 0.64300  0.55200  0.77200  Biso   1.000  H
  N9       1.0000 0.19510  0.01690  0.18410  Biso   1.000  N
  N10      1.0000 0.69510  0.51690  0.18410  Biso   1.000  N
  N11      1.0000 0.80490  0.01690  0.31590  Biso   1.000  N
  N12      1.0000 0.30490  0.51690  0.31590  Biso   1.000  N
  N13      1.0000 0.80490  0.98310  0.81590  Biso   1.000  N
  N14      1.0000 0.30490  0.48310  0.81590  Biso   1.000  N
  N15      1.0000 0.19510  0.98310  0.68410  Biso   1.000  N
  N16      1.0000 0.69510  0.48310  0.68410  Biso   1.000  N
  O41      1.0000 0.24070  0.96290  0.20820  Biso   1.000  O
  O42      1.0000 0.74070  0.46290  0.20820  Biso   1.000  O
  O43      1.0000 0.75930  0.96290  0.29180  Biso   1.000  O
  O44      1.0000 0.25930  0.46290  0.29180  Biso   1.000  O
  O45      1.0000 0.75930  0.03710  0.79180  Biso   1.000  O
  O46      1.0000 0.25930  0.53710  0.79180  Biso   1.000  O
  O47      1.0000 0.24070  0.03710  0.70820  Biso   1.000  O
  O48      1.0000 0.74070  0.53710  0.70820  Biso   1.000  O
  C129     1.0000 0.15690  0.03030  0.11940  Biso   1.000  C
  C130     1.0000 0.65690  0.53030  0.11940  Biso   1.000  C
  C131     1.0000 0.84310  0.03030  0.38060  Biso   1.000  C
  C132     1.0000 0.34310  0.53030  0.38060  Biso   1.000  C
  C133     1.0000 0.84310  0.96970  0.88060  Biso   1.000  C
  C134     1.0000 0.34310  0.46970  0.88060  Biso   1.000  C
  C135     1.0000 0.15690  0.96970  0.61940  Biso   1.000  C
  C136     1.0000 0.65690  0.46970  0.61940  Biso   1.000  C
  C137     1.0000 0.16190  0.98440  0.06850  Biso   1.000  C
  C138     1.0000 0.66190  0.48440  0.06850  Biso   1.000  C
  C139     1.0000 0.83810  0.98440  0.43150  Biso   1.000  C
  C140     1.0000 0.33810  0.48440  0.43150  Biso   1.000  C
  C141     1.0000 0.83810  0.01560  0.93150  Biso   1.000  C
  C142     1.0000 0.33810  0.51560  0.93150  Biso   1.000  C
  C143     1.0000 0.16190  0.01560  0.56850  Biso   1.000  C
  C144     1.0000 0.66190  0.51560  0.56850  Biso   1.000  C
  C145     1.0000 0.20220  0.90420  0.07230  Biso   1.000  C
  C146     1.0000 0.70220  0.40420  0.07230  Biso   1.000  C
  C147     1.0000 0.79780  0.90420  0.42770  Biso   1.000  C
  C148     1.0000 0.29780  0.40420  0.42770  Biso   1.000  C
  C149     1.0000 0.79780  0.09580  0.92770  Biso   1.000  C
  C150     1.0000 0.29780  0.59580  0.92770  Biso   1.000  C
  C151     1.0000 0.20220  0.09580  0.57230  Biso   1.000  C
  C152     1.0000 0.70220  0.59580  0.57230  Biso   1.000  C
  H113     1.0000 0.22400  0.85900  0.09900  Biso   1.000  H
  H114     1.0000 0.72400  0.35900  0.09900  Biso   1.000  H
  H115     1.0000 0.77600  0.85900  0.40100  Biso   1.000  H
  H116     1.0000 0.27600  0.35900  0.40100  Biso   1.000  H
  H117     1.0000 0.77600  0.14100  0.90100  Biso   1.000  H
  H118     1.0000 0.27600  0.64100  0.90100  Biso   1.000  H
  H119     1.0000 0.22400  0.14100  0.59900  Biso   1.000  H
  H120     1.0000 0.72400  0.64100  0.59900  Biso   1.000  H
  N17      1.0000 0.19390  0.88240  0.01550  Biso   1.000  N
  N18      1.0000 0.69390  0.38240  0.01550  Biso   1.000  N
  N19      1.0000 0.80610  0.88240  0.48450  Biso   1.000  N
  N20      1.0000 0.30610  0.38240  0.48450  Biso   1.000  N
  N21      1.0000 0.80610  0.11760  0.98450  Biso   1.000  N
  N22      1.0000 0.30610  0.61760  0.98450  Biso   1.000  N
  N23      1.0000 0.19390  0.11760  0.51550  Biso   1.000  N
  N24      1.0000 0.69390  0.61760  0.51550  Biso   1.000  N
  N25      1.0000 0.14720  0.95300  0.97300  Biso   1.000  N
  N26      1.0000 0.64720  0.45300  0.97300  Biso   1.000  N
  N27      1.0000 0.85280  0.95300  0.52700  Biso   1.000  N
  N28      1.0000 0.35280  0.45300  0.52700  Biso   1.000  N
  N29      1.0000 0.85280  0.04700  0.02700  Biso   1.000  N
  N30      1.0000 0.35280  0.54700  0.02700  Biso   1.000  N
  N31      1.0000 0.14720  0.04700  0.47300  Biso   1.000  N
  N32      1.0000 0.64720  0.54700  0.47300  Biso   1.000  N
  C153     1.0000 0.12500  0.96000  0.90250  Biso   1.000  C
  C154     1.0000 0.62500  0.46000  0.90250  Biso   1.000  C
  C155     1.0000 0.87500  0.96000  0.59750  Biso   1.000  C
  C156     1.0000 0.37500  0.46000  0.59750  Biso   1.000  C
  C157     1.0000 0.87500  0.04000  0.09750  Biso   1.000  C
  C158     1.0000 0.37500  0.54000  0.09750  Biso   1.000  C
  C159     1.0000 0.12500  0.04000  0.40250  Biso   1.000  C
  C160     1.0000 0.62500  0.54000  0.40250  Biso   1.000  C
  H121     1.0000 0.15000  0.92500  0.89800  Biso   1.000  H
  H122     1.0000 0.65000  0.42500  0.89800  Biso   1.000  H
  H123     1.0000 0.85000  0.92500  0.60200  Biso   1.000  H
  H124     1.0000 0.35000  0.42500  0.60200  Biso   1.000  H
  H125     1.0000 0.85000  0.07500  0.10200  Biso   1.000  H
  H126     1.0000 0.35000  0.57500  0.10200  Biso   1.000  H
  H127     1.0000 0.15000  0.07500  0.39800  Biso   1.000  H
  H128     1.0000 0.65000  0.57500  0.39800  Biso   1.000  H
  H129     1.0000 0.10800  0.07500  0.88000  Biso   1.000  H
  H130     1.0000 0.60800  0.57500  0.88000  Biso   1.000  H
  H131     1.0000 0.89200  0.07500  0.62000  Biso   1.000  H
  H132     1.0000 0.39200  0.57500  0.62000  Biso   1.000  H
  H133     1.0000 0.89200  0.92500  0.12000  Biso   1.000  H
  H134     1.0000 0.39200  0.42500  0.12000  Biso   1.000  H
  H135     1.0000 0.10800  0.92500  0.38000  Biso   1.000  H
  H136     1.0000 0.60800  0.42500  0.38000  Biso   1.000  H
  C161     1.0000 0.07020  0.89400  0.86280  Biso   1.000  C
  C162     1.0000 0.57020  0.39400  0.86280  Biso   1.000  C
  C163     1.0000 0.92980  0.89400  0.63720  Biso   1.000  C
  C164     1.0000 0.42980  0.39400  0.63720  Biso   1.000  C
  C165     1.0000 0.92980  0.10600  0.13720  Biso   1.000  C
  C166     1.0000 0.42980  0.60600  0.13720  Biso   1.000  C
  C167     1.0000 0.07020  0.10600  0.36280  Biso   1.000  C
  C168     1.0000 0.57020  0.60600  0.36280  Biso   1.000  C
  H137     1.0000 0.04700  0.90800  0.81500  Biso   1.000  H
  H138     1.0000 0.54700  0.40800  0.81500  Biso   1.000  H
  H139     1.0000 0.95300  0.90800  0.68500  Biso   1.000  H
  H140     1.0000 0.45300  0.40800  0.68500  Biso   1.000  H
  H141     1.0000 0.95300  0.09200  0.18500  Biso   1.000  H
  H142     1.0000 0.45300  0.59200  0.18500  Biso   1.000  H
  H143     1.0000 0.04700  0.09200  0.31500  Biso   1.000  H
  H144     1.0000 0.54700  0.59200  0.31500  Biso   1.000  H
  H145     1.0000 0.04400  0.95100  0.86500  Biso   1.000  H
  H146     1.0000 0.54400  0.45100  0.86500  Biso   1.000  H
  H147     1.0000 0.95600  0.95100  0.63500  Biso   1.000  H
  H148     1.0000 0.45600  0.45100  0.63500  Biso   1.000  H
  H149     1.0000 0.95600  0.04900  0.13500  Biso   1.000  H
  H150     1.0000 0.45600  0.54900  0.13500  Biso   1.000  H
  H151     1.0000 0.04400  0.04900  0.36500  Biso   1.000  H
  H152     1.0000 0.54400  0.54900  0.36500  Biso   1.000  H
  H153     1.0000 0.06900  0.78000  0.86800  Biso   1.000  H
  H154     1.0000 0.56900  0.28000  0.86800  Biso   1.000  H
  H155     1.0000 0.93100  0.78000  0.63200  Biso   1.000  H
  H156     1.0000 0.43100  0.28000  0.63200  Biso   1.000  H
  H157     1.0000 0.93100  0.22000  0.13200  Biso   1.000  H
  H158     1.0000 0.43100  0.72000  0.13200  Biso   1.000  H
  H159     1.0000 0.06900  0.22000  0.36800  Biso   1.000  H
  H160     1.0000 0.56900  0.72000  0.36800  Biso   1.000  H
  C169     1.0000 0.12710  0.01370  0.00290  Biso   1.000  C
  C170     1.0000 0.62710  0.51370  0.00290  Biso   1.000  C
  C171     1.0000 0.87290  0.01370  0.49710  Biso   1.000  C
  C172     1.0000 0.37290  0.51370  0.49710  Biso   1.000  C
  C173     1.0000 0.87290  0.98630  0.99710  Biso   1.000  C
  C174     1.0000 0.37290  0.48630  0.99710  Biso   1.000  C
  C175     1.0000 0.12710  0.98630  0.50290  Biso   1.000  C
  C176     1.0000 0.62710  0.48630  0.50290  Biso   1.000  C
  H161     1.0000 0.09500  0.06100  0.98000  Biso   1.000  H
  H162     1.0000 0.59500  0.56100  0.98000  Biso   1.000  H
  H163     1.0000 0.90500  0.06100  0.52000  Biso   1.000  H
  H164     1.0000 0.40500  0.56100  0.52000  Biso   1.000  H
  H165     1.0000 0.90500  0.93900  0.02000  Biso   1.000  H
  H166     1.0000 0.40500  0.43900  0.02000  Biso   1.000  H
  H167     1.0000 0.09500  0.93900  0.48000  Biso   1.000  H
  H168     1.0000 0.59500  0.43900  0.48000  Biso   1.000  H
