data_image0
_cell_length_a       30.431
_cell_length_b       9.5502
_cell_length_c       25.1171
_cell_angle_alpha    90
_cell_angle_beta     123.753
_cell_angle_gamma    90

_symmetry_space_group_name_H-M    "P 1"
_symmetry_int_tables_number       1

loop_
  _symmetry_equiv_pos_as_xyz
  'x, y, z'

loop_
  _atom_site_label
  _atom_site_occupancy
  _atom_site_fract_x
  _atom_site_fract_y
  _atom_site_fract_z
  _atom_site_thermal_displace_type
  _atom_site_B_iso_or_equiv
  _atom_site_type_symbol
  Cu1      1.0000 0.00000  0.00000  0.00000  Biso   1.000  Cu
  Cu2      1.0000 0.50000  0.50000  0.00000  Biso   1.000  Cu
  Cu3      1.0000 0.00000  0.00000  0.50000  Biso   1.000  Cu
  Cu4      1.0000 0.50000  0.50000  0.50000  Biso   1.000  Cu
  O1       1.0000 0.99443  0.09760  0.92491  Biso   1.000  O
  O2       1.0000 0.49443  0.59760  0.92491  Biso   1.000  O
  O3       1.0000 0.00557  0.09760  0.57509  Biso   1.000  O
  O4       1.0000 0.50557  0.59760  0.57509  Biso   1.000  O
  O5       1.0000 0.00557  0.90240  0.07509  Biso   1.000  O
  O6       1.0000 0.50557  0.40240  0.07509  Biso   1.000  O
  O7       1.0000 0.99443  0.90240  0.42491  Biso   1.000  O
  O8       1.0000 0.49443  0.40240  0.42491  Biso   1.000  O
  C1       1.0000 0.98680  0.27790  0.85780  Biso   1.000  C
  C2       1.0000 0.48680  0.77790  0.85780  Biso   1.000  C
  C3       1.0000 0.01320  0.27790  0.64220  Biso   1.000  C
  C4       1.0000 0.51320  0.77790  0.64220  Biso   1.000  C
  C5       1.0000 0.01320  0.72210  0.14220  Biso   1.000  C
  C6       1.0000 0.51320  0.22210  0.14220  Biso   1.000  C
  C7       1.0000 0.98680  0.72210  0.35780  Biso   1.000  C
  C8       1.0000 0.48680  0.22210  0.35780  Biso   1.000  C
  F1       1.0000 0.95880  0.40200  0.82700  Biso   1.000  F
  F2       1.0000 0.45880  0.90200  0.82700  Biso   1.000  F
  F3       1.0000 0.04120  0.40200  0.67300  Biso   1.000  F
  F4       1.0000 0.54120  0.90200  0.67300  Biso   1.000  F
  F5       1.0000 0.04120  0.59800  0.17300  Biso   1.000  F
  F6       1.0000 0.54120  0.09800  0.17300  Biso   1.000  F
  F7       1.0000 0.95880  0.59800  0.32700  Biso   1.000  F
  F8       1.0000 0.45880  0.09800  0.32700  Biso   1.000  F
  F9       1.0000 0.96300  0.21200  0.80800  Biso   1.000  F
  F10      1.0000 0.46300  0.71200  0.80800  Biso   1.000  F
  F11      1.0000 0.03700  0.21200  0.69200  Biso   1.000  F
  F12      1.0000 0.53700  0.71200  0.69200  Biso   1.000  F
  F13      1.0000 0.03700  0.78800  0.19200  Biso   1.000  F
  F14      1.0000 0.53700  0.28800  0.19200  Biso   1.000  F
  F15      1.0000 0.96300  0.78800  0.30800  Biso   1.000  F
  F16      1.0000 0.46300  0.28800  0.30800  Biso   1.000  F
  F17      1.0000 0.03390  0.31200  0.87900  Biso   1.000  F
  F18      1.0000 0.53390  0.81200  0.87900  Biso   1.000  F
  F19      1.0000 0.96610  0.31200  0.62100  Biso   1.000  F
  F20      1.0000 0.46610  0.81200  0.62100  Biso   1.000  F
  F21      1.0000 0.96610  0.68800  0.12100  Biso   1.000  F
  F22      1.0000 0.46610  0.18800  0.12100  Biso   1.000  F
  F23      1.0000 0.03390  0.68800  0.37900  Biso   1.000  F
  F24      1.0000 0.53390  0.18800  0.37900  Biso   1.000  F
  F25      1.0000 0.97100  0.18100  0.81000  Biso   1.000  F
  F26      1.0000 0.47100  0.68100  0.81000  Biso   1.000  F
  F27      1.0000 0.02900  0.18100  0.69000  Biso   1.000  F
  F28      1.0000 0.52900  0.68100  0.69000  Biso   1.000  F
  F29      1.0000 0.02900  0.81900  0.19000  Biso   1.000  F
  F30      1.0000 0.52900  0.31900  0.19000  Biso   1.000  F
  F31      1.0000 0.97100  0.81900  0.31000  Biso   1.000  F
  F32      1.0000 0.47100  0.31900  0.31000  Biso   1.000  F
  F33      1.0000 0.04040  0.27100  0.88310  Biso   1.000  F
  F34      1.0000 0.54040  0.77100  0.88310  Biso   1.000  F
  F35      1.0000 0.95960  0.27100  0.61690  Biso   1.000  F
  F36      1.0000 0.45960  0.77100  0.61690  Biso   1.000  F
  F37      1.0000 0.95960  0.72900  0.11690  Biso   1.000  F
  F38      1.0000 0.45960  0.22900  0.11690  Biso   1.000  F
  F39      1.0000 0.04040  0.72900  0.38310  Biso   1.000  F
  F40      1.0000 0.54040  0.22900  0.38310  Biso   1.000  F
  F41      1.0000 0.97530  0.39700  0.84370  Biso   1.000  F
  F42      1.0000 0.47530  0.89700  0.84370  Biso   1.000  F
  F43      1.0000 0.02470  0.39700  0.65630  Biso   1.000  F
  F44      1.0000 0.52470  0.89700  0.65630  Biso   1.000  F
  F45      1.0000 0.02470  0.60300  0.15630  Biso   1.000  F
  F46      1.0000 0.52470  0.10300  0.15630  Biso   1.000  F
  F47      1.0000 0.97530  0.60300  0.34370  Biso   1.000  F
  F48      1.0000 0.47530  0.10300  0.34370  Biso   1.000  F
  C9       1.0000 0.97880  0.22000  0.90760  Biso   1.000  C
  C10      1.0000 0.47880  0.72000  0.90760  Biso   1.000  C
  C11      1.0000 0.02120  0.22000  0.59240  Biso   1.000  C
  C12      1.0000 0.52120  0.72000  0.59240  Biso   1.000  C
  C13      1.0000 0.02120  0.78000  0.09240  Biso   1.000  C
  C14      1.0000 0.52120  0.28000  0.09240  Biso   1.000  C
  C15      1.0000 0.97880  0.78000  0.40760  Biso   1.000  C
  C16      1.0000 0.47880  0.28000  0.40760  Biso   1.000  C
  C17      1.0000 0.95620  0.30600  0.92970  Biso   1.000  C
  C18      1.0000 0.45620  0.80600  0.92970  Biso   1.000  C
  C19      1.0000 0.04380  0.30600  0.57030  Biso   1.000  C
  C20      1.0000 0.54380  0.80600  0.57030  Biso   1.000  C
  C21      1.0000 0.04380  0.69400  0.07030  Biso   1.000  C
  C22      1.0000 0.54380  0.19400  0.07030  Biso   1.000  C
  C23      1.0000 0.95620  0.69400  0.42970  Biso   1.000  C
  C24      1.0000 0.45620  0.19400  0.42970  Biso   1.000  C
  H1       1.0000 0.94900  0.38900  0.91300  Biso   1.000  H
  H2       1.0000 0.44900  0.88900  0.91300  Biso   1.000  H
  H3       1.0000 0.05100  0.38900  0.58700  Biso   1.000  H
  H4       1.0000 0.55100  0.88900  0.58700  Biso   1.000  H
  H5       1.0000 0.05100  0.61100  0.08700  Biso   1.000  H
  H6       1.0000 0.55100  0.11100  0.08700  Biso   1.000  H
  H7       1.0000 0.94900  0.61100  0.41300  Biso   1.000  H
  H8       1.0000 0.44900  0.11100  0.41300  Biso   1.000  H
  C25      1.0000 0.94967  0.26800  0.97750  Biso   1.000  C
  C26      1.0000 0.44967  0.76800  0.97750  Biso   1.000  C
  C27      1.0000 0.05033  0.26800  0.52250  Biso   1.000  C
  C28      1.0000 0.55033  0.76800  0.52250  Biso   1.000  C
  C29      1.0000 0.05033  0.73200  0.02250  Biso   1.000  C
  C30      1.0000 0.55033  0.23200  0.02250  Biso   1.000  C
  C31      1.0000 0.94967  0.73200  0.47750  Biso   1.000  C
  C32      1.0000 0.44967  0.23200  0.47750  Biso   1.000  C
  C33      1.0000 0.92410  0.37400  0.99810  Biso   1.000  C
  C34      1.0000 0.42410  0.87400  0.99810  Biso   1.000  C
  C35      1.0000 0.07590  0.37400  0.50190  Biso   1.000  C
  C36      1.0000 0.57590  0.87400  0.50190  Biso   1.000  C
  C37      1.0000 0.07590  0.62600  0.00190  Biso   1.000  C
  C38      1.0000 0.57590  0.12600  0.00190  Biso   1.000  C
  C39      1.0000 0.92410  0.62600  0.49810  Biso   1.000  C
  C40      1.0000 0.42410  0.12600  0.49810  Biso   1.000  C
  F49      1.0000 0.88700  0.33580  0.99860  Biso   1.000  F
  F50      1.0000 0.38700  0.83580  0.99860  Biso   1.000  F
  F51      1.0000 0.11300  0.33580  0.50140  Biso   1.000  F
  F52      1.0000 0.61300  0.83580  0.50140  Biso   1.000  F
  F53      1.0000 0.11300  0.66420  0.00140  Biso   1.000  F
  F54      1.0000 0.61300  0.16420  0.00140  Biso   1.000  F
  F55      1.0000 0.88700  0.66420  0.49860  Biso   1.000  F
  F56      1.0000 0.38700  0.16420  0.49860  Biso   1.000  F
  F57      1.0000 0.92040  0.33600  0.04060  Biso   1.000  F
  F58      1.0000 0.42040  0.83600  0.04060  Biso   1.000  F
  F59      1.0000 0.07960  0.33600  0.45940  Biso   1.000  F
  F60      1.0000 0.57960  0.83600  0.45940  Biso   1.000  F
  F61      1.0000 0.07960  0.66400  0.95940  Biso   1.000  F
  F62      1.0000 0.57960  0.16400  0.95940  Biso   1.000  F
  F63      1.0000 0.92040  0.66400  0.54060  Biso   1.000  F
  F64      1.0000 0.42040  0.16400  0.54060  Biso   1.000  F
  F65      1.0000 0.92430  0.50500  0.98200  Biso   1.000  F
  F66      1.0000 0.42430  0.00500  0.98200  Biso   1.000  F
  F67      1.0000 0.07570  0.50500  0.51800  Biso   1.000  F
  F68      1.0000 0.57570  0.00500  0.51800  Biso   1.000  F
  F69      1.0000 0.07570  0.49500  0.01800  Biso   1.000  F
  F70      1.0000 0.57570  0.99500  0.01800  Biso   1.000  F
  F71      1.0000 0.92430  0.49500  0.48200  Biso   1.000  F
  F72      1.0000 0.42430  0.99500  0.48200  Biso   1.000  F
  F73      1.0000 0.86710  0.37590  0.94310  Biso   1.000  F
  F74      1.0000 0.36710  0.87590  0.94310  Biso   1.000  F
  F75      1.0000 0.13290  0.37590  0.55690  Biso   1.000  F
  F76      1.0000 0.63290  0.87590  0.55690  Biso   1.000  F
  F77      1.0000 0.13290  0.62410  0.05690  Biso   1.000  F
  F78      1.0000 0.63290  0.12410  0.05690  Biso   1.000  F
  F79      1.0000 0.86710  0.62410  0.44310  Biso   1.000  F
  F80      1.0000 0.36710  0.12410  0.44310  Biso   1.000  F
  F81      1.0000 0.93470  0.49400  0.99590  Biso   1.000  F
  F82      1.0000 0.43470  0.99400  0.99590  Biso   1.000  F
  F83      1.0000 0.06530  0.49400  0.50410  Biso   1.000  F
  F84      1.0000 0.56530  0.99400  0.50410  Biso   1.000  F
  F85      1.0000 0.06530  0.50600  0.00410  Biso   1.000  F
  F86      1.0000 0.56530  0.00600  0.00410  Biso   1.000  F
  F87      1.0000 0.93470  0.50600  0.49590  Biso   1.000  F
  F88      1.0000 0.43470  0.00600  0.49590  Biso   1.000  F
  F89      1.0000 0.96330  0.39290  0.06750  Biso   1.000  F
  F90      1.0000 0.46330  0.89290  0.06750  Biso   1.000  F
  F91      1.0000 0.03670  0.39290  0.43250  Biso   1.000  F
  F92      1.0000 0.53670  0.89290  0.43250  Biso   1.000  F
  F93      1.0000 0.03670  0.60710  0.93250  Biso   1.000  F
  F94      1.0000 0.53670  0.10710  0.93250  Biso   1.000  F
  F95      1.0000 0.96330  0.60710  0.56750  Biso   1.000  F
  F96      1.0000 0.46330  0.10710  0.56750  Biso   1.000  F
  O9       1.0000 0.96112  0.15450  0.00698  Biso   1.000  O
  O10      1.0000 0.46112  0.65450  0.00698  Biso   1.000  O
  O11      1.0000 0.03888  0.15450  0.49302  Biso   1.000  O
  O12      1.0000 0.53888  0.65450  0.49302  Biso   1.000  O
  O13      1.0000 0.03888  0.84550  0.99302  Biso   1.000  O
  O14      1.0000 0.53888  0.34550  0.99302  Biso   1.000  O
  O15      1.0000 0.96112  0.84550  0.50698  Biso   1.000  O
  O16      1.0000 0.46112  0.34550  0.50698  Biso   1.000  O
  Co1      1.0000 0.25000  0.75000  0.00000  Biso   1.000  Co
  Co2      1.0000 0.75000  0.25000  0.00000  Biso   1.000  Co
  Co3      1.0000 0.75000  0.75000  0.50000  Biso   1.000  Co
  Co4      1.0000 0.25000  0.25000  0.50000  Biso   1.000  Co
  O17      1.0000 0.25635  0.91170  0.95509  Biso   1.000  O
  O18      1.0000 0.75635  0.41170  0.95509  Biso   1.000  O
  O19      1.0000 0.74365  0.91170  0.54491  Biso   1.000  O
  O20      1.0000 0.24365  0.41170  0.54491  Biso   1.000  O
  O21      1.0000 0.74365  0.08830  0.04491  Biso   1.000  O
  O22      1.0000 0.24365  0.58830  0.04491  Biso   1.000  O
  O23      1.0000 0.25635  0.08830  0.45509  Biso   1.000  O
  O24      1.0000 0.75635  0.58830  0.45509  Biso   1.000  O
  C41      1.0000 0.27450  0.13910  0.93800  Biso   1.000  C
  C42      1.0000 0.77450  0.63910  0.93800  Biso   1.000  C
  C43      1.0000 0.72550  0.13910  0.56200  Biso   1.000  C
  C44      1.0000 0.22550  0.63910  0.56200  Biso   1.000  C
  C45      1.0000 0.72550  0.86090  0.06200  Biso   1.000  C
  C46      1.0000 0.22550  0.36090  0.06200  Biso   1.000  C
  C47      1.0000 0.27450  0.86090  0.43800  Biso   1.000  C
  C48      1.0000 0.77450  0.36090  0.43800  Biso   1.000  C
  F97      1.0000 0.28800  0.10200  0.90080  Biso   1.000  F
  F98      1.0000 0.78800  0.60200  0.90080  Biso   1.000  F
  F99      1.0000 0.71200  0.10200  0.59920  Biso   1.000  F
  F100     1.0000 0.21200  0.60200  0.59920  Biso   1.000  F
  F101     1.0000 0.71200  0.89800  0.09920  Biso   1.000  F
  F102     1.0000 0.21200  0.39800  0.09920  Biso   1.000  F
  F103     1.0000 0.28800  0.89800  0.40080  Biso   1.000  F
  F104     1.0000 0.78800  0.39800  0.40080  Biso   1.000  F
  F105     1.0000 0.22020  0.15650  0.89590  Biso   1.000  F
  F106     1.0000 0.72020  0.65650  0.89590  Biso   1.000  F
  F107     1.0000 0.77980  0.15650  0.60410  Biso   1.000  F
  F108     1.0000 0.27980  0.65650  0.60410  Biso   1.000  F
  F109     1.0000 0.77980  0.84350  0.10410  Biso   1.000  F
  F110     1.0000 0.27980  0.34350  0.10410  Biso   1.000  F
  F111     1.0000 0.22020  0.84350  0.39590  Biso   1.000  F
  F112     1.0000 0.72020  0.34350  0.39590  Biso   1.000  F
  F113     1.0000 0.29520  0.24900  0.96660  Biso   1.000  F
  F114     1.0000 0.79520  0.74900  0.96660  Biso   1.000  F
  F115     1.0000 0.70480  0.24900  0.53340  Biso   1.000  F
  F116     1.0000 0.20480  0.74900  0.53340  Biso   1.000  F
  F117     1.0000 0.70480  0.75100  0.03340  Biso   1.000  F
  F118     1.0000 0.20480  0.25100  0.03340  Biso   1.000  F
  F119     1.0000 0.29520  0.75100  0.46660  Biso   1.000  F
  F120     1.0000 0.79520  0.25100  0.46660  Biso   1.000  F
  F121     1.0000 0.32000  0.15370  0.93860  Biso   1.000  F
  F122     1.0000 0.82000  0.65370  0.93860  Biso   1.000  F
  F123     1.0000 0.68000  0.15370  0.56140  Biso   1.000  F
  F124     1.0000 0.18000  0.65370  0.56140  Biso   1.000  F
  F125     1.0000 0.68000  0.84630  0.06140  Biso   1.000  F
  F126     1.0000 0.18000  0.34630  0.06140  Biso   1.000  F
  F127     1.0000 0.32000  0.84630  0.43860  Biso   1.000  F
  F128     1.0000 0.82000  0.34630  0.43860  Biso   1.000  F
  F129     1.0000 0.24240  0.12900  0.88530  Biso   1.000  F
  F130     1.0000 0.74240  0.62900  0.88530  Biso   1.000  F
  F131     1.0000 0.75760  0.12900  0.61470  Biso   1.000  F
  F132     1.0000 0.25760  0.62900  0.61470  Biso   1.000  F
  F133     1.0000 0.75760  0.87100  0.11470  Biso   1.000  F
  F134     1.0000 0.25760  0.37100  0.11470  Biso   1.000  F
  F135     1.0000 0.24240  0.87100  0.38530  Biso   1.000  F
  F136     1.0000 0.74240  0.37100  0.38530  Biso   1.000  F
  F137     1.0000 0.27460  0.26060  0.95940  Biso   1.000  F
  F138     1.0000 0.77460  0.76060  0.95940  Biso   1.000  F
  F139     1.0000 0.72540  0.26060  0.54060  Biso   1.000  F
  F140     1.0000 0.22540  0.76060  0.54060  Biso   1.000  F
  F141     1.0000 0.72540  0.73940  0.04060  Biso   1.000  F
  F142     1.0000 0.22540  0.23940  0.04060  Biso   1.000  F
  F143     1.0000 0.27460  0.73940  0.45940  Biso   1.000  F
  F144     1.0000 0.77460  0.23940  0.45940  Biso   1.000  F
  C49      1.0000 0.28300  0.01730  0.98290  Biso   1.000  C
  C50      1.0000 0.78300  0.51730  0.98290  Biso   1.000  C
  C51      1.0000 0.71700  0.01730  0.51710  Biso   1.000  C
  C52      1.0000 0.21700  0.51730  0.51710  Biso   1.000  C
  C53      1.0000 0.71700  0.98270  0.01710  Biso   1.000  C
  C54      1.0000 0.21700  0.48270  0.01710  Biso   1.000  C
  C55      1.0000 0.28300  0.98270  0.48290  Biso   1.000  C
  C56      1.0000 0.78300  0.48270  0.48290  Biso   1.000  C
  C57      1.0000 0.31860  0.03850  0.04790  Biso   1.000  C
  C58      1.0000 0.81860  0.53850  0.04790  Biso   1.000  C
  C59      1.0000 0.68140  0.03850  0.45210  Biso   1.000  C
  C60      1.0000 0.18140  0.53850  0.45210  Biso   1.000  C
  C61      1.0000 0.68140  0.96150  0.95210  Biso   1.000  C
  C62      1.0000 0.18140  0.46150  0.95210  Biso   1.000  C
  C63      1.0000 0.31860  0.96150  0.54790  Biso   1.000  C
  C64      1.0000 0.81860  0.46150  0.54790  Biso   1.000  C
  H9       1.0000 0.33440  0.11800  0.06100  Biso   1.000  H
  H10      1.0000 0.83440  0.61800  0.06100  Biso   1.000  H
  H11      1.0000 0.66560  0.11800  0.43900  Biso   1.000  H
  H12      1.0000 0.16560  0.61800  0.43900  Biso   1.000  H
  H13      1.0000 0.66560  0.88200  0.93900  Biso   1.000  H
  H14      1.0000 0.16560  0.38200  0.93900  Biso   1.000  H
  H15      1.0000 0.33440  0.88200  0.56100  Biso   1.000  H
  H16      1.0000 0.83440  0.38200  0.56100  Biso   1.000  H
  C65      1.0000 0.32802  0.94220  0.09310  Biso   1.000  C
  C66      1.0000 0.82802  0.44220  0.09310  Biso   1.000  C
  C67      1.0000 0.67198  0.94220  0.40690  Biso   1.000  C
  C68      1.0000 0.17198  0.44220  0.40690  Biso   1.000  C
  C69      1.0000 0.67198  0.05780  0.90690  Biso   1.000  C
  C70      1.0000 0.17198  0.55780  0.90690  Biso   1.000  C
  C71      1.0000 0.32802  0.05780  0.59310  Biso   1.000  C
  C72      1.0000 0.82802  0.55780  0.59310  Biso   1.000  C
  C73      1.0000 0.36750  0.98120  0.16290  Biso   1.000  C
  C74      1.0000 0.86750  0.48120  0.16290  Biso   1.000  C
  C75      1.0000 0.63250  0.98120  0.33710  Biso   1.000  C
  C76      1.0000 0.13250  0.48120  0.33710  Biso   1.000  C
  C77      1.0000 0.63250  0.01880  0.83710  Biso   1.000  C
  C78      1.0000 0.13250  0.51880  0.83710  Biso   1.000  C
  C79      1.0000 0.36750  0.01880  0.66290  Biso   1.000  C
  C80      1.0000 0.86750  0.51880  0.66290  Biso   1.000  C
  F145     1.0000 0.40190  0.07300  0.17420  Biso   1.000  F
  F146     1.0000 0.90190  0.57300  0.17420  Biso   1.000  F
  F147     1.0000 0.59810  0.07300  0.32580  Biso   1.000  F
  F148     1.0000 0.09810  0.57300  0.32580  Biso   1.000  F
  F149     1.0000 0.59810  0.92700  0.82580  Biso   1.000  F
  F150     1.0000 0.09810  0.42700  0.82580  Biso   1.000  F
  F151     1.0000 0.40190  0.92700  0.67420  Biso   1.000  F
  F152     1.0000 0.90190  0.42700  0.67420  Biso   1.000  F
  F153     1.0000 0.34040  0.02200  0.18670  Biso   1.000  F
  F154     1.0000 0.84040  0.52200  0.18670  Biso   1.000  F
  F155     1.0000 0.65960  0.02200  0.31330  Biso   1.000  F
  F156     1.0000 0.15960  0.52200  0.31330  Biso   1.000  F
  F157     1.0000 0.65960  0.97800  0.81330  Biso   1.000  F
  F158     1.0000 0.15960  0.47800  0.81330  Biso   1.000  F
  F159     1.0000 0.34040  0.97800  0.68670  Biso   1.000  F
  F160     1.0000 0.84040  0.47800  0.68670  Biso   1.000  F
  F161     1.0000 0.39400  0.88000  0.19770  Biso   1.000  F
  F162     1.0000 0.89400  0.38000  0.19770  Biso   1.000  F
  F163     1.0000 0.60600  0.88000  0.30230  Biso   1.000  F
  F164     1.0000 0.10600  0.38000  0.30230  Biso   1.000  F
  F165     1.0000 0.60600  0.12000  0.80230  Biso   1.000  F
  F166     1.0000 0.10600  0.62000  0.80230  Biso   1.000  F
  F167     1.0000 0.39400  0.12000  0.69770  Biso   1.000  F
  F168     1.0000 0.89400  0.62000  0.69770  Biso   1.000  F
  F169     1.0000 0.41190  0.91900  0.18220  Biso   1.000  F
  F170     1.0000 0.91190  0.41900  0.18220  Biso   1.000  F
  F171     1.0000 0.58810  0.91900  0.31780  Biso   1.000  F
  F172     1.0000 0.08810  0.41900  0.31780  Biso   1.000  F
  F173     1.0000 0.58810  0.08100  0.81780  Biso   1.000  F
  F174     1.0000 0.08810  0.58100  0.81780  Biso   1.000  F
  F175     1.0000 0.41190  0.08100  0.68220  Biso   1.000  F
  F176     1.0000 0.91190  0.58100  0.68220  Biso   1.000  F
  F177     1.0000 0.37630  0.11530  0.17150  Biso   1.000  F
  F178     1.0000 0.87630  0.61530  0.17150  Biso   1.000  F
  F179     1.0000 0.62370  0.11530  0.32850  Biso   1.000  F
  F180     1.0000 0.12370  0.61530  0.32850  Biso   1.000  F
  F181     1.0000 0.62370  0.88470  0.82850  Biso   1.000  F
  F182     1.0000 0.12370  0.38470  0.82850  Biso   1.000  F
  F183     1.0000 0.37630  0.88470  0.67150  Biso   1.000  F
  F184     1.0000 0.87630  0.38470  0.67150  Biso   1.000  F
  F185     1.0000 0.35720  0.94200  0.20070  Biso   1.000  F
  F186     1.0000 0.85720  0.44200  0.20070  Biso   1.000  F
  F187     1.0000 0.64280  0.94200  0.29930  Biso   1.000  F
  F188     1.0000 0.14280  0.44200  0.29930  Biso   1.000  F
  F189     1.0000 0.64280  0.05800  0.79930  Biso   1.000  F
  F190     1.0000 0.14280  0.55800  0.79930  Biso   1.000  F
  F191     1.0000 0.35720  0.05800  0.70070  Biso   1.000  F
  F192     1.0000 0.85720  0.55800  0.70070  Biso   1.000  F
  O25      1.0000 0.30782  0.82460  0.08509  Biso   1.000  O
  O26      1.0000 0.80782  0.32460  0.08509  Biso   1.000  O
  O27      1.0000 0.69218  0.82460  0.41491  Biso   1.000  O
  O28      1.0000 0.19218  0.32460  0.41491  Biso   1.000  O
  O29      1.0000 0.69218  0.17540  0.91491  Biso   1.000  O
  O30      1.0000 0.19218  0.67540  0.91491  Biso   1.000  O
  O31      1.0000 0.30782  0.17540  0.58509  Biso   1.000  O
  O32      1.0000 0.80782  0.67540  0.58509  Biso   1.000  O
  O33      1.0000 0.07169  0.13560  0.05524  Biso   1.000  O
  O34      1.0000 0.57169  0.63560  0.05524  Biso   1.000  O
  O35      1.0000 0.92831  0.13560  0.44476  Biso   1.000  O
  O36      1.0000 0.42831  0.63560  0.44476  Biso   1.000  O
  O37      1.0000 0.92831  0.86440  0.94476  Biso   1.000  O
  O38      1.0000 0.42831  0.36440  0.94476  Biso   1.000  O
  O39      1.0000 0.07169  0.86440  0.55524  Biso   1.000  O
  O40      1.0000 0.57169  0.36440  0.55524  Biso   1.000  O
  N1       1.0000 0.11489  0.10500  0.10949  Biso   1.000  N
  N2       1.0000 0.61489  0.60500  0.10949  Biso   1.000  N
  N3       1.0000 0.88511  0.10500  0.39051  Biso   1.000  N
  N4       1.0000 0.38511  0.60500  0.39051  Biso   1.000  N
  N5       1.0000 0.88511  0.89500  0.89051  Biso   1.000  N
  N6       1.0000 0.38511  0.39500  0.89051  Biso   1.000  N
  N7       1.0000 0.11489  0.89500  0.60949  Biso   1.000  N
  N8       1.0000 0.61489  0.39500  0.60949  Biso   1.000  N
  C81      1.0000 0.12720  0.16790  0.17110  Biso   1.000  C
  C82      1.0000 0.62720  0.66790  0.17110  Biso   1.000  C
  C83      1.0000 0.87280  0.16790  0.32890  Biso   1.000  C
  C84      1.0000 0.37280  0.66790  0.32890  Biso   1.000  C
  C85      1.0000 0.87280  0.83210  0.82890  Biso   1.000  C
  C86      1.0000 0.37280  0.33210  0.82890  Biso   1.000  C
  C87      1.0000 0.12720  0.83210  0.67110  Biso   1.000  C
  C88      1.0000 0.62720  0.33210  0.67110  Biso   1.000  C
  C89      1.0000 0.07850  0.16610  0.17290  Biso   1.000  C
  C90      1.0000 0.57850  0.66610  0.17290  Biso   1.000  C
  C91      1.0000 0.92150  0.16610  0.32710  Biso   1.000  C
  C92      1.0000 0.42150  0.66610  0.32710  Biso   1.000  C
  C93      1.0000 0.92150  0.83390  0.82710  Biso   1.000  C
  C94      1.0000 0.42150  0.33390  0.82710  Biso   1.000  C
  C95      1.0000 0.07850  0.83390  0.67290  Biso   1.000  C
  C96      1.0000 0.57850  0.33390  0.67290  Biso   1.000  C
  H17      1.0000 0.06610  0.08600  0.17100  Biso   1.000  H
  H18      1.0000 0.56610  0.58600  0.17100  Biso   1.000  H
  H19      1.0000 0.93390  0.08600  0.32900  Biso   1.000  H
  H20      1.0000 0.43390  0.58600  0.32900  Biso   1.000  H
  H21      1.0000 0.93390  0.91400  0.82900  Biso   1.000  H
  H22      1.0000 0.43390  0.41400  0.82900  Biso   1.000  H
  H23      1.0000 0.06610  0.91400  0.67100  Biso   1.000  H
  H24      1.0000 0.56610  0.41400  0.67100  Biso   1.000  H
  H25      1.0000 0.95100  0.83000  0.16000  Biso   1.000  H
  H26      1.0000 0.45100  0.33000  0.16000  Biso   1.000  H
  H27      1.0000 0.04900  0.83000  0.34000  Biso   1.000  H
  H28      1.0000 0.54900  0.33000  0.34000  Biso   1.000  H
  H29      1.0000 0.04900  0.17000  0.84000  Biso   1.000  H
  H30      1.0000 0.54900  0.67000  0.84000  Biso   1.000  H
  H31      1.0000 0.95100  0.17000  0.66000  Biso   1.000  H
  H32      1.0000 0.45100  0.67000  0.66000  Biso   1.000  H
  H33      1.0000 0.08940  0.18500  0.21200  Biso   1.000  H
  H34      1.0000 0.58940  0.68500  0.21200  Biso   1.000  H
  H35      1.0000 0.91060  0.18500  0.28800  Biso   1.000  H
  H36      1.0000 0.41060  0.68500  0.28800  Biso   1.000  H
  H37      1.0000 0.91060  0.81500  0.78800  Biso   1.000  H
  H38      1.0000 0.41060  0.31500  0.78800  Biso   1.000  H
  H39      1.0000 0.08940  0.81500  0.71200  Biso   1.000  H
  H40      1.0000 0.58940  0.31500  0.71200  Biso   1.000  H
  C97      1.0000 0.14200  0.32030  0.16960  Biso   1.000  C
  C98      1.0000 0.64200  0.82030  0.16960  Biso   1.000  C
  C99      1.0000 0.85800  0.32030  0.33040  Biso   1.000  C
  C100     1.0000 0.35800  0.82030  0.33040  Biso   1.000  C
  C101     1.0000 0.85800  0.67970  0.83040  Biso   1.000  C
  C102     1.0000 0.35800  0.17970  0.83040  Biso   1.000  C
  C103     1.0000 0.14200  0.67970  0.66960  Biso   1.000  C
  C104     1.0000 0.64200  0.17970  0.66960  Biso   1.000  C
  H41      1.0000 0.17020  0.32800  0.16850  Biso   1.000  H
  H42      1.0000 0.67020  0.82800  0.16850  Biso   1.000  H
  H43      1.0000 0.82980  0.32800  0.33150  Biso   1.000  H
  H44      1.0000 0.32980  0.82800  0.33150  Biso   1.000  H
  H45      1.0000 0.82980  0.67200  0.83150  Biso   1.000  H
  H46      1.0000 0.32980  0.17200  0.83150  Biso   1.000  H
  H47      1.0000 0.17020  0.67200  0.66850  Biso   1.000  H
  H48      1.0000 0.67020  0.17200  0.66850  Biso   1.000  H
  H49      1.0000 0.14380  0.35800  0.19800  Biso   1.000  H
  H50      1.0000 0.64380  0.85800  0.19800  Biso   1.000  H
  H51      1.0000 0.85620  0.35800  0.30200  Biso   1.000  H
  H52      1.0000 0.35620  0.85800  0.30200  Biso   1.000  H
  H53      1.0000 0.85620  0.64200  0.80200  Biso   1.000  H
  H54      1.0000 0.35620  0.14200  0.80200  Biso   1.000  H
  H55      1.0000 0.14380  0.64200  0.69800  Biso   1.000  H
  H56      1.0000 0.64380  0.14200  0.69800  Biso   1.000  H
  H57      1.0000 0.87700  0.90200  0.11100  Biso   1.000  H
  H58      1.0000 0.37700  0.40200  0.11100  Biso   1.000  H
  H59      1.0000 0.12300  0.90200  0.38900  Biso   1.000  H
  H60      1.0000 0.62300  0.40200  0.38900  Biso   1.000  H
  H61      1.0000 0.12300  0.09800  0.88900  Biso   1.000  H
  H62      1.0000 0.62300  0.59800  0.88900  Biso   1.000  H
  H63      1.0000 0.87700  0.09800  0.61100  Biso   1.000  H
  H64      1.0000 0.37700  0.59800  0.61100  Biso   1.000  H
  C105     1.0000 0.17420  0.07430  0.21940  Biso   1.000  C
  C106     1.0000 0.67420  0.57430  0.21940  Biso   1.000  C
  C107     1.0000 0.82580  0.07430  0.28060  Biso   1.000  C
  C108     1.0000 0.32580  0.57430  0.28060  Biso   1.000  C
  C109     1.0000 0.82580  0.92570  0.78060  Biso   1.000  C
  C110     1.0000 0.32580  0.42570  0.78060  Biso   1.000  C
  C111     1.0000 0.17420  0.92570  0.71940  Biso   1.000  C
  C112     1.0000 0.67420  0.42570  0.71940  Biso   1.000  C
  C113     1.0000 0.21560  0.14650  0.28150  Biso   1.000  C
  C114     1.0000 0.71560  0.64650  0.28150  Biso   1.000  C
  C115     1.0000 0.78440  0.14650  0.21850  Biso   1.000  C
  C116     1.0000 0.28440  0.64650  0.21850  Biso   1.000  C
  C117     1.0000 0.78440  0.85350  0.71850  Biso   1.000  C
  C118     1.0000 0.28440  0.35350  0.71850  Biso   1.000  C
  C119     1.0000 0.21560  0.85350  0.78150  Biso   1.000  C
  C120     1.0000 0.71560  0.35350  0.78150  Biso   1.000  C
  H65      1.0000 0.23030  0.21500  0.27100  Biso   1.000  H
  H66      1.0000 0.73030  0.71500  0.27100  Biso   1.000  H
  H67      1.0000 0.76970  0.21500  0.22900  Biso   1.000  H
  H68      1.0000 0.26970  0.71500  0.22900  Biso   1.000  H
  H69      1.0000 0.76970  0.78500  0.72900  Biso   1.000  H
  H70      1.0000 0.26970  0.28500  0.72900  Biso   1.000  H
  H71      1.0000 0.23030  0.78500  0.77100  Biso   1.000  H
  H72      1.0000 0.73030  0.28500  0.77100  Biso   1.000  H
  H73      1.0000 0.24060  0.09700  0.30000  Biso   1.000  H
  H74      1.0000 0.74060  0.59700  0.30000  Biso   1.000  H
  H75      1.0000 0.75940  0.09700  0.20000  Biso   1.000  H
  H76      1.0000 0.25940  0.59700  0.20000  Biso   1.000  H
  H77      1.0000 0.75940  0.90300  0.70000  Biso   1.000  H
  H78      1.0000 0.25940  0.40300  0.70000  Biso   1.000  H
  H79      1.0000 0.24060  0.90300  0.80000  Biso   1.000  H
  H80      1.0000 0.74060  0.40300  0.80000  Biso   1.000  H
  H81      1.0000 0.07300  0.45000  0.31400  Biso   1.000  H
  H82      1.0000 0.57300  0.95000  0.31400  Biso   1.000  H
  H83      1.0000 0.92700  0.45000  0.18600  Biso   1.000  H
  H84      1.0000 0.42700  0.95000  0.18600  Biso   1.000  H
  H85      1.0000 0.92700  0.55000  0.68600  Biso   1.000  H
  H86      1.0000 0.42700  0.05000  0.68600  Biso   1.000  H
  H87      1.0000 0.07300  0.55000  0.81400  Biso   1.000  H
  H88      1.0000 0.57300  0.05000  0.81400  Biso   1.000  H
  C121     1.0000 0.15680  0.94020  0.23640  Biso   1.000  C
  C122     1.0000 0.65680  0.44020  0.23640  Biso   1.000  C
  C123     1.0000 0.84320  0.94020  0.26360  Biso   1.000  C
  C124     1.0000 0.34320  0.44020  0.26360  Biso   1.000  C
  C125     1.0000 0.84320  0.05980  0.76360  Biso   1.000  C
  C126     1.0000 0.34320  0.55980  0.76360  Biso   1.000  C
  C127     1.0000 0.15680  0.05980  0.73640  Biso   1.000  C
  C128     1.0000 0.65680  0.55980  0.73640  Biso   1.000  C
  H89      1.0000 0.13010  0.90000  0.20200  Biso   1.000  H
  H90      1.0000 0.63010  0.40000  0.20200  Biso   1.000  H
  H91      1.0000 0.86990  0.90000  0.29800  Biso   1.000  H
  H92      1.0000 0.36990  0.40000  0.29800  Biso   1.000  H
  H93      1.0000 0.86990  0.10000  0.79800  Biso   1.000  H
  H94      1.0000 0.36990  0.60000  0.79800  Biso   1.000  H
  H95      1.0000 0.13010  0.10000  0.70200  Biso   1.000  H
  H96      1.0000 0.63010  0.60000  0.70200  Biso   1.000  H
  H97      1.0000 0.98400  0.80000  0.32400  Biso   1.000  H
  H98      1.0000 0.48400  0.30000  0.32400  Biso   1.000  H
  H99      1.0000 0.01600  0.80000  0.17600  Biso   1.000  H
  H100     1.0000 0.51600  0.30000  0.17600  Biso   1.000  H
  H101     1.0000 0.01600  0.20000  0.67600  Biso   1.000  H
  H102     1.0000 0.51600  0.70000  0.67600  Biso   1.000  H
  H103     1.0000 0.98400  0.20000  0.82400  Biso   1.000  H
  H104     1.0000 0.48400  0.70000  0.82400  Biso   1.000  H
  H105     1.0000 0.18220  0.89400  0.25400  Biso   1.000  H
  H106     1.0000 0.68220  0.39400  0.25400  Biso   1.000  H
  H107     1.0000 0.81780  0.89400  0.24600  Biso   1.000  H
  H108     1.0000 0.31780  0.39400  0.24600  Biso   1.000  H
  H109     1.0000 0.81780  0.10600  0.74600  Biso   1.000  H
  H110     1.0000 0.31780  0.60600  0.74600  Biso   1.000  H
  H111     1.0000 0.18220  0.10600  0.75400  Biso   1.000  H
  H112     1.0000 0.68220  0.60600  0.75400  Biso   1.000  H
  N9       1.0000 0.19460  0.03190  0.17955  Biso   1.000  N
  N10      1.0000 0.69460  0.53190  0.17955  Biso   1.000  N
  N11      1.0000 0.80540  0.03190  0.32045  Biso   1.000  N
  N12      1.0000 0.30540  0.53190  0.32045  Biso   1.000  N
  N13      1.0000 0.80540  0.96810  0.82045  Biso   1.000  N
  N14      1.0000 0.30540  0.46810  0.82045  Biso   1.000  N
  N15      1.0000 0.19460  0.96810  0.67955  Biso   1.000  N
  N16      1.0000 0.69460  0.46810  0.67955  Biso   1.000  N
  O41      1.0000 0.24005  0.97910  0.20311  Biso   1.000  O
  O42      1.0000 0.74005  0.47910  0.20311  Biso   1.000  O
  O43      1.0000 0.75995  0.97910  0.29689  Biso   1.000  O
  O44      1.0000 0.25995  0.47910  0.29689  Biso   1.000  O
  O45      1.0000 0.75995  0.02090  0.79689  Biso   1.000  O
  O46      1.0000 0.25995  0.52090  0.79689  Biso   1.000  O
  O47      1.0000 0.24005  0.02090  0.70311  Biso   1.000  O
  O48      1.0000 0.74005  0.52090  0.70311  Biso   1.000  O
  C129     1.0000 0.15654  0.04090  0.11610  Biso   1.000  C
  C130     1.0000 0.65654  0.54090  0.11610  Biso   1.000  C
  C131     1.0000 0.84346  0.04090  0.38390  Biso   1.000  C
  C132     1.0000 0.34346  0.54090  0.38390  Biso   1.000  C
  C133     1.0000 0.84346  0.95910  0.88390  Biso   1.000  C
  C134     1.0000 0.34346  0.45910  0.88390  Biso   1.000  C
  C135     1.0000 0.15654  0.95910  0.61610  Biso   1.000  C
  C136     1.0000 0.65654  0.45910  0.61610  Biso   1.000  C
  C137     1.0000 0.16088  0.99140  0.06570  Biso   1.000  C
  C138     1.0000 0.66088  0.49140  0.06570  Biso   1.000  C
  C139     1.0000 0.83912  0.99140  0.43430  Biso   1.000  C
  C140     1.0000 0.33912  0.49140  0.43430  Biso   1.000  C
  C141     1.0000 0.83912  0.00860  0.93430  Biso   1.000  C
  C142     1.0000 0.33912  0.50860  0.93430  Biso   1.000  C
  C143     1.0000 0.16088  0.00860  0.56570  Biso   1.000  C
  C144     1.0000 0.66088  0.50860  0.56570  Biso   1.000  C
  C145     1.0000 0.20060  0.90970  0.06940  Biso   1.000  C
  C146     1.0000 0.70060  0.40970  0.06940  Biso   1.000  C
  C147     1.0000 0.79940  0.90970  0.43060  Biso   1.000  C
  C148     1.0000 0.29940  0.40970  0.43060  Biso   1.000  C
  C149     1.0000 0.79940  0.09030  0.93060  Biso   1.000  C
  C150     1.0000 0.29940  0.59030  0.93060  Biso   1.000  C
  C151     1.0000 0.20060  0.09030  0.56940  Biso   1.000  C
  C152     1.0000 0.70060  0.59030  0.56940  Biso   1.000  C
  H113     1.0000 0.23060  0.87700  0.10600  Biso   1.000  H
  H114     1.0000 0.73060  0.37700  0.10600  Biso   1.000  H
  H115     1.0000 0.76940  0.87700  0.39400  Biso   1.000  H
  H116     1.0000 0.26940  0.37700  0.39400  Biso   1.000  H
  H117     1.0000 0.76940  0.12300  0.89400  Biso   1.000  H
  H118     1.0000 0.26940  0.62300  0.89400  Biso   1.000  H
  H119     1.0000 0.23060  0.12300  0.60600  Biso   1.000  H
  H120     1.0000 0.73060  0.62300  0.60600  Biso   1.000  H
  N17      1.0000 0.19240  0.88650  0.01290  Biso   1.000  N
  N18      1.0000 0.69240  0.38650  0.01290  Biso   1.000  N
  N19      1.0000 0.80760  0.88650  0.48710  Biso   1.000  N
  N20      1.0000 0.30760  0.38650  0.48710  Biso   1.000  N
  N21      1.0000 0.80760  0.11350  0.98710  Biso   1.000  N
  N22      1.0000 0.30760  0.61350  0.98710  Biso   1.000  N
  N23      1.0000 0.19240  0.11350  0.51290  Biso   1.000  N
  N24      1.0000 0.69240  0.61350  0.51290  Biso   1.000  N
  N25      1.0000 0.14652  0.95520  0.97191  Biso   1.000  N
  N26      1.0000 0.64652  0.45520  0.97191  Biso   1.000  N
  N27      1.0000 0.85348  0.95520  0.52809  Biso   1.000  N
  N28      1.0000 0.35348  0.45520  0.52809  Biso   1.000  N
  N29      1.0000 0.85348  0.04480  0.02809  Biso   1.000  N
  N30      1.0000 0.35348  0.54480  0.02809  Biso   1.000  N
  N31      1.0000 0.14652  0.04480  0.47191  Biso   1.000  N
  N32      1.0000 0.64652  0.54480  0.47191  Biso   1.000  N
  C153     1.0000 0.12390  0.95490  0.90350  Biso   1.000  C
  C154     1.0000 0.62390  0.45490  0.90350  Biso   1.000  C
  C155     1.0000 0.87610  0.95490  0.59650  Biso   1.000  C
  C156     1.0000 0.37610  0.45490  0.59650  Biso   1.000  C
  C157     1.0000 0.87610  0.04510  0.09650  Biso   1.000  C
  C158     1.0000 0.37610  0.54510  0.09650  Biso   1.000  C
  C159     1.0000 0.12390  0.04510  0.40350  Biso   1.000  C
  C160     1.0000 0.62390  0.54510  0.40350  Biso   1.000  C
  H121     1.0000 0.09000  0.04400  0.86500  Biso   1.000  H
  H122     1.0000 0.59000  0.54400  0.86500  Biso   1.000  H
  H123     1.0000 0.91000  0.04400  0.63500  Biso   1.000  H
  H124     1.0000 0.41000  0.54400  0.63500  Biso   1.000  H
  H125     1.0000 0.91000  0.95600  0.13500  Biso   1.000  H
  H126     1.0000 0.41000  0.45600  0.13500  Biso   1.000  H
  H127     1.0000 0.09000  0.95600  0.36500  Biso   1.000  H
  H128     1.0000 0.59000  0.45600  0.36500  Biso   1.000  H
  H129     1.0000 0.14710  0.92200  0.89800  Biso   1.000  H
  H130     1.0000 0.64710  0.42200  0.89800  Biso   1.000  H
  H131     1.0000 0.85290  0.92200  0.60200  Biso   1.000  H
  H132     1.0000 0.35290  0.42200  0.60200  Biso   1.000  H
  H133     1.0000 0.85290  0.07800  0.10200  Biso   1.000  H
  H134     1.0000 0.35290  0.57800  0.10200  Biso   1.000  H
  H135     1.0000 0.14710  0.07800  0.39800  Biso   1.000  H
  H136     1.0000 0.64710  0.57800  0.39800  Biso   1.000  H
  C161     1.0000 0.07220  0.90170  0.86450  Biso   1.000  C
  C162     1.0000 0.57220  0.40170  0.86450  Biso   1.000  C
  C163     1.0000 0.92780  0.90170  0.63550  Biso   1.000  C
  C164     1.0000 0.42780  0.40170  0.63550  Biso   1.000  C
  C165     1.0000 0.92780  0.09830  0.13550  Biso   1.000  C
  C166     1.0000 0.42780  0.59830  0.13550  Biso   1.000  C
  C167     1.0000 0.07220  0.09830  0.36450  Biso   1.000  C
  C168     1.0000 0.57220  0.59830  0.36450  Biso   1.000  C
  H137     1.0000 0.06110  0.90540  0.82050  Biso   1.000  H
  H138     1.0000 0.56110  0.40540  0.82050  Biso   1.000  H
  H139     1.0000 0.93890  0.90540  0.67950  Biso   1.000  H
  H140     1.0000 0.43890  0.40540  0.67950  Biso   1.000  H
  H141     1.0000 0.93890  0.09460  0.17950  Biso   1.000  H
  H142     1.0000 0.43890  0.59460  0.17950  Biso   1.000  H
  H143     1.0000 0.06110  0.09460  0.32050  Biso   1.000  H
  H144     1.0000 0.56110  0.59460  0.32050  Biso   1.000  H
  H145     1.0000 0.04870  0.95710  0.87010  Biso   1.000  H
  H146     1.0000 0.54870  0.45710  0.87010  Biso   1.000  H
  H147     1.0000 0.95130  0.95710  0.62990  Biso   1.000  H
  H148     1.0000 0.45130  0.45710  0.62990  Biso   1.000  H
  H149     1.0000 0.95130  0.04290  0.12990  Biso   1.000  H
  H150     1.0000 0.45130  0.54290  0.12990  Biso   1.000  H
  H151     1.0000 0.04870  0.04290  0.37010  Biso   1.000  H
  H152     1.0000 0.54870  0.54290  0.37010  Biso   1.000  H
  H153     1.0000 0.07160  0.80650  0.87620  Biso   1.000  H
  H154     1.0000 0.57160  0.30650  0.87620  Biso   1.000  H
  H155     1.0000 0.92840  0.80650  0.62380  Biso   1.000  H
  H156     1.0000 0.42840  0.30650  0.62380  Biso   1.000  H
  H157     1.0000 0.92840  0.19350  0.12380  Biso   1.000  H
  H158     1.0000 0.42840  0.69350  0.12380  Biso   1.000  H
  H159     1.0000 0.07160  0.19350  0.37620  Biso   1.000  H
  H160     1.0000 0.57160  0.69350  0.37620  Biso   1.000  H
  C169     1.0000 0.12565  0.02030  0.00070  Biso   1.000  C
  C170     1.0000 0.62565  0.52030  0.00070  Biso   1.000  C
  C171     1.0000 0.87435  0.02030  0.49930  Biso   1.000  C
  C172     1.0000 0.37435  0.52030  0.49930  Biso   1.000  C
  C173     1.0000 0.87435  0.97970  0.99930  Biso   1.000  C
  C174     1.0000 0.37435  0.47970  0.99930  Biso   1.000  C
  C175     1.0000 0.12565  0.97970  0.50070  Biso   1.000  C
  C176     1.0000 0.62565  0.47970  0.50070  Biso   1.000  C
  H161     1.0000 0.12700  0.03700  0.87500  Biso   1.000  H
  H162     1.0000 0.62700  0.53700  0.87500  Biso   1.000  H
  H163     1.0000 0.87300  0.03700  0.62500  Biso   1.000  H
  H164     1.0000 0.37300  0.53700  0.62500  Biso   1.000  H
  H165     1.0000 0.87300  0.96300  0.12500  Biso   1.000  H
  H166     1.0000 0.37300  0.46300  0.12500  Biso   1.000  H
  H167     1.0000 0.12700  0.96300  0.37500  Biso   1.000  H
  H168     1.0000 0.62700  0.46300  0.37500  Biso   1.000  H
