data_image0
_cell_length_a       30.343
_cell_length_b       9.5455
_cell_length_c       25.037
_cell_angle_alpha    90
_cell_angle_beta     123.585
_cell_angle_gamma    90

_symmetry_space_group_name_H-M    "P 1"
_symmetry_int_tables_number       1

loop_
  _symmetry_equiv_pos_as_xyz
  'x, y, z'

loop_
  _atom_site_label
  _atom_site_occupancy
  _atom_site_fract_x
  _atom_site_fract_y
  _atom_site_fract_z
  _atom_site_thermal_displace_type
  _atom_site_B_iso_or_equiv
  _atom_site_type_symbol
  Cu1      1.0000 0.00000  0.00000  0.00000  Biso   1.000  Cu
  Cu2      1.0000 0.50000  0.50000  0.00000  Biso   1.000  Cu
  Cu3      1.0000 0.00000  0.00000  0.50000  Biso   1.000  Cu
  Cu4      1.0000 0.50000  0.50000  0.50000  Biso   1.000  Cu
  O1       1.0000 0.99489  0.09710  0.92470  Biso   1.000  O
  O2       1.0000 0.49489  0.59710  0.92470  Biso   1.000  O
  O3       1.0000 0.00511  0.09710  0.57530  Biso   1.000  O
  O4       1.0000 0.50511  0.59710  0.57530  Biso   1.000  O
  O5       1.0000 0.00511  0.90290  0.07530  Biso   1.000  O
  O6       1.0000 0.50511  0.40290  0.07530  Biso   1.000  O
  O7       1.0000 0.99489  0.90290  0.42470  Biso   1.000  O
  O8       1.0000 0.49489  0.40290  0.42470  Biso   1.000  O
  C1       1.0000 0.98760  0.27600  0.85770  Biso   1.000  C
  C2       1.0000 0.48760  0.77600  0.85770  Biso   1.000  C
  C3       1.0000 0.01240  0.27600  0.64230  Biso   1.000  C
  C4       1.0000 0.51240  0.77600  0.64230  Biso   1.000  C
  C5       1.0000 0.01240  0.72400  0.14230  Biso   1.000  C
  C6       1.0000 0.51240  0.22400  0.14230  Biso   1.000  C
  C7       1.0000 0.98760  0.72400  0.35770  Biso   1.000  C
  C8       1.0000 0.48760  0.22400  0.35770  Biso   1.000  C
  F1       1.0000 0.95680  0.40800  0.82740  Biso   1.000  F
  F2       1.0000 0.45680  0.90800  0.82740  Biso   1.000  F
  F3       1.0000 0.04320  0.40800  0.67260  Biso   1.000  F
  F4       1.0000 0.54320  0.90800  0.67260  Biso   1.000  F
  F5       1.0000 0.04320  0.59200  0.17260  Biso   1.000  F
  F6       1.0000 0.54320  0.09200  0.17260  Biso   1.000  F
  F7       1.0000 0.95680  0.59200  0.32740  Biso   1.000  F
  F8       1.0000 0.45680  0.09200  0.32740  Biso   1.000  F
  F9       1.0000 0.96300  0.20000  0.80800  Biso   1.000  F
  F10      1.0000 0.46300  0.70000  0.80800  Biso   1.000  F
  F11      1.0000 0.03700  0.20000  0.69200  Biso   1.000  F
  F12      1.0000 0.53700  0.70000  0.69200  Biso   1.000  F
  F13      1.0000 0.03700  0.80000  0.19200  Biso   1.000  F
  F14      1.0000 0.53700  0.30000  0.19200  Biso   1.000  F
  F15      1.0000 0.96300  0.80000  0.30800  Biso   1.000  F
  F16      1.0000 0.46300  0.30000  0.30800  Biso   1.000  F
  F17      1.0000 0.03500  0.31400  0.88200  Biso   1.000  F
  F18      1.0000 0.53500  0.81400  0.88200  Biso   1.000  F
  F19      1.0000 0.96500  0.31400  0.61800  Biso   1.000  F
  F20      1.0000 0.46500  0.81400  0.61800  Biso   1.000  F
  F21      1.0000 0.96500  0.68600  0.11800  Biso   1.000  F
  F22      1.0000 0.46500  0.18600  0.11800  Biso   1.000  F
  F23      1.0000 0.03500  0.68600  0.38200  Biso   1.000  F
  F24      1.0000 0.53500  0.18600  0.38200  Biso   1.000  F
  F25      1.0000 0.97350  0.18500  0.81030  Biso   1.000  F
  F26      1.0000 0.47350  0.68500  0.81030  Biso   1.000  F
  F27      1.0000 0.02650  0.18500  0.68970  Biso   1.000  F
  F28      1.0000 0.52650  0.68500  0.68970  Biso   1.000  F
  F29      1.0000 0.02650  0.81500  0.18970  Biso   1.000  F
  F30      1.0000 0.52650  0.31500  0.18970  Biso   1.000  F
  F31      1.0000 0.97350  0.81500  0.31030  Biso   1.000  F
  F32      1.0000 0.47350  0.31500  0.31030  Biso   1.000  F
  F33      1.0000 0.04000  0.27300  0.88000  Biso   1.000  F
  F34      1.0000 0.54000  0.77300  0.88000  Biso   1.000  F
  F35      1.0000 0.96000  0.27300  0.62000  Biso   1.000  F
  F36      1.0000 0.46000  0.77300  0.62000  Biso   1.000  F
  F37      1.0000 0.96000  0.72700  0.12000  Biso   1.000  F
  F38      1.0000 0.46000  0.22700  0.12000  Biso   1.000  F
  F39      1.0000 0.04000  0.72700  0.38000  Biso   1.000  F
  F40      1.0000 0.54000  0.22700  0.38000  Biso   1.000  F
  F41      1.0000 0.97690  0.38900  0.84170  Biso   1.000  F
  F42      1.0000 0.47690  0.88900  0.84170  Biso   1.000  F
  F43      1.0000 0.02310  0.38900  0.65830  Biso   1.000  F
  F44      1.0000 0.52310  0.88900  0.65830  Biso   1.000  F
  F45      1.0000 0.02310  0.61100  0.15830  Biso   1.000  F
  F46      1.0000 0.52310  0.11100  0.15830  Biso   1.000  F
  F47      1.0000 0.97690  0.61100  0.34170  Biso   1.000  F
  F48      1.0000 0.47690  0.11100  0.34170  Biso   1.000  F
  C9       1.0000 0.97910  0.22020  0.90770  Biso   1.000  C
  C10      1.0000 0.47910  0.72020  0.90770  Biso   1.000  C
  C11      1.0000 0.02090  0.22020  0.59230  Biso   1.000  C
  C12      1.0000 0.52090  0.72020  0.59230  Biso   1.000  C
  C13      1.0000 0.02090  0.77980  0.09230  Biso   1.000  C
  C14      1.0000 0.52090  0.27980  0.09230  Biso   1.000  C
  C15      1.0000 0.97910  0.77980  0.40770  Biso   1.000  C
  C16      1.0000 0.47910  0.27980  0.40770  Biso   1.000  C
  C17      1.0000 0.95670  0.30530  0.93030  Biso   1.000  C
  C18      1.0000 0.45670  0.80530  0.93030  Biso   1.000  C
  C19      1.0000 0.04330  0.30530  0.56970  Biso   1.000  C
  C20      1.0000 0.54330  0.80530  0.56970  Biso   1.000  C
  C21      1.0000 0.04330  0.69470  0.06970  Biso   1.000  C
  C22      1.0000 0.54330  0.19470  0.06970  Biso   1.000  C
  C23      1.0000 0.95670  0.69470  0.43030  Biso   1.000  C
  C24      1.0000 0.45670  0.19470  0.43030  Biso   1.000  C
  H1       1.0000 0.94500  0.38500  0.90900  Biso   1.000  H
  H2       1.0000 0.44500  0.88500  0.90900  Biso   1.000  H
  H3       1.0000 0.05500  0.38500  0.59100  Biso   1.000  H
  H4       1.0000 0.55500  0.88500  0.59100  Biso   1.000  H
  H5       1.0000 0.05500  0.61500  0.09100  Biso   1.000  H
  H6       1.0000 0.55500  0.11500  0.09100  Biso   1.000  H
  H7       1.0000 0.94500  0.61500  0.40900  Biso   1.000  H
  H8       1.0000 0.44500  0.11500  0.40900  Biso   1.000  H
  C25      1.0000 0.94940  0.26760  0.97710  Biso   1.000  C
  C26      1.0000 0.44940  0.76760  0.97710  Biso   1.000  C
  C27      1.0000 0.05060  0.26760  0.52290  Biso   1.000  C
  C28      1.0000 0.55060  0.76760  0.52290  Biso   1.000  C
  C29      1.0000 0.05060  0.73240  0.02290  Biso   1.000  C
  C30      1.0000 0.55060  0.23240  0.02290  Biso   1.000  C
  C31      1.0000 0.94940  0.73240  0.47710  Biso   1.000  C
  C32      1.0000 0.44940  0.23240  0.47710  Biso   1.000  C
  C33      1.0000 0.92470  0.37450  0.99900  Biso   1.000  C
  C34      1.0000 0.42470  0.87450  0.99900  Biso   1.000  C
  C35      1.0000 0.07530  0.37450  0.50100  Biso   1.000  C
  C36      1.0000 0.57530  0.87450  0.50100  Biso   1.000  C
  C37      1.0000 0.07530  0.62550  0.00100  Biso   1.000  C
  C38      1.0000 0.57530  0.12550  0.00100  Biso   1.000  C
  C39      1.0000 0.92470  0.62550  0.49900  Biso   1.000  C
  C40      1.0000 0.42470  0.12550  0.49900  Biso   1.000  C
  F49      1.0000 0.88680  0.33400  0.99970  Biso   1.000  F
  F50      1.0000 0.38680  0.83400  0.99970  Biso   1.000  F
  F51      1.0000 0.11320  0.33400  0.50030  Biso   1.000  F
  F52      1.0000 0.61320  0.83400  0.50030  Biso   1.000  F
  F53      1.0000 0.11320  0.66600  0.00030  Biso   1.000  F
  F54      1.0000 0.61320  0.16600  0.00030  Biso   1.000  F
  F55      1.0000 0.88680  0.66600  0.49970  Biso   1.000  F
  F56      1.0000 0.38680  0.16600  0.49970  Biso   1.000  F
  F57      1.0000 0.92130  0.34000  0.04100  Biso   1.000  F
  F58      1.0000 0.42130  0.84000  0.04100  Biso   1.000  F
  F59      1.0000 0.07870  0.34000  0.45900  Biso   1.000  F
  F60      1.0000 0.57870  0.84000  0.45900  Biso   1.000  F
  F61      1.0000 0.07870  0.66000  0.95900  Biso   1.000  F
  F62      1.0000 0.57870  0.16000  0.95900  Biso   1.000  F
  F63      1.0000 0.92130  0.66000  0.54100  Biso   1.000  F
  F64      1.0000 0.42130  0.16000  0.54100  Biso   1.000  F
  F65      1.0000 0.92130  0.50400  0.98060  Biso   1.000  F
  F66      1.0000 0.42130  0.00400  0.98060  Biso   1.000  F
  F67      1.0000 0.07870  0.50400  0.51940  Biso   1.000  F
  F68      1.0000 0.57870  0.00400  0.51940  Biso   1.000  F
  F69      1.0000 0.07870  0.49600  0.01940  Biso   1.000  F
  F70      1.0000 0.57870  0.99600  0.01940  Biso   1.000  F
  F71      1.0000 0.92130  0.49600  0.48060  Biso   1.000  F
  F72      1.0000 0.42130  0.99600  0.48060  Biso   1.000  F
  F73      1.0000 0.86830  0.37430  0.94410  Biso   1.000  F
  F74      1.0000 0.36830  0.87430  0.94410  Biso   1.000  F
  F75      1.0000 0.13170  0.37430  0.55590  Biso   1.000  F
  F76      1.0000 0.63170  0.87430  0.55590  Biso   1.000  F
  F77      1.0000 0.13170  0.62570  0.05590  Biso   1.000  F
  F78      1.0000 0.63170  0.12570  0.05590  Biso   1.000  F
  F79      1.0000 0.86830  0.62570  0.44410  Biso   1.000  F
  F80      1.0000 0.36830  0.12570  0.44410  Biso   1.000  F
  F81      1.0000 0.93710  0.49500  0.99610  Biso   1.000  F
  F82      1.0000 0.43710  0.99500  0.99610  Biso   1.000  F
  F83      1.0000 0.06290  0.49500  0.50390  Biso   1.000  F
  F84      1.0000 0.56290  0.99500  0.50390  Biso   1.000  F
  F85      1.0000 0.06290  0.50500  0.00390  Biso   1.000  F
  F86      1.0000 0.56290  0.00500  0.00390  Biso   1.000  F
  F87      1.0000 0.93710  0.50500  0.49610  Biso   1.000  F
  F88      1.0000 0.43710  0.00500  0.49610  Biso   1.000  F
  F89      1.0000 0.96340  0.39600  0.06850  Biso   1.000  F
  F90      1.0000 0.46340  0.89600  0.06850  Biso   1.000  F
  F91      1.0000 0.03660  0.39600  0.43150  Biso   1.000  F
  F92      1.0000 0.53660  0.89600  0.43150  Biso   1.000  F
  F93      1.0000 0.03660  0.60400  0.93150  Biso   1.000  F
  F94      1.0000 0.53660  0.10400  0.93150  Biso   1.000  F
  F95      1.0000 0.96340  0.60400  0.56850  Biso   1.000  F
  F96      1.0000 0.46340  0.10400  0.56850  Biso   1.000  F
  O9       1.0000 0.96097  0.15490  0.00670  Biso   1.000  O
  O10      1.0000 0.46097  0.65490  0.00670  Biso   1.000  O
  O11      1.0000 0.03903  0.15490  0.49330  Biso   1.000  O
  O12      1.0000 0.53903  0.65490  0.49330  Biso   1.000  O
  O13      1.0000 0.03903  0.84510  0.99330  Biso   1.000  O
  O14      1.0000 0.53903  0.34510  0.99330  Biso   1.000  O
  O15      1.0000 0.96097  0.84510  0.50670  Biso   1.000  O
  O16      1.0000 0.46097  0.34510  0.50670  Biso   1.000  O
  Co1      1.0000 0.25000  0.75000  0.00000  Biso   1.000  Co
  Co2      1.0000 0.75000  0.25000  0.00000  Biso   1.000  Co
  Co3      1.0000 0.75000  0.75000  0.50000  Biso   1.000  Co
  Co4      1.0000 0.25000  0.25000  0.50000  Biso   1.000  Co
  O17      1.0000 0.25678  0.91280  0.95504  Biso   1.000  O
  O18      1.0000 0.75678  0.41280  0.95504  Biso   1.000  O
  O19      1.0000 0.74322  0.91280  0.54496  Biso   1.000  O
  O20      1.0000 0.24322  0.41280  0.54496  Biso   1.000  O
  O21      1.0000 0.74322  0.08720  0.04496  Biso   1.000  O
  O22      1.0000 0.24322  0.58720  0.04496  Biso   1.000  O
  O23      1.0000 0.25678  0.08720  0.45504  Biso   1.000  O
  O24      1.0000 0.75678  0.58720  0.45504  Biso   1.000  O
  C41      1.0000 0.27420  0.14020  0.93810  Biso   1.000  C
  C42      1.0000 0.77420  0.64020  0.93810  Biso   1.000  C
  C43      1.0000 0.72580  0.14020  0.56190  Biso   1.000  C
  C44      1.0000 0.22580  0.64020  0.56190  Biso   1.000  C
  C45      1.0000 0.72580  0.85980  0.06190  Biso   1.000  C
  C46      1.0000 0.22580  0.35980  0.06190  Biso   1.000  C
  C47      1.0000 0.27420  0.85980  0.43810  Biso   1.000  C
  C48      1.0000 0.77420  0.35980  0.43810  Biso   1.000  C
  F97      1.0000 0.28880  0.10400  0.90210  Biso   1.000  F
  F98      1.0000 0.78880  0.60400  0.90210  Biso   1.000  F
  F99      1.0000 0.71120  0.10400  0.59790  Biso   1.000  F
  F100     1.0000 0.21120  0.60400  0.59790  Biso   1.000  F
  F101     1.0000 0.71120  0.89600  0.09790  Biso   1.000  F
  F102     1.0000 0.21120  0.39600  0.09790  Biso   1.000  F
  F103     1.0000 0.28880  0.89600  0.40210  Biso   1.000  F
  F104     1.0000 0.78880  0.39600  0.40210  Biso   1.000  F
  F105     1.0000 0.22190  0.16020  0.89650  Biso   1.000  F
  F106     1.0000 0.72190  0.66020  0.89650  Biso   1.000  F
  F107     1.0000 0.77810  0.16020  0.60350  Biso   1.000  F
  F108     1.0000 0.27810  0.66020  0.60350  Biso   1.000  F
  F109     1.0000 0.77810  0.83980  0.10350  Biso   1.000  F
  F110     1.0000 0.27810  0.33980  0.10350  Biso   1.000  F
  F111     1.0000 0.22190  0.83980  0.39650  Biso   1.000  F
  F112     1.0000 0.72190  0.33980  0.39650  Biso   1.000  F
  F113     1.0000 0.29530  0.25100  0.96670  Biso   1.000  F
  F114     1.0000 0.79530  0.75100  0.96670  Biso   1.000  F
  F115     1.0000 0.70470  0.25100  0.53330  Biso   1.000  F
  F116     1.0000 0.20470  0.75100  0.53330  Biso   1.000  F
  F117     1.0000 0.70470  0.74900  0.03330  Biso   1.000  F
  F118     1.0000 0.20470  0.24900  0.03330  Biso   1.000  F
  F119     1.0000 0.29530  0.74900  0.46670  Biso   1.000  F
  F120     1.0000 0.79530  0.24900  0.46670  Biso   1.000  F
  F121     1.0000 0.32180  0.15610  0.93960  Biso   1.000  F
  F122     1.0000 0.82180  0.65610  0.93960  Biso   1.000  F
  F123     1.0000 0.67820  0.15610  0.56040  Biso   1.000  F
  F124     1.0000 0.17820  0.65610  0.56040  Biso   1.000  F
  F125     1.0000 0.67820  0.84390  0.06040  Biso   1.000  F
  F126     1.0000 0.17820  0.34390  0.06040  Biso   1.000  F
  F127     1.0000 0.32180  0.84390  0.43960  Biso   1.000  F
  F128     1.0000 0.82180  0.34390  0.43960  Biso   1.000  F
  F129     1.0000 0.23860  0.12800  0.88500  Biso   1.000  F
  F130     1.0000 0.73860  0.62800  0.88500  Biso   1.000  F
  F131     1.0000 0.76140  0.12800  0.61500  Biso   1.000  F
  F132     1.0000 0.26140  0.62800  0.61500  Biso   1.000  F
  F133     1.0000 0.76140  0.87200  0.11500  Biso   1.000  F
  F134     1.0000 0.26140  0.37200  0.11500  Biso   1.000  F
  F135     1.0000 0.23860  0.87200  0.38500  Biso   1.000  F
  F136     1.0000 0.73860  0.37200  0.38500  Biso   1.000  F
  F137     1.0000 0.27530  0.26220  0.96050  Biso   1.000  F
  F138     1.0000 0.77530  0.76220  0.96050  Biso   1.000  F
  F139     1.0000 0.72470  0.26220  0.53950  Biso   1.000  F
  F140     1.0000 0.22470  0.76220  0.53950  Biso   1.000  F
  F141     1.0000 0.72470  0.73780  0.03950  Biso   1.000  F
  F142     1.0000 0.22470  0.23780  0.03950  Biso   1.000  F
  F143     1.0000 0.27530  0.73780  0.46050  Biso   1.000  F
  F144     1.0000 0.77530  0.23780  0.46050  Biso   1.000  F
  C49      1.0000 0.28410  0.01780  0.98370  Biso   1.000  C
  C50      1.0000 0.78410  0.51780  0.98370  Biso   1.000  C
  C51      1.0000 0.71590  0.01780  0.51630  Biso   1.000  C
  C52      1.0000 0.21590  0.51780  0.51630  Biso   1.000  C
  C53      1.0000 0.71590  0.98220  0.01630  Biso   1.000  C
  C54      1.0000 0.21590  0.48220  0.01630  Biso   1.000  C
  C55      1.0000 0.28410  0.98220  0.48370  Biso   1.000  C
  C56      1.0000 0.78410  0.48220  0.48370  Biso   1.000  C
  C57      1.0000 0.31860  0.04080  0.04810  Biso   1.000  C
  C58      1.0000 0.81860  0.54080  0.04810  Biso   1.000  C
  C59      1.0000 0.68140  0.04080  0.45190  Biso   1.000  C
  C60      1.0000 0.18140  0.54080  0.45190  Biso   1.000  C
  C61      1.0000 0.68140  0.95920  0.95190  Biso   1.000  C
  C62      1.0000 0.18140  0.45920  0.95190  Biso   1.000  C
  C63      1.0000 0.31860  0.95920  0.54810  Biso   1.000  C
  C64      1.0000 0.81860  0.45920  0.54810  Biso   1.000  C
  H9       1.0000 0.33500  0.12500  0.06500  Biso   1.000  H
  H10      1.0000 0.83500  0.62500  0.06500  Biso   1.000  H
  H11      1.0000 0.66500  0.12500  0.43500  Biso   1.000  H
  H12      1.0000 0.16500  0.62500  0.43500  Biso   1.000  H
  H13      1.0000 0.66500  0.87500  0.93500  Biso   1.000  H
  H14      1.0000 0.16500  0.37500  0.93500  Biso   1.000  H
  H15      1.0000 0.33500  0.87500  0.56500  Biso   1.000  H
  H16      1.0000 0.83500  0.37500  0.56500  Biso   1.000  H
  C65      1.0000 0.32870  0.94380  0.09370  Biso   1.000  C
  C66      1.0000 0.82870  0.44380  0.09370  Biso   1.000  C
  C67      1.0000 0.67130  0.94380  0.40630  Biso   1.000  C
  C68      1.0000 0.17130  0.44380  0.40630  Biso   1.000  C
  C69      1.0000 0.67130  0.05620  0.90630  Biso   1.000  C
  C70      1.0000 0.17130  0.55620  0.90630  Biso   1.000  C
  C71      1.0000 0.32870  0.05620  0.59370  Biso   1.000  C
  C72      1.0000 0.82870  0.55620  0.59370  Biso   1.000  C
  C73      1.0000 0.36840  0.98200  0.16380  Biso   1.000  C
  C74      1.0000 0.86840  0.48200  0.16380  Biso   1.000  C
  C75      1.0000 0.63160  0.98200  0.33620  Biso   1.000  C
  C76      1.0000 0.13160  0.48200  0.33620  Biso   1.000  C
  C77      1.0000 0.63160  0.01800  0.83620  Biso   1.000  C
  C78      1.0000 0.13160  0.51800  0.83620  Biso   1.000  C
  C79      1.0000 0.36840  0.01800  0.66380  Biso   1.000  C
  C80      1.0000 0.86840  0.51800  0.66380  Biso   1.000  C
  F145     1.0000 0.39670  0.08300  0.17100  Biso   1.000  F
  F146     1.0000 0.89670  0.58300  0.17100  Biso   1.000  F
  F147     1.0000 0.60330  0.08300  0.32900  Biso   1.000  F
  F148     1.0000 0.10330  0.58300  0.32900  Biso   1.000  F
  F149     1.0000 0.60330  0.91700  0.82900  Biso   1.000  F
  F150     1.0000 0.10330  0.41700  0.82900  Biso   1.000  F
  F151     1.0000 0.39670  0.91700  0.67100  Biso   1.000  F
  F152     1.0000 0.89670  0.41700  0.67100  Biso   1.000  F
  F153     1.0000 0.34000  0.01400  0.18990  Biso   1.000  F
  F154     1.0000 0.84000  0.51400  0.18990  Biso   1.000  F
  F155     1.0000 0.66000  0.01400  0.31010  Biso   1.000  F
  F156     1.0000 0.16000  0.51400  0.31010  Biso   1.000  F
  F157     1.0000 0.66000  0.98600  0.81010  Biso   1.000  F
  F158     1.0000 0.16000  0.48600  0.81010  Biso   1.000  F
  F159     1.0000 0.34000  0.98600  0.68990  Biso   1.000  F
  F160     1.0000 0.84000  0.48600  0.68990  Biso   1.000  F
  F161     1.0000 0.40080  0.88300  0.19380  Biso   1.000  F
  F162     1.0000 0.90080  0.38300  0.19380  Biso   1.000  F
  F163     1.0000 0.59920  0.88300  0.30620  Biso   1.000  F
  F164     1.0000 0.09920  0.38300  0.30620  Biso   1.000  F
  F165     1.0000 0.59920  0.11700  0.80620  Biso   1.000  F
  F166     1.0000 0.09920  0.61700  0.80620  Biso   1.000  F
  F167     1.0000 0.40080  0.11700  0.69380  Biso   1.000  F
  F168     1.0000 0.90080  0.61700  0.69380  Biso   1.000  F
  F169     1.0000 0.41700  0.95800  0.17610  Biso   1.000  F
  F170     1.0000 0.91700  0.45800  0.17610  Biso   1.000  F
  F171     1.0000 0.58300  0.95800  0.32390  Biso   1.000  F
  F172     1.0000 0.08300  0.45800  0.32390  Biso   1.000  F
  F173     1.0000 0.58300  0.04200  0.82390  Biso   1.000  F
  F174     1.0000 0.08300  0.54200  0.82390  Biso   1.000  F
  F175     1.0000 0.41700  0.04200  0.67610  Biso   1.000  F
  F176     1.0000 0.91700  0.54200  0.67610  Biso   1.000  F
  F177     1.0000 0.37470  0.11600  0.17490  Biso   1.000  F
  F178     1.0000 0.87470  0.61600  0.17490  Biso   1.000  F
  F179     1.0000 0.62530  0.11600  0.32510  Biso   1.000  F
  F180     1.0000 0.12530  0.61600  0.32510  Biso   1.000  F
  F181     1.0000 0.62530  0.88400  0.82510  Biso   1.000  F
  F182     1.0000 0.12530  0.38400  0.82510  Biso   1.000  F
  F183     1.0000 0.37470  0.88400  0.67490  Biso   1.000  F
  F184     1.0000 0.87470  0.38400  0.67490  Biso   1.000  F
  F185     1.0000 0.37100  0.90700  0.20410  Biso   1.000  F
  F186     1.0000 0.87100  0.40700  0.20410  Biso   1.000  F
  F187     1.0000 0.62900  0.90700  0.29590  Biso   1.000  F
  F188     1.0000 0.12900  0.40700  0.29590  Biso   1.000  F
  F189     1.0000 0.62900  0.09300  0.79590  Biso   1.000  F
  F190     1.0000 0.12900  0.59300  0.79590  Biso   1.000  F
  F191     1.0000 0.37100  0.09300  0.70410  Biso   1.000  F
  F192     1.0000 0.87100  0.59300  0.70410  Biso   1.000  F
  O25      1.0000 0.30832  0.82550  0.08535  Biso   1.000  O
  O26      1.0000 0.80832  0.32550  0.08535  Biso   1.000  O
  O27      1.0000 0.69168  0.82550  0.41465  Biso   1.000  O
  O28      1.0000 0.19168  0.32550  0.41465  Biso   1.000  O
  O29      1.0000 0.69168  0.17450  0.91465  Biso   1.000  O
  O30      1.0000 0.19168  0.67450  0.91465  Biso   1.000  O
  O31      1.0000 0.30832  0.17450  0.58535  Biso   1.000  O
  O32      1.0000 0.80832  0.67450  0.58535  Biso   1.000  O
  O33      1.0000 0.07180  0.13480  0.05500  Biso   1.000  O
  O34      1.0000 0.57180  0.63480  0.05500  Biso   1.000  O
  O35      1.0000 0.92820  0.13480  0.44500  Biso   1.000  O
  O36      1.0000 0.42820  0.63480  0.44500  Biso   1.000  O
  O37      1.0000 0.92820  0.86520  0.94500  Biso   1.000  O
  O38      1.0000 0.42820  0.36520  0.94500  Biso   1.000  O
  O39      1.0000 0.07180  0.86520  0.55500  Biso   1.000  O
  O40      1.0000 0.57180  0.36520  0.55500  Biso   1.000  O
  N1       1.0000 0.11470  0.10420  0.10970  Biso   1.000  N
  N2       1.0000 0.61470  0.60420  0.10970  Biso   1.000  N
  N3       1.0000 0.88530  0.10420  0.39030  Biso   1.000  N
  N4       1.0000 0.38530  0.60420  0.39030  Biso   1.000  N
  N5       1.0000 0.88530  0.89580  0.89030  Biso   1.000  N
  N6       1.0000 0.38530  0.39580  0.89030  Biso   1.000  N
  N7       1.0000 0.11470  0.89580  0.60970  Biso   1.000  N
  N8       1.0000 0.61470  0.39580  0.60970  Biso   1.000  N
  C81      1.0000 0.12690  0.16680  0.17120  Biso   1.000  C
  C82      1.0000 0.62690  0.66680  0.17120  Biso   1.000  C
  C83      1.0000 0.87310  0.16680  0.32880  Biso   1.000  C
  C84      1.0000 0.37310  0.66680  0.32880  Biso   1.000  C
  C85      1.0000 0.87310  0.83320  0.82880  Biso   1.000  C
  C86      1.0000 0.37310  0.33320  0.82880  Biso   1.000  C
  C87      1.0000 0.12690  0.83320  0.67120  Biso   1.000  C
  C88      1.0000 0.62690  0.33320  0.67120  Biso   1.000  C
  C89      1.0000 0.07870  0.16500  0.17380  Biso   1.000  C
  C90      1.0000 0.57870  0.66500  0.17380  Biso   1.000  C
  C91      1.0000 0.92130  0.16500  0.32620  Biso   1.000  C
  C92      1.0000 0.42130  0.66500  0.32620  Biso   1.000  C
  C93      1.0000 0.92130  0.83500  0.82620  Biso   1.000  C
  C94      1.0000 0.42130  0.33500  0.82620  Biso   1.000  C
  C95      1.0000 0.07870  0.83500  0.67380  Biso   1.000  C
  C96      1.0000 0.57870  0.33500  0.67380  Biso   1.000  C
  H17      1.0000 0.06400  0.08700  0.16800  Biso   1.000  H
  H18      1.0000 0.56400  0.58700  0.16800  Biso   1.000  H
  H19      1.0000 0.93600  0.08700  0.33200  Biso   1.000  H
  H20      1.0000 0.43600  0.58700  0.33200  Biso   1.000  H
  H21      1.0000 0.93600  0.91300  0.83200  Biso   1.000  H
  H22      1.0000 0.43600  0.41300  0.83200  Biso   1.000  H
  H23      1.0000 0.06400  0.91300  0.66800  Biso   1.000  H
  H24      1.0000 0.56400  0.41300  0.66800  Biso   1.000  H
  H25      1.0000 0.99500  0.77000  0.18700  Biso   1.000  H
  H26      1.0000 0.49500  0.27000  0.18700  Biso   1.000  H
  H27      1.0000 0.00500  0.77000  0.31300  Biso   1.000  H
  H28      1.0000 0.50500  0.27000  0.31300  Biso   1.000  H
  H29      1.0000 0.00500  0.23000  0.81300  Biso   1.000  H
  H30      1.0000 0.50500  0.73000  0.81300  Biso   1.000  H
  H31      1.0000 0.99500  0.23000  0.68700  Biso   1.000  H
  H32      1.0000 0.49500  0.73000  0.68700  Biso   1.000  H
  H33      1.0000 0.08400  0.19800  0.20800  Biso   1.000  H
  H34      1.0000 0.58400  0.69800  0.20800  Biso   1.000  H
  H35      1.0000 0.91600  0.19800  0.29200  Biso   1.000  H
  H36      1.0000 0.41600  0.69800  0.29200  Biso   1.000  H
  H37      1.0000 0.91600  0.80200  0.79200  Biso   1.000  H
  H38      1.0000 0.41600  0.30200  0.79200  Biso   1.000  H
  H39      1.0000 0.08400  0.80200  0.70800  Biso   1.000  H
  H40      1.0000 0.58400  0.30200  0.70800  Biso   1.000  H
  C97      1.0000 0.14160  0.31850  0.16900  Biso   1.000  C
  C98      1.0000 0.64160  0.81850  0.16900  Biso   1.000  C
  C99      1.0000 0.85840  0.31850  0.33100  Biso   1.000  C
  C100     1.0000 0.35840  0.81850  0.33100  Biso   1.000  C
  C101     1.0000 0.85840  0.68150  0.83100  Biso   1.000  C
  C102     1.0000 0.35840  0.18150  0.83100  Biso   1.000  C
  C103     1.0000 0.14160  0.68150  0.66900  Biso   1.000  C
  C104     1.0000 0.64160  0.18150  0.66900  Biso   1.000  C
  H41      1.0000 0.16550  0.32100  0.17000  Biso   1.000  H
  H42      1.0000 0.66550  0.82100  0.17000  Biso   1.000  H
  H43      1.0000 0.83450  0.32100  0.33000  Biso   1.000  H
  H44      1.0000 0.33450  0.82100  0.33000  Biso   1.000  H
  H45      1.0000 0.83450  0.67900  0.83000  Biso   1.000  H
  H46      1.0000 0.33450  0.17900  0.83000  Biso   1.000  H
  H47      1.0000 0.16550  0.67900  0.67000  Biso   1.000  H
  H48      1.0000 0.66550  0.17900  0.67000  Biso   1.000  H
  H49      1.0000 0.14100  0.36400  0.19800  Biso   1.000  H
  H50      1.0000 0.64100  0.86400  0.19800  Biso   1.000  H
  H51      1.0000 0.85900  0.36400  0.30200  Biso   1.000  H
  H52      1.0000 0.35900  0.86400  0.30200  Biso   1.000  H
  H53      1.0000 0.85900  0.63600  0.80200  Biso   1.000  H
  H54      1.0000 0.35900  0.13600  0.80200  Biso   1.000  H
  H55      1.0000 0.14100  0.63600  0.69800  Biso   1.000  H
  H56      1.0000 0.64100  0.13600  0.69800  Biso   1.000  H
  H57      1.0000 0.97100  0.83000  0.18400  Biso   1.000  H
  H58      1.0000 0.47100  0.33000  0.18400  Biso   1.000  H
  H59      1.0000 0.02900  0.83000  0.31600  Biso   1.000  H
  H60      1.0000 0.52900  0.33000  0.31600  Biso   1.000  H
  H61      1.0000 0.02900  0.17000  0.81600  Biso   1.000  H
  H62      1.0000 0.52900  0.67000  0.81600  Biso   1.000  H
  H63      1.0000 0.97100  0.17000  0.68400  Biso   1.000  H
  H64      1.0000 0.47100  0.67000  0.68400  Biso   1.000  H
  C105     1.0000 0.17350  0.07180  0.21920  Biso   1.000  C
  C106     1.0000 0.67350  0.57180  0.21920  Biso   1.000  C
  C107     1.0000 0.82650  0.07180  0.28080  Biso   1.000  C
  C108     1.0000 0.32650  0.57180  0.28080  Biso   1.000  C
  C109     1.0000 0.82650  0.92820  0.78080  Biso   1.000  C
  C110     1.0000 0.32650  0.42820  0.78080  Biso   1.000  C
  C111     1.0000 0.17350  0.92820  0.71920  Biso   1.000  C
  C112     1.0000 0.67350  0.42820  0.71920  Biso   1.000  C
  C113     1.0000 0.21450  0.14290  0.28110  Biso   1.000  C
  C114     1.0000 0.71450  0.64290  0.28110  Biso   1.000  C
  C115     1.0000 0.78550  0.14290  0.21890  Biso   1.000  C
  C116     1.0000 0.28550  0.64290  0.21890  Biso   1.000  C
  C117     1.0000 0.78550  0.85710  0.71890  Biso   1.000  C
  C118     1.0000 0.28550  0.35710  0.71890  Biso   1.000  C
  C119     1.0000 0.21450  0.85710  0.78110  Biso   1.000  C
  C120     1.0000 0.71450  0.35710  0.78110  Biso   1.000  C
  H65      1.0000 0.22600  0.20000  0.27300  Biso   1.000  H
  H66      1.0000 0.72600  0.70000  0.27300  Biso   1.000  H
  H67      1.0000 0.77400  0.20000  0.22700  Biso   1.000  H
  H68      1.0000 0.27400  0.70000  0.22700  Biso   1.000  H
  H69      1.0000 0.77400  0.80000  0.72700  Biso   1.000  H
  H70      1.0000 0.27400  0.30000  0.72700  Biso   1.000  H
  H71      1.0000 0.22600  0.80000  0.77300  Biso   1.000  H
  H72      1.0000 0.72600  0.30000  0.77300  Biso   1.000  H
  H73      1.0000 0.24250  0.10200  0.30000  Biso   1.000  H
  H74      1.0000 0.74250  0.60200  0.30000  Biso   1.000  H
  H75      1.0000 0.75750  0.10200  0.20000  Biso   1.000  H
  H76      1.0000 0.25750  0.60200  0.20000  Biso   1.000  H
  H77      1.0000 0.75750  0.89800  0.70000  Biso   1.000  H
  H78      1.0000 0.25750  0.39800  0.70000  Biso   1.000  H
  H79      1.0000 0.24250  0.89800  0.80000  Biso   1.000  H
  H80      1.0000 0.74250  0.39800  0.80000  Biso   1.000  H
  H81      1.0000 0.12100  0.46000  0.29800  Biso   1.000  H
  H82      1.0000 0.62100  0.96000  0.29800  Biso   1.000  H
  H83      1.0000 0.87900  0.46000  0.20200  Biso   1.000  H
  H84      1.0000 0.37900  0.96000  0.20200  Biso   1.000  H
  H85      1.0000 0.87900  0.54000  0.70200  Biso   1.000  H
  H86      1.0000 0.37900  0.04000  0.70200  Biso   1.000  H
  H87      1.0000 0.12100  0.54000  0.79800  Biso   1.000  H
  H88      1.0000 0.62100  0.04000  0.79800  Biso   1.000  H
  C121     1.0000 0.15500  0.94010  0.23570  Biso   1.000  C
  C122     1.0000 0.65500  0.44010  0.23570  Biso   1.000  C
  C123     1.0000 0.84500  0.94010  0.26430  Biso   1.000  C
  C124     1.0000 0.34500  0.44010  0.26430  Biso   1.000  C
  C125     1.0000 0.84500  0.05990  0.76430  Biso   1.000  C
  C126     1.0000 0.34500  0.55990  0.76430  Biso   1.000  C
  C127     1.0000 0.15500  0.05990  0.73570  Biso   1.000  C
  C128     1.0000 0.65500  0.55990  0.73570  Biso   1.000  C
  H89      1.0000 0.12930  0.89200  0.19900  Biso   1.000  H
  H90      1.0000 0.62930  0.39200  0.19900  Biso   1.000  H
  H91      1.0000 0.87070  0.89200  0.30100  Biso   1.000  H
  H92      1.0000 0.37070  0.39200  0.30100  Biso   1.000  H
  H93      1.0000 0.87070  0.10800  0.80100  Biso   1.000  H
  H94      1.0000 0.37070  0.60800  0.80100  Biso   1.000  H
  H95      1.0000 0.12930  0.10800  0.69900  Biso   1.000  H
  H96      1.0000 0.62930  0.60800  0.69900  Biso   1.000  H
  H97      1.0000 0.44000  0.52000  0.76000  Biso   1.000  H
  H98      1.0000 0.94000  0.02000  0.76000  Biso   1.000  H
  H99      1.0000 0.56000  0.52000  0.74000  Biso   1.000  H
  H100     1.0000 0.06000  0.02000  0.74000  Biso   1.000  H
  H101     1.0000 0.56000  0.48000  0.24000  Biso   1.000  H
  H102     1.0000 0.06000  0.98000  0.24000  Biso   1.000  H
  H103     1.0000 0.44000  0.48000  0.26000  Biso   1.000  H
  H104     1.0000 0.94000  0.98000  0.26000  Biso   1.000  H
  H105     1.0000 0.18060  0.89500  0.25100  Biso   1.000  H
  H106     1.0000 0.68060  0.39500  0.25100  Biso   1.000  H
  H107     1.0000 0.81940  0.89500  0.24900  Biso   1.000  H
  H108     1.0000 0.31940  0.39500  0.24900  Biso   1.000  H
  H109     1.0000 0.81940  0.10500  0.74900  Biso   1.000  H
  H110     1.0000 0.31940  0.60500  0.74900  Biso   1.000  H
  H111     1.0000 0.18060  0.10500  0.75100  Biso   1.000  H
  H112     1.0000 0.68060  0.60500  0.75100  Biso   1.000  H
  N9       1.0000 0.19440  0.02980  0.17920  Biso   1.000  N
  N10      1.0000 0.69440  0.52980  0.17920  Biso   1.000  N
  N11      1.0000 0.80560  0.02980  0.32080  Biso   1.000  N
  N12      1.0000 0.30560  0.52980  0.32080  Biso   1.000  N
  N13      1.0000 0.80560  0.97020  0.82080  Biso   1.000  N
  N14      1.0000 0.30560  0.47020  0.82080  Biso   1.000  N
  N15      1.0000 0.19440  0.97020  0.67920  Biso   1.000  N
  N16      1.0000 0.69440  0.47020  0.67920  Biso   1.000  N
  O41      1.0000 0.23965  0.97640  0.20310  Biso   1.000  O
  O42      1.0000 0.73965  0.47640  0.20310  Biso   1.000  O
  O43      1.0000 0.76035  0.97640  0.29690  Biso   1.000  O
  O44      1.0000 0.26035  0.47640  0.29690  Biso   1.000  O
  O45      1.0000 0.76035  0.02360  0.79690  Biso   1.000  O
  O46      1.0000 0.26035  0.52360  0.79690  Biso   1.000  O
  O47      1.0000 0.23965  0.02360  0.70310  Biso   1.000  O
  O48      1.0000 0.73965  0.52360  0.70310  Biso   1.000  O
  C129     1.0000 0.15630  0.03970  0.11580  Biso   1.000  C
  C130     1.0000 0.65630  0.53970  0.11580  Biso   1.000  C
  C131     1.0000 0.84370  0.03970  0.38420  Biso   1.000  C
  C132     1.0000 0.34370  0.53970  0.38420  Biso   1.000  C
  C133     1.0000 0.84370  0.96030  0.88420  Biso   1.000  C
  C134     1.0000 0.34370  0.46030  0.88420  Biso   1.000  C
  C135     1.0000 0.15630  0.96030  0.61580  Biso   1.000  C
  C136     1.0000 0.65630  0.46030  0.61580  Biso   1.000  C
  C137     1.0000 0.16070  0.99090  0.06530  Biso   1.000  C
  C138     1.0000 0.66070  0.49090  0.06530  Biso   1.000  C
  C139     1.0000 0.83930  0.99090  0.43470  Biso   1.000  C
  C140     1.0000 0.33930  0.49090  0.43470  Biso   1.000  C
  C141     1.0000 0.83930  0.00910  0.93470  Biso   1.000  C
  C142     1.0000 0.33930  0.50910  0.93470  Biso   1.000  C
  C143     1.0000 0.16070  0.00910  0.56530  Biso   1.000  C
  C144     1.0000 0.66070  0.50910  0.56530  Biso   1.000  C
  C145     1.0000 0.20100  0.90840  0.07000  Biso   1.000  C
  C146     1.0000 0.70100  0.40840  0.07000  Biso   1.000  C
  C147     1.0000 0.79900  0.90840  0.43000  Biso   1.000  C
  C148     1.0000 0.29900  0.40840  0.43000  Biso   1.000  C
  C149     1.0000 0.79900  0.09160  0.93000  Biso   1.000  C
  C150     1.0000 0.29900  0.59160  0.93000  Biso   1.000  C
  C151     1.0000 0.20100  0.09160  0.57000  Biso   1.000  C
  C152     1.0000 0.70100  0.59160  0.57000  Biso   1.000  C
  H113     1.0000 0.23080  0.86600  0.10600  Biso   1.000  H
  H114     1.0000 0.73080  0.36600  0.10600  Biso   1.000  H
  H115     1.0000 0.76920  0.86600  0.39400  Biso   1.000  H
  H116     1.0000 0.26920  0.36600  0.39400  Biso   1.000  H
  H117     1.0000 0.76920  0.13400  0.89400  Biso   1.000  H
  H118     1.0000 0.26920  0.63400  0.89400  Biso   1.000  H
  H119     1.0000 0.23080  0.13400  0.60600  Biso   1.000  H
  H120     1.0000 0.73080  0.63400  0.60600  Biso   1.000  H
  N17      1.0000 0.19316  0.88440  0.01320  Biso   1.000  N
  N18      1.0000 0.69316  0.38440  0.01320  Biso   1.000  N
  N19      1.0000 0.80684  0.88440  0.48680  Biso   1.000  N
  N20      1.0000 0.30684  0.38440  0.48680  Biso   1.000  N
  N21      1.0000 0.80684  0.11560  0.98680  Biso   1.000  N
  N22      1.0000 0.30684  0.61560  0.98680  Biso   1.000  N
  N23      1.0000 0.19316  0.11560  0.51320  Biso   1.000  N
  N24      1.0000 0.69316  0.61560  0.51320  Biso   1.000  N
  N25      1.0000 0.14698  0.95460  0.97170  Biso   1.000  N
  N26      1.0000 0.64698  0.45460  0.97170  Biso   1.000  N
  N27      1.0000 0.85302  0.95460  0.52830  Biso   1.000  N
  N28      1.0000 0.35302  0.45460  0.52830  Biso   1.000  N
  N29      1.0000 0.85302  0.04540  0.02830  Biso   1.000  N
  N30      1.0000 0.35302  0.54540  0.02830  Biso   1.000  N
  N31      1.0000 0.14698  0.04540  0.47170  Biso   1.000  N
  N32      1.0000 0.64698  0.54540  0.47170  Biso   1.000  N
  C153     1.0000 0.12520  0.95820  0.90320  Biso   1.000  C
  C154     1.0000 0.62520  0.45820  0.90320  Biso   1.000  C
  C155     1.0000 0.87480  0.95820  0.59680  Biso   1.000  C
  C156     1.0000 0.37480  0.45820  0.59680  Biso   1.000  C
  C157     1.0000 0.87480  0.04180  0.09680  Biso   1.000  C
  C158     1.0000 0.37480  0.54180  0.09680  Biso   1.000  C
  C159     1.0000 0.12520  0.04180  0.40320  Biso   1.000  C
  C160     1.0000 0.62520  0.54180  0.40320  Biso   1.000  C
  H121     1.0000 0.09100  0.04900  0.86300  Biso   1.000  H
  H122     1.0000 0.59100  0.54900  0.86300  Biso   1.000  H
  H123     1.0000 0.90900  0.04900  0.63700  Biso   1.000  H
  H124     1.0000 0.40900  0.54900  0.63700  Biso   1.000  H
  H125     1.0000 0.90900  0.95100  0.13700  Biso   1.000  H
  H126     1.0000 0.40900  0.45100  0.13700  Biso   1.000  H
  H127     1.0000 0.09100  0.95100  0.36300  Biso   1.000  H
  H128     1.0000 0.59100  0.45100  0.36300  Biso   1.000  H
  H129     1.0000 0.14500  0.92400  0.89500  Biso   1.000  H
  H130     1.0000 0.64500  0.42400  0.89500  Biso   1.000  H
  H131     1.0000 0.85500  0.92400  0.60500  Biso   1.000  H
  H132     1.0000 0.35500  0.42400  0.60500  Biso   1.000  H
  H133     1.0000 0.85500  0.07600  0.10500  Biso   1.000  H
  H134     1.0000 0.35500  0.57600  0.10500  Biso   1.000  H
  H135     1.0000 0.14500  0.07600  0.39500  Biso   1.000  H
  H136     1.0000 0.64500  0.57600  0.39500  Biso   1.000  H
  C161     1.0000 0.07230  0.89700  0.86360  Biso   1.000  C
  C162     1.0000 0.57230  0.39700  0.86360  Biso   1.000  C
  C163     1.0000 0.92770  0.89700  0.63640  Biso   1.000  C
  C164     1.0000 0.42770  0.39700  0.63640  Biso   1.000  C
  C165     1.0000 0.92770  0.10300  0.13640  Biso   1.000  C
  C166     1.0000 0.42770  0.60300  0.13640  Biso   1.000  C
  C167     1.0000 0.07230  0.10300  0.36360  Biso   1.000  C
  C168     1.0000 0.57230  0.60300  0.36360  Biso   1.000  C
  H137     1.0000 0.06070  0.89960  0.81940  Biso   1.000  H
  H138     1.0000 0.56070  0.39960  0.81940  Biso   1.000  H
  H139     1.0000 0.93930  0.89960  0.68060  Biso   1.000  H
  H140     1.0000 0.43930  0.39960  0.68060  Biso   1.000  H
  H141     1.0000 0.93930  0.10040  0.18060  Biso   1.000  H
  H142     1.0000 0.43930  0.60040  0.18060  Biso   1.000  H
  H143     1.0000 0.06070  0.10040  0.31940  Biso   1.000  H
  H144     1.0000 0.56070  0.60040  0.31940  Biso   1.000  H
  H145     1.0000 0.04810  0.94880  0.86930  Biso   1.000  H
  H146     1.0000 0.54810  0.44880  0.86930  Biso   1.000  H
  H147     1.0000 0.95190  0.94880  0.63070  Biso   1.000  H
  H148     1.0000 0.45190  0.44880  0.63070  Biso   1.000  H
  H149     1.0000 0.95190  0.05120  0.13070  Biso   1.000  H
  H150     1.0000 0.45190  0.55120  0.13070  Biso   1.000  H
  H151     1.0000 0.04810  0.05120  0.36930  Biso   1.000  H
  H152     1.0000 0.54810  0.55120  0.36930  Biso   1.000  H
  H153     1.0000 0.07340  0.80110  0.87630  Biso   1.000  H
  H154     1.0000 0.57340  0.30110  0.87630  Biso   1.000  H
  H155     1.0000 0.92660  0.80110  0.62370  Biso   1.000  H
  H156     1.0000 0.42660  0.30110  0.62370  Biso   1.000  H
  H157     1.0000 0.92660  0.19890  0.12370  Biso   1.000  H
  H158     1.0000 0.42660  0.69890  0.12370  Biso   1.000  H
  H159     1.0000 0.07340  0.19890  0.37630  Biso   1.000  H
  H160     1.0000 0.57340  0.69890  0.37630  Biso   1.000  H
  C169     1.0000 0.12590  0.01870  0.00060  Biso   1.000  C
  C170     1.0000 0.62590  0.51870  0.00060  Biso   1.000  C
  C171     1.0000 0.87410  0.01870  0.49940  Biso   1.000  C
  C172     1.0000 0.37410  0.51870  0.49940  Biso   1.000  C
  C173     1.0000 0.87410  0.98130  0.99940  Biso   1.000  C
  C174     1.0000 0.37410  0.48130  0.99940  Biso   1.000  C
  C175     1.0000 0.12590  0.98130  0.50060  Biso   1.000  C
  C176     1.0000 0.62590  0.48130  0.50060  Biso   1.000  C
  H161     1.0000 0.12400  0.06500  0.88100  Biso   1.000  H
  H162     1.0000 0.62400  0.56500  0.88100  Biso   1.000  H
  H163     1.0000 0.87600  0.06500  0.61900  Biso   1.000  H
  H164     1.0000 0.37600  0.56500  0.61900  Biso   1.000  H
  H165     1.0000 0.87600  0.93500  0.11900  Biso   1.000  H
  H166     1.0000 0.37600  0.43500  0.11900  Biso   1.000  H
  H167     1.0000 0.12400  0.93500  0.38100  Biso   1.000  H
  H168     1.0000 0.62400  0.43500  0.38100  Biso   1.000  H
