data_image0
_cell_length_a       30.189
_cell_length_b       9.554
_cell_length_c       24.986
_cell_angle_alpha    90
_cell_angle_beta     123.936
_cell_angle_gamma    90

_symmetry_space_group_name_H-M    "P 1"
_symmetry_int_tables_number       1

loop_
  _symmetry_equiv_pos_as_xyz
  'x, y, z'

loop_
  _atom_site_label
  _atom_site_occupancy
  _atom_site_fract_x
  _atom_site_fract_y
  _atom_site_fract_z
  _atom_site_thermal_displace_type
  _atom_site_B_iso_or_equiv
  _atom_site_type_symbol
  Cu1      1.0000 0.25000  0.75000  0.00000  Biso   1.000  Cu
  Cu2      1.0000 0.75000  0.25000  0.00000  Biso   1.000  Cu
  Cu3      1.0000 0.75000  0.75000  0.50000  Biso   1.000  Cu
  Cu4      1.0000 0.25000  0.25000  0.50000  Biso   1.000  Cu
  Cu5      1.0000 0.00000  0.00000  0.00000  Biso   1.000  Cu
  Cu6      1.0000 0.50000  0.50000  0.00000  Biso   1.000  Cu
  Cu7      1.0000 0.00000  0.00000  0.50000  Biso   1.000  Cu
  Cu8      1.0000 0.50000  0.50000  0.50000  Biso   1.000  Cu
  O1       1.0000 0.31506  0.83330  0.08962  Biso   1.000  O
  O2       1.0000 0.81506  0.33330  0.08962  Biso   1.000  O
  O3       1.0000 0.68494  0.83330  0.41038  Biso   1.000  O
  O4       1.0000 0.18494  0.33330  0.41038  Biso   1.000  O
  O5       1.0000 0.68494  0.16670  0.91038  Biso   1.000  O
  O6       1.0000 0.18494  0.66670  0.91038  Biso   1.000  O
  O7       1.0000 0.31506  0.16670  0.58962  Biso   1.000  O
  O8       1.0000 0.81506  0.66670  0.58962  Biso   1.000  O
  C1       1.0000 0.37360  0.99590  0.16960  Biso   1.000  C
  C2       1.0000 0.87360  0.49590  0.16960  Biso   1.000  C
  C3       1.0000 0.62640  0.99590  0.33040  Biso   1.000  C
  C4       1.0000 0.12640  0.49590  0.33040  Biso   1.000  C
  C5       1.0000 0.62640  0.00410  0.83040  Biso   1.000  C
  C6       1.0000 0.12640  0.50410  0.83040  Biso   1.000  C
  C7       1.0000 0.37360  0.00410  0.66960  Biso   1.000  C
  C8       1.0000 0.87360  0.50410  0.66960  Biso   1.000  C
  F1       1.0000 0.40630  0.90000  0.20600  Biso   1.000  F
  F2       1.0000 0.90630  0.40000  0.20600  Biso   1.000  F
  F3       1.0000 0.59370  0.90000  0.29400  Biso   1.000  F
  F4       1.0000 0.09370  0.40000  0.29400  Biso   1.000  F
  F5       1.0000 0.59370  0.10000  0.79400  Biso   1.000  F
  F6       1.0000 0.09370  0.60000  0.79400  Biso   1.000  F
  F7       1.0000 0.40630  0.10000  0.70600  Biso   1.000  F
  F8       1.0000 0.90630  0.60000  0.70600  Biso   1.000  F
  F9       1.0000 0.34400  0.02400  0.19570  Biso   1.000  F
  F10      1.0000 0.84400  0.52400  0.19570  Biso   1.000  F
  F11      1.0000 0.65600  0.02400  0.30430  Biso   1.000  F
  F12      1.0000 0.15600  0.52400  0.30430  Biso   1.000  F
  F13      1.0000 0.65600  0.97600  0.80430  Biso   1.000  F
  F14      1.0000 0.15600  0.47600  0.80430  Biso   1.000  F
  F15      1.0000 0.34400  0.97600  0.69570  Biso   1.000  F
  F16      1.0000 0.84400  0.47600  0.69570  Biso   1.000  F
  F17      1.0000 0.39900  0.09510  0.18130  Biso   1.000  F
  F18      1.0000 0.89900  0.59510  0.18130  Biso   1.000  F
  F19      1.0000 0.60100  0.09510  0.31870  Biso   1.000  F
  F20      1.0000 0.10100  0.59510  0.31870  Biso   1.000  F
  F21      1.0000 0.60100  0.90490  0.81870  Biso   1.000  F
  F22      1.0000 0.10100  0.40490  0.81870  Biso   1.000  F
  F23      1.0000 0.39900  0.90490  0.68130  Biso   1.000  F
  F24      1.0000 0.89900  0.40490  0.68130  Biso   1.000  F
  F25      1.0000 0.41740  0.91500  0.19180  Biso   1.000  F
  F26      1.0000 0.91740  0.41500  0.19180  Biso   1.000  F
  F27      1.0000 0.58260  0.91500  0.30820  Biso   1.000  F
  F28      1.0000 0.08260  0.41500  0.30820  Biso   1.000  F
  F29      1.0000 0.58260  0.08500  0.80820  Biso   1.000  F
  F30      1.0000 0.08260  0.58500  0.80820  Biso   1.000  F
  F31      1.0000 0.41740  0.08500  0.69180  Biso   1.000  F
  F32      1.0000 0.91740  0.58500  0.69180  Biso   1.000  F
  F33      1.0000 0.35570  0.98200  0.20250  Biso   1.000  F
  F34      1.0000 0.85570  0.48200  0.20250  Biso   1.000  F
  F35      1.0000 0.64430  0.98200  0.29750  Biso   1.000  F
  F36      1.0000 0.14430  0.48200  0.29750  Biso   1.000  F
  F37      1.0000 0.64430  0.01800  0.79750  Biso   1.000  F
  F38      1.0000 0.14430  0.51800  0.79750  Biso   1.000  F
  F39      1.0000 0.35570  0.01800  0.70250  Biso   1.000  F
  F40      1.0000 0.85570  0.51800  0.70250  Biso   1.000  F
  F41      1.0000 0.39440  0.14080  0.17470  Biso   1.000  F
  F42      1.0000 0.89440  0.64080  0.17470  Biso   1.000  F
  F43      1.0000 0.60560  0.14080  0.32530  Biso   1.000  F
  F44      1.0000 0.10560  0.64080  0.32530  Biso   1.000  F
  F45      1.0000 0.60560  0.85920  0.82530  Biso   1.000  F
  F46      1.0000 0.10560  0.35920  0.82530  Biso   1.000  F
  F47      1.0000 0.39440  0.85920  0.67470  Biso   1.000  F
  F48      1.0000 0.89440  0.35920  0.67470  Biso   1.000  F
  C9       1.0000 0.33360  0.95510  0.09730  Biso   1.000  C
  C10      1.0000 0.83360  0.45510  0.09730  Biso   1.000  C
  C11      1.0000 0.66640  0.95510  0.40270  Biso   1.000  C
  C12      1.0000 0.16640  0.45510  0.40270  Biso   1.000  C
  C13      1.0000 0.66640  0.04490  0.90270  Biso   1.000  C
  C14      1.0000 0.16640  0.54490  0.90270  Biso   1.000  C
  C15      1.0000 0.33360  0.04490  0.59730  Biso   1.000  C
  C16      1.0000 0.83360  0.54490  0.59730  Biso   1.000  C
  C17      1.0000 0.32160  0.05710  0.05080  Biso   1.000  C
  C18      1.0000 0.82160  0.55710  0.05080  Biso   1.000  C
  C19      1.0000 0.67840  0.05710  0.44920  Biso   1.000  C
  C20      1.0000 0.17840  0.55710  0.44920  Biso   1.000  C
  C21      1.0000 0.67840  0.94290  0.94920  Biso   1.000  C
  C22      1.0000 0.17840  0.44290  0.94920  Biso   1.000  C
  C23      1.0000 0.32160  0.94290  0.55080  Biso   1.000  C
  C24      1.0000 0.82160  0.44290  0.55080  Biso   1.000  C
  H1       1.0000 0.33400  0.14600  0.06200  Biso   1.000  H
  H2       1.0000 0.83400  0.64600  0.06200  Biso   1.000  H
  H3       1.0000 0.66600  0.14600  0.43800  Biso   1.000  H
  H4       1.0000 0.16600  0.64600  0.43800  Biso   1.000  H
  H5       1.0000 0.66600  0.85400  0.93800  Biso   1.000  H
  H6       1.0000 0.16600  0.35400  0.93800  Biso   1.000  H
  H7       1.0000 0.33400  0.85400  0.56200  Biso   1.000  H
  H8       1.0000 0.83400  0.35400  0.56200  Biso   1.000  H
  C25      1.0000 0.28390  0.03680  0.98400  Biso   1.000  C
  C26      1.0000 0.78390  0.53680  0.98400  Biso   1.000  C
  C27      1.0000 0.71610  0.03680  0.51600  Biso   1.000  C
  C28      1.0000 0.21610  0.53680  0.51600  Biso   1.000  C
  C29      1.0000 0.71610  0.96320  0.01600  Biso   1.000  C
  C30      1.0000 0.21610  0.46320  0.01600  Biso   1.000  C
  C31      1.0000 0.28390  0.96320  0.48400  Biso   1.000  C
  C32      1.0000 0.78390  0.46320  0.48400  Biso   1.000  C
  C33      1.0000 0.27140  0.16400  0.93920  Biso   1.000  C
  C34      1.0000 0.77140  0.66400  0.93920  Biso   1.000  C
  C35      1.0000 0.72860  0.16400  0.56080  Biso   1.000  C
  C36      1.0000 0.22860  0.66400  0.56080  Biso   1.000  C
  C37      1.0000 0.72860  0.83600  0.06080  Biso   1.000  C
  C38      1.0000 0.22860  0.33600  0.06080  Biso   1.000  C
  C39      1.0000 0.27140  0.83600  0.43920  Biso   1.000  C
  C40      1.0000 0.77140  0.33600  0.43920  Biso   1.000  C
  F49      1.0000 0.28424  0.28700  0.97096  Biso   1.000  F
  F50      1.0000 0.78424  0.78700  0.97096  Biso   1.000  F
  F51      1.0000 0.71576  0.28700  0.52904  Biso   1.000  F
  F52      1.0000 0.21576  0.78700  0.52904  Biso   1.000  F
  F53      1.0000 0.71576  0.71300  0.02904  Biso   1.000  F
  F54      1.0000 0.21576  0.21300  0.02904  Biso   1.000  F
  F55      1.0000 0.28424  0.71300  0.47096  Biso   1.000  F
  F56      1.0000 0.78424  0.21300  0.47096  Biso   1.000  F
  F57      1.0000 0.21906  0.16970  0.89180  Biso   1.000  F
  F58      1.0000 0.71906  0.66970  0.89180  Biso   1.000  F
  F59      1.0000 0.78094  0.16970  0.60820  Biso   1.000  F
  F60      1.0000 0.28094  0.66970  0.60820  Biso   1.000  F
  F61      1.0000 0.78094  0.83030  0.10820  Biso   1.000  F
  F62      1.0000 0.28094  0.33030  0.10820  Biso   1.000  F
  F63      1.0000 0.21906  0.83030  0.39180  Biso   1.000  F
  F64      1.0000 0.71906  0.33030  0.39180  Biso   1.000  F
  F65      1.0000 0.29866  0.15610  0.91080  Biso   1.000  F
  F66      1.0000 0.79866  0.65610  0.91080  Biso   1.000  F
  F67      1.0000 0.70134  0.15610  0.58920  Biso   1.000  F
  F68      1.0000 0.20134  0.65610  0.58920  Biso   1.000  F
  F69      1.0000 0.70134  0.84390  0.08920  Biso   1.000  F
  F70      1.0000 0.20134  0.34390  0.08920  Biso   1.000  F
  F71      1.0000 0.29866  0.84390  0.41080  Biso   1.000  F
  F72      1.0000 0.79866  0.34390  0.41080  Biso   1.000  F
  O9       1.0000 0.25811  0.92780  0.95499  Biso   1.000  O
  O10      1.0000 0.75811  0.42780  0.95499  Biso   1.000  O
  O11      1.0000 0.74189  0.92780  0.54501  Biso   1.000  O
  O12      1.0000 0.24189  0.42780  0.54501  Biso   1.000  O
  O13      1.0000 0.74189  0.07220  0.04501  Biso   1.000  O
  O14      1.0000 0.24189  0.57220  0.04501  Biso   1.000  O
  O15      1.0000 0.25811  0.07220  0.45499  Biso   1.000  O
  O16      1.0000 0.75811  0.57220  0.45499  Biso   1.000  O
  O17      1.0000 0.04602  0.82360  0.00134  Biso   1.000  O
  O18      1.0000 0.54602  0.32360  0.00134  Biso   1.000  O
  O19      1.0000 0.95398  0.82360  0.49866  Biso   1.000  O
  O20      1.0000 0.45398  0.32360  0.49866  Biso   1.000  O
  O21      1.0000 0.95398  0.17640  0.99866  Biso   1.000  O
  O22      1.0000 0.45398  0.67640  0.99866  Biso   1.000  O
  O23      1.0000 0.04602  0.17640  0.50134  Biso   1.000  O
  O24      1.0000 0.54602  0.67640  0.50134  Biso   1.000  O
  C41      1.0000 0.08550  0.60290  0.01410  Biso   1.000  C
  C42      1.0000 0.58550  0.10290  0.01410  Biso   1.000  C
  C43      1.0000 0.91450  0.60290  0.48590  Biso   1.000  C
  C44      1.0000 0.41450  0.10290  0.48590  Biso   1.000  C
  C45      1.0000 0.91450  0.39710  0.98590  Biso   1.000  C
  C46      1.0000 0.41450  0.89710  0.98590  Biso   1.000  C
  C47      1.0000 0.08550  0.39710  0.51410  Biso   1.000  C
  C48      1.0000 0.58550  0.89710  0.51410  Biso   1.000  C
  F73      1.0000 0.12730  0.63720  0.02380  Biso   1.000  F
  F74      1.0000 0.62730  0.13720  0.02380  Biso   1.000  F
  F75      1.0000 0.87270  0.63720  0.47620  Biso   1.000  F
  F76      1.0000 0.37270  0.13720  0.47620  Biso   1.000  F
  F77      1.0000 0.87270  0.36280  0.97620  Biso   1.000  F
  F78      1.0000 0.37270  0.86280  0.97620  Biso   1.000  F
  F79      1.0000 0.12730  0.36280  0.52380  Biso   1.000  F
  F80      1.0000 0.62730  0.86280  0.52380  Biso   1.000  F
  F81      1.0000 0.08340  0.48600  0.03150  Biso   1.000  F
  F82      1.0000 0.58340  0.98600  0.03150  Biso   1.000  F
  F83      1.0000 0.91660  0.48600  0.46850  Biso   1.000  F
  F84      1.0000 0.41660  0.98600  0.46850  Biso   1.000  F
  F85      1.0000 0.91660  0.51400  0.96850  Biso   1.000  F
  F86      1.0000 0.41660  0.01400  0.96850  Biso   1.000  F
  F87      1.0000 0.08340  0.51400  0.53150  Biso   1.000  F
  F88      1.0000 0.58340  0.01400  0.53150  Biso   1.000  F
  F89      1.0000 0.07470  0.45500  0.01580  Biso   1.000  F
  F90      1.0000 0.57470  0.95500  0.01580  Biso   1.000  F
  F91      1.0000 0.92530  0.45500  0.48420  Biso   1.000  F
  F92      1.0000 0.42530  0.95500  0.48420  Biso   1.000  F
  F93      1.0000 0.92530  0.54500  0.98420  Biso   1.000  F
  F94      1.0000 0.42530  0.04500  0.98420  Biso   1.000  F
  F95      1.0000 0.07470  0.54500  0.51580  Biso   1.000  F
  F96      1.0000 0.57470  0.04500  0.51580  Biso   1.000  F
  F97      1.0000 0.14440  0.61320  0.07770  Biso   1.000  F
  F98      1.0000 0.64440  0.11320  0.07770  Biso   1.000  F
  F99      1.0000 0.85560  0.61320  0.42230  Biso   1.000  F
  F100     1.0000 0.35560  0.11320  0.42230  Biso   1.000  F
  F101     1.0000 0.85560  0.38680  0.92230  Biso   1.000  F
  F102     1.0000 0.35560  0.88680  0.92230  Biso   1.000  F
  F103     1.0000 0.14440  0.38680  0.57770  Biso   1.000  F
  F104     1.0000 0.64440  0.88680  0.57770  Biso   1.000  F
  F105     1.0000 0.09520  0.63810  0.97770  Biso   1.000  F
  F106     1.0000 0.59520  0.13810  0.97770  Biso   1.000  F
  F107     1.0000 0.90480  0.63810  0.52230  Biso   1.000  F
  F108     1.0000 0.40480  0.13810  0.52230  Biso   1.000  F
  F109     1.0000 0.90480  0.36190  0.02230  Biso   1.000  F
  F110     1.0000 0.40480  0.86190  0.02230  Biso   1.000  F
  F111     1.0000 0.09520  0.36190  0.47770  Biso   1.000  F
  F112     1.0000 0.59520  0.86190  0.47770  Biso   1.000  F
  F113     1.0000 0.05130  0.59540  0.93920  Biso   1.000  F
  F114     1.0000 0.55130  0.09540  0.93920  Biso   1.000  F
  F115     1.0000 0.94870  0.59540  0.56080  Biso   1.000  F
  F116     1.0000 0.44870  0.09540  0.56080  Biso   1.000  F
  F117     1.0000 0.94870  0.40460  0.06080  Biso   1.000  F
  F118     1.0000 0.44870  0.90460  0.06080  Biso   1.000  F
  F119     1.0000 0.05130  0.40460  0.43920  Biso   1.000  F
  F120     1.0000 0.55130  0.90460  0.43920  Biso   1.000  F
  C49      1.0000 0.05520  0.70970  0.03080  Biso   1.000  C
  C50      1.0000 0.55520  0.20970  0.03080  Biso   1.000  C
  C51      1.0000 0.94480  0.70970  0.46920  Biso   1.000  C
  C52      1.0000 0.44480  0.20970  0.46920  Biso   1.000  C
  C53      1.0000 0.94480  0.29030  0.96920  Biso   1.000  C
  C54      1.0000 0.44480  0.79030  0.96920  Biso   1.000  C
  C55      1.0000 0.05520  0.29030  0.53080  Biso   1.000  C
  C56      1.0000 0.55520  0.79030  0.53080  Biso   1.000  C
  C57      1.0000 0.04370  0.67220  0.07530  Biso   1.000  C
  C58      1.0000 0.54370  0.17220  0.07530  Biso   1.000  C
  C59      1.0000 0.95630  0.67220  0.42470  Biso   1.000  C
  C60      1.0000 0.45630  0.17220  0.42470  Biso   1.000  C
  C61      1.0000 0.95630  0.32780  0.92470  Biso   1.000  C
  C62      1.0000 0.45630  0.82780  0.92470  Biso   1.000  C
  C63      1.0000 0.04370  0.32780  0.57530  Biso   1.000  C
  C64      1.0000 0.54370  0.82780  0.57530  Biso   1.000  C
  H9       1.0000 0.04600  0.58600  0.08400  Biso   1.000  H
  H10      1.0000 0.54600  0.08600  0.08400  Biso   1.000  H
  H11      1.0000 0.95400  0.58600  0.41600  Biso   1.000  H
  H12      1.0000 0.45400  0.08600  0.41600  Biso   1.000  H
  H13      1.0000 0.95400  0.41400  0.91600  Biso   1.000  H
  H14      1.0000 0.45400  0.91400  0.91600  Biso   1.000  H
  H15      1.0000 0.04600  0.41400  0.58400  Biso   1.000  H
  H16      1.0000 0.54600  0.91400  0.58400  Biso   1.000  H
  C65      1.0000 0.01820  0.76120  0.09480  Biso   1.000  C
  C66      1.0000 0.51820  0.26120  0.09480  Biso   1.000  C
  C67      1.0000 0.98180  0.76120  0.40520  Biso   1.000  C
  C68      1.0000 0.48180  0.26120  0.40520  Biso   1.000  C
  C69      1.0000 0.98180  0.23880  0.90520  Biso   1.000  C
  C70      1.0000 0.48180  0.73880  0.90520  Biso   1.000  C
  C71      1.0000 0.01820  0.23880  0.59480  Biso   1.000  C
  C72      1.0000 0.51820  0.73880  0.59480  Biso   1.000  C
  C73      1.0000 0.00440  0.70730  0.14220  Biso   1.000  C
  C74      1.0000 0.50440  0.20730  0.14220  Biso   1.000  C
  C75      1.0000 0.99560  0.70730  0.35780  Biso   1.000  C
  C76      1.0000 0.49560  0.20730  0.35780  Biso   1.000  C
  C77      1.0000 0.99560  0.29270  0.85780  Biso   1.000  C
  C78      1.0000 0.49560  0.79270  0.85780  Biso   1.000  C
  C79      1.0000 0.00440  0.29270  0.64220  Biso   1.000  C
  C80      1.0000 0.50440  0.79270  0.64220  Biso   1.000  C
  F121     1.0000 0.95075  0.70930  0.11280  Biso   1.000  F
  F122     1.0000 0.45075  0.20930  0.11280  Biso   1.000  F
  F123     1.0000 0.04925  0.70930  0.38720  Biso   1.000  F
  F124     1.0000 0.54925  0.20930  0.38720  Biso   1.000  F
  F125     1.0000 0.04925  0.29070  0.88720  Biso   1.000  F
  F126     1.0000 0.54925  0.79070  0.88720  Biso   1.000  F
  F127     1.0000 0.95075  0.29070  0.61280  Biso   1.000  F
  F128     1.0000 0.45075  0.79070  0.61280  Biso   1.000  F
  F129     1.0000 0.02080  0.57590  0.16260  Biso   1.000  F
  F130     1.0000 0.52080  0.07590  0.16260  Biso   1.000  F
  F131     1.0000 0.97920  0.57590  0.33740  Biso   1.000  F
  F132     1.0000 0.47920  0.07590  0.33740  Biso   1.000  F
  F133     1.0000 0.97920  0.42410  0.83740  Biso   1.000  F
  F134     1.0000 0.47920  0.92410  0.83740  Biso   1.000  F
  F135     1.0000 0.02080  0.42410  0.66260  Biso   1.000  F
  F136     1.0000 0.52080  0.92410  0.66260  Biso   1.000  F
  F137     1.0000 0.02572  0.78940  0.19460  Biso   1.000  F
  F138     1.0000 0.52572  0.28940  0.19460  Biso   1.000  F
  F139     1.0000 0.97428  0.78940  0.30540  Biso   1.000  F
  F140     1.0000 0.47428  0.28940  0.30540  Biso   1.000  F
  F141     1.0000 0.97428  0.21060  0.80540  Biso   1.000  F
  F142     1.0000 0.47428  0.71060  0.80540  Biso   1.000  F
  F143     1.0000 0.02572  0.21060  0.69460  Biso   1.000  F
  F144     1.0000 0.52572  0.71060  0.69460  Biso   1.000  F
  O25      1.0000 0.00485  0.88720  0.07825  Biso   1.000  O
  O26      1.0000 0.50485  0.38720  0.07825  Biso   1.000  O
  O27      1.0000 0.99515  0.88720  0.42175  Biso   1.000  O
  O28      1.0000 0.49515  0.38720  0.42175  Biso   1.000  O
  O29      1.0000 0.99515  0.11280  0.92175  Biso   1.000  O
  O30      1.0000 0.49515  0.61280  0.92175  Biso   1.000  O
  O31      1.0000 0.00485  0.11280  0.57825  Biso   1.000  O
  O32      1.0000 0.50485  0.61280  0.57825  Biso   1.000  O
  O33      1.0000 0.06993  0.12860  0.05878  Biso   1.000  O
  O34      1.0000 0.56993  0.62860  0.05878  Biso   1.000  O
  O35      1.0000 0.93007  0.12860  0.44122  Biso   1.000  O
  O36      1.0000 0.43007  0.62860  0.44122  Biso   1.000  O
  O37      1.0000 0.93007  0.87140  0.94122  Biso   1.000  O
  O38      1.0000 0.43007  0.37140  0.94122  Biso   1.000  O
  O39      1.0000 0.06993  0.87140  0.55878  Biso   1.000  O
  O40      1.0000 0.56993  0.37140  0.55878  Biso   1.000  O
  N1       1.0000 0.11382  0.09210  0.11470  Biso   1.000  N
  N2       1.0000 0.61382  0.59210  0.11470  Biso   1.000  N
  N3       1.0000 0.88618  0.09210  0.38530  Biso   1.000  N
  N4       1.0000 0.38618  0.59210  0.38530  Biso   1.000  N
  N5       1.0000 0.88618  0.90790  0.88530  Biso   1.000  N
  N6       1.0000 0.38618  0.40790  0.88530  Biso   1.000  N
  N7       1.0000 0.11382  0.90790  0.61470  Biso   1.000  N
  N8       1.0000 0.61382  0.40790  0.61470  Biso   1.000  N
  C81      1.0000 0.12630  0.15210  0.17760  Biso   1.000  C
  C82      1.0000 0.62630  0.65210  0.17760  Biso   1.000  C
  C83      1.0000 0.87370  0.15210  0.32240  Biso   1.000  C
  C84      1.0000 0.37370  0.65210  0.32240  Biso   1.000  C
  C85      1.0000 0.87370  0.84790  0.82240  Biso   1.000  C
  C86      1.0000 0.37370  0.34790  0.82240  Biso   1.000  C
  C87      1.0000 0.12630  0.84790  0.67760  Biso   1.000  C
  C88      1.0000 0.62630  0.34790  0.67760  Biso   1.000  C
  C89      1.0000 0.14480  0.30290  0.17990  Biso   1.000  C
  C90      1.0000 0.64480  0.80290  0.17990  Biso   1.000  C
  C91      1.0000 0.85520  0.30290  0.32010  Biso   1.000  C
  C92      1.0000 0.35520  0.80290  0.32010  Biso   1.000  C
  C93      1.0000 0.85520  0.69710  0.82010  Biso   1.000  C
  C94      1.0000 0.35520  0.19710  0.82010  Biso   1.000  C
  C95      1.0000 0.14480  0.69710  0.67990  Biso   1.000  C
  C96      1.0000 0.64480  0.19710  0.67990  Biso   1.000  C
  H17      1.0000 0.11900  0.35000  0.14900  Biso   1.000  H
  H18      1.0000 0.61900  0.85000  0.14900  Biso   1.000  H
  H19      1.0000 0.88100  0.35000  0.35100  Biso   1.000  H
  H20      1.0000 0.38100  0.85000  0.35100  Biso   1.000  H
  H21      1.0000 0.88100  0.65000  0.85100  Biso   1.000  H
  H22      1.0000 0.38100  0.15000  0.85100  Biso   1.000  H
  H23      1.0000 0.11900  0.65000  0.64900  Biso   1.000  H
  H24      1.0000 0.61900  0.15000  0.64900  Biso   1.000  H
  H25      1.0000 0.17800  0.30400  0.18000  Biso   1.000  H
  H26      1.0000 0.67800  0.80400  0.18000  Biso   1.000  H
  H27      1.0000 0.82200  0.30400  0.32000  Biso   1.000  H
  H28      1.0000 0.32200  0.80400  0.32000  Biso   1.000  H
  H29      1.0000 0.82200  0.69600  0.82000  Biso   1.000  H
  H30      1.0000 0.32200  0.19600  0.82000  Biso   1.000  H
  H31      1.0000 0.17800  0.69600  0.68000  Biso   1.000  H
  H32      1.0000 0.67800  0.19600  0.68000  Biso   1.000  H
  H33      1.0000 0.14800  0.33500  0.21000  Biso   1.000  H
  H34      1.0000 0.64800  0.83500  0.21000  Biso   1.000  H
  H35      1.0000 0.85200  0.33500  0.29000  Biso   1.000  H
  H36      1.0000 0.35200  0.83500  0.29000  Biso   1.000  H
  H37      1.0000 0.85200  0.66500  0.79000  Biso   1.000  H
  H38      1.0000 0.35200  0.16500  0.79000  Biso   1.000  H
  H39      1.0000 0.14800  0.66500  0.71000  Biso   1.000  H
  H40      1.0000 0.64800  0.16500  0.71000  Biso   1.000  H
  C97      1.0000 0.07730  0.14900  0.18050  Biso   1.000  C
  C98      1.0000 0.57730  0.64900  0.18050  Biso   1.000  C
  C99      1.0000 0.92270  0.14900  0.31950  Biso   1.000  C
  C100     1.0000 0.42270  0.64900  0.31950  Biso   1.000  C
  C101     1.0000 0.92270  0.85100  0.81950  Biso   1.000  C
  C102     1.0000 0.42270  0.35100  0.81950  Biso   1.000  C
  C103     1.0000 0.07730  0.85100  0.68050  Biso   1.000  C
  C104     1.0000 0.57730  0.35100  0.68050  Biso   1.000  C
  H41      1.0000 0.05200  0.20300  0.14900  Biso   1.000  H
  H42      1.0000 0.55200  0.70300  0.14900  Biso   1.000  H
  H43      1.0000 0.94800  0.20300  0.35100  Biso   1.000  H
  H44      1.0000 0.44800  0.70300  0.35100  Biso   1.000  H
  H45      1.0000 0.94800  0.79700  0.85100  Biso   1.000  H
  H46      1.0000 0.44800  0.29700  0.85100  Biso   1.000  H
  H47      1.0000 0.05200  0.79700  0.64900  Biso   1.000  H
  H48      1.0000 0.55200  0.29700  0.64900  Biso   1.000  H
  H49      1.0000 0.09200  0.19300  0.22300  Biso   1.000  H
  H50      1.0000 0.59200  0.69300  0.22300  Biso   1.000  H
  H51      1.0000 0.90800  0.19300  0.27700  Biso   1.000  H
  H52      1.0000 0.40800  0.69300  0.27700  Biso   1.000  H
  H53      1.0000 0.90800  0.80700  0.77700  Biso   1.000  H
  H54      1.0000 0.40800  0.30700  0.77700  Biso   1.000  H
  H55      1.0000 0.09200  0.80700  0.72300  Biso   1.000  H
  H56      1.0000 0.59200  0.30700  0.72300  Biso   1.000  H
  H57      1.0000 0.06600  0.06400  0.17200  Biso   1.000  H
  H58      1.0000 0.56600  0.56400  0.17200  Biso   1.000  H
  H59      1.0000 0.93400  0.06400  0.32800  Biso   1.000  H
  H60      1.0000 0.43400  0.56400  0.32800  Biso   1.000  H
  H61      1.0000 0.93400  0.93600  0.82800  Biso   1.000  H
  H62      1.0000 0.43400  0.43600  0.82800  Biso   1.000  H
  H63      1.0000 0.06600  0.93600  0.67200  Biso   1.000  H
  H64      1.0000 0.56600  0.43600  0.67200  Biso   1.000  H
  C105     1.0000 0.17260  0.05080  0.22580  Biso   1.000  C
  C106     1.0000 0.67260  0.55080  0.22580  Biso   1.000  C
  C107     1.0000 0.82740  0.05080  0.27420  Biso   1.000  C
  C108     1.0000 0.32740  0.55080  0.27420  Biso   1.000  C
  C109     1.0000 0.82740  0.94920  0.77420  Biso   1.000  C
  C110     1.0000 0.32740  0.44920  0.77420  Biso   1.000  C
  C111     1.0000 0.17260  0.94920  0.72580  Biso   1.000  C
  C112     1.0000 0.67260  0.44920  0.72580  Biso   1.000  C
  C113     1.0000 0.21790  0.11730  0.29050  Biso   1.000  C
  C114     1.0000 0.71790  0.61730  0.29050  Biso   1.000  C
  C115     1.0000 0.78210  0.11730  0.20950  Biso   1.000  C
  C116     1.0000 0.28210  0.61730  0.20950  Biso   1.000  C
  C117     1.0000 0.78210  0.88270  0.70950  Biso   1.000  C
  C118     1.0000 0.28210  0.38270  0.70950  Biso   1.000  C
  C119     1.0000 0.21790  0.88270  0.79050  Biso   1.000  C
  C120     1.0000 0.71790  0.38270  0.79050  Biso   1.000  C
  H65      1.0000 0.23400  0.21200  0.27900  Biso   1.000  H
  H66      1.0000 0.73400  0.71200  0.27900  Biso   1.000  H
  H67      1.0000 0.76600  0.21200  0.22100  Biso   1.000  H
  H68      1.0000 0.26600  0.71200  0.22100  Biso   1.000  H
  H69      1.0000 0.76600  0.78800  0.72100  Biso   1.000  H
  H70      1.0000 0.26600  0.28800  0.72100  Biso   1.000  H
  H71      1.0000 0.23400  0.78800  0.77900  Biso   1.000  H
  H72      1.0000 0.73400  0.28800  0.77900  Biso   1.000  H
  H73      1.0000 0.24700  0.04000  0.31700  Biso   1.000  H
  H74      1.0000 0.74700  0.54000  0.31700  Biso   1.000  H
  H75      1.0000 0.75300  0.04000  0.18300  Biso   1.000  H
  H76      1.0000 0.25300  0.54000  0.18300  Biso   1.000  H
  H77      1.0000 0.75300  0.96000  0.68300  Biso   1.000  H
  H78      1.0000 0.25300  0.46000  0.68300  Biso   1.000  H
  H79      1.0000 0.24700  0.96000  0.81700  Biso   1.000  H
  H80      1.0000 0.74700  0.46000  0.81700  Biso   1.000  H
  H81      1.0000 0.18400  0.12500  0.30800  Biso   1.000  H
  H82      1.0000 0.68400  0.62500  0.30800  Biso   1.000  H
  H83      1.0000 0.81600  0.12500  0.19200  Biso   1.000  H
  H84      1.0000 0.31600  0.62500  0.19200  Biso   1.000  H
  H85      1.0000 0.81600  0.87500  0.69200  Biso   1.000  H
  H86      1.0000 0.31600  0.37500  0.69200  Biso   1.000  H
  H87      1.0000 0.18400  0.87500  0.80800  Biso   1.000  H
  H88      1.0000 0.68400  0.37500  0.80800  Biso   1.000  H
  C121     1.0000 0.15270  0.91420  0.23790  Biso   1.000  C
  C122     1.0000 0.65270  0.41420  0.23790  Biso   1.000  C
  C123     1.0000 0.84730  0.91420  0.26210  Biso   1.000  C
  C124     1.0000 0.34730  0.41420  0.26210  Biso   1.000  C
  C125     1.0000 0.84730  0.08580  0.76210  Biso   1.000  C
  C126     1.0000 0.34730  0.58580  0.76210  Biso   1.000  C
  C127     1.0000 0.15270  0.08580  0.73790  Biso   1.000  C
  C128     1.0000 0.65270  0.58580  0.73790  Biso   1.000  C
  H89      1.0000 0.17300  0.86300  0.25100  Biso   1.000  H
  H90      1.0000 0.67300  0.36300  0.25100  Biso   1.000  H
  H91      1.0000 0.82700  0.86300  0.24900  Biso   1.000  H
  H92      1.0000 0.32700  0.36300  0.24900  Biso   1.000  H
  H93      1.0000 0.82700  0.13700  0.74900  Biso   1.000  H
  H94      1.0000 0.32700  0.63700  0.74900  Biso   1.000  H
  H95      1.0000 0.17300  0.13700  0.75100  Biso   1.000  H
  H96      1.0000 0.67300  0.63700  0.75100  Biso   1.000  H
  H97      1.0000 0.11800  0.87100  0.19400  Biso   1.000  H
  H98      1.0000 0.61800  0.37100  0.19400  Biso   1.000  H
  H99      1.0000 0.88200  0.87100  0.30600  Biso   1.000  H
  H100     1.0000 0.38200  0.37100  0.30600  Biso   1.000  H
  H101     1.0000 0.88200  0.12900  0.80600  Biso   1.000  H
  H102     1.0000 0.38200  0.62900  0.80600  Biso   1.000  H
  H103     1.0000 0.11800  0.12900  0.69400  Biso   1.000  H
  H104     1.0000 0.61800  0.62900  0.69400  Biso   1.000  H
  H105     1.0000 0.13800  0.93500  0.26700  Biso   1.000  H
  H106     1.0000 0.63800  0.43500  0.26700  Biso   1.000  H
  H107     1.0000 0.86200  0.93500  0.23300  Biso   1.000  H
  H108     1.0000 0.36200  0.43500  0.23300  Biso   1.000  H
  H109     1.0000 0.86200  0.06500  0.73300  Biso   1.000  H
  H110     1.0000 0.36200  0.56500  0.73300  Biso   1.000  H
  H111     1.0000 0.13800  0.06500  0.76700  Biso   1.000  H
  H112     1.0000 0.63800  0.56500  0.76700  Biso   1.000  H
  N9       1.0000 0.19461  0.01190  0.18590  Biso   1.000  N
  N10      1.0000 0.69461  0.51190  0.18590  Biso   1.000  N
  N11      1.0000 0.80539  0.01190  0.31410  Biso   1.000  N
  N12      1.0000 0.30539  0.51190  0.31410  Biso   1.000  N
  N13      1.0000 0.80539  0.98810  0.81410  Biso   1.000  N
  N14      1.0000 0.30539  0.48810  0.81410  Biso   1.000  N
  N15      1.0000 0.19461  0.98810  0.68590  Biso   1.000  N
  N16      1.0000 0.69461  0.48810  0.68590  Biso   1.000  N
  O41      1.0000 0.24044  0.95580  0.20996  Biso   1.000  O
  O42      1.0000 0.74044  0.45580  0.20996  Biso   1.000  O
  O43      1.0000 0.75956  0.95580  0.29004  Biso   1.000  O
  O44      1.0000 0.25956  0.45580  0.29004  Biso   1.000  O
  O45      1.0000 0.75956  0.04420  0.79004  Biso   1.000  O
  O46      1.0000 0.25956  0.54420  0.79004  Biso   1.000  O
  O47      1.0000 0.24044  0.04420  0.70996  Biso   1.000  O
  O48      1.0000 0.74044  0.54420  0.70996  Biso   1.000  O
  C129     1.0000 0.15640  0.02790  0.12080  Biso   1.000  C
  C130     1.0000 0.65640  0.52790  0.12080  Biso   1.000  C
  C131     1.0000 0.84360  0.02790  0.37920  Biso   1.000  C
  C132     1.0000 0.34360  0.52790  0.37920  Biso   1.000  C
  C133     1.0000 0.84360  0.97210  0.87920  Biso   1.000  C
  C134     1.0000 0.34360  0.47210  0.87920  Biso   1.000  C
  C135     1.0000 0.15640  0.97210  0.62080  Biso   1.000  C
  C136     1.0000 0.65640  0.47210  0.62080  Biso   1.000  C
  C137     1.0000 0.16160  0.98300  0.06940  Biso   1.000  C
  C138     1.0000 0.66160  0.48300  0.06940  Biso   1.000  C
  C139     1.0000 0.83840  0.98300  0.43060  Biso   1.000  C
  C140     1.0000 0.33840  0.48300  0.43060  Biso   1.000  C
  C141     1.0000 0.83840  0.01700  0.93060  Biso   1.000  C
  C142     1.0000 0.33840  0.51700  0.93060  Biso   1.000  C
  C143     1.0000 0.16160  0.01700  0.56940  Biso   1.000  C
  C144     1.0000 0.66160  0.51700  0.56940  Biso   1.000  C
  C145     1.0000 0.20240  0.90350  0.07320  Biso   1.000  C
  C146     1.0000 0.70240  0.40350  0.07320  Biso   1.000  C
  C147     1.0000 0.79760  0.90350  0.42680  Biso   1.000  C
  C148     1.0000 0.29760  0.40350  0.42680  Biso   1.000  C
  C149     1.0000 0.79760  0.09650  0.92680  Biso   1.000  C
  C150     1.0000 0.29760  0.59650  0.92680  Biso   1.000  C
  C151     1.0000 0.20240  0.09650  0.57320  Biso   1.000  C
  C152     1.0000 0.70240  0.59650  0.57320  Biso   1.000  C
  H113     1.0000 0.22500  0.86800  0.10100  Biso   1.000  H
  H114     1.0000 0.72500  0.36800  0.10100  Biso   1.000  H
  H115     1.0000 0.77500  0.86800  0.39900  Biso   1.000  H
  H116     1.0000 0.27500  0.36800  0.39900  Biso   1.000  H
  H117     1.0000 0.77500  0.13200  0.89900  Biso   1.000  H
  H118     1.0000 0.27500  0.63200  0.89900  Biso   1.000  H
  H119     1.0000 0.22500  0.13200  0.60100  Biso   1.000  H
  H120     1.0000 0.72500  0.63200  0.60100  Biso   1.000  H
  N17      1.0000 0.19424  0.88390  0.01570  Biso   1.000  N
  N18      1.0000 0.69424  0.38390  0.01570  Biso   1.000  N
  N19      1.0000 0.80576  0.88390  0.48430  Biso   1.000  N
  N20      1.0000 0.30576  0.38390  0.48430  Biso   1.000  N
  N21      1.0000 0.80576  0.11610  0.98430  Biso   1.000  N
  N22      1.0000 0.30576  0.61610  0.98430  Biso   1.000  N
  N23      1.0000 0.19424  0.11610  0.51570  Biso   1.000  N
  N24      1.0000 0.69424  0.61610  0.51570  Biso   1.000  N
  N25      1.0000 0.14720  0.95590  0.97320  Biso   1.000  N
  N26      1.0000 0.64720  0.45590  0.97320  Biso   1.000  N
  N27      1.0000 0.85280  0.95590  0.52680  Biso   1.000  N
  N28      1.0000 0.35280  0.45590  0.52680  Biso   1.000  N
  N29      1.0000 0.85280  0.04410  0.02680  Biso   1.000  N
  N30      1.0000 0.35280  0.54410  0.02680  Biso   1.000  N
  N31      1.0000 0.14720  0.04410  0.47320  Biso   1.000  N
  N32      1.0000 0.64720  0.54410  0.47320  Biso   1.000  N
  C153     1.0000 0.12510  0.96330  0.90300  Biso   1.000  C
  C154     1.0000 0.62510  0.46330  0.90300  Biso   1.000  C
  C155     1.0000 0.87490  0.96330  0.59700  Biso   1.000  C
  C156     1.0000 0.37490  0.46330  0.59700  Biso   1.000  C
  C157     1.0000 0.87490  0.03670  0.09700  Biso   1.000  C
  C158     1.0000 0.37490  0.53670  0.09700  Biso   1.000  C
  C159     1.0000 0.12510  0.03670  0.40300  Biso   1.000  C
  C160     1.0000 0.62510  0.53670  0.40300  Biso   1.000  C
  H121     1.0000 0.15000  0.92100  0.89400  Biso   1.000  H
  H122     1.0000 0.65000  0.42100  0.89400  Biso   1.000  H
  H123     1.0000 0.85000  0.92100  0.60600  Biso   1.000  H
  H124     1.0000 0.35000  0.42100  0.60600  Biso   1.000  H
  H125     1.0000 0.85000  0.07900  0.10600  Biso   1.000  H
  H126     1.0000 0.35000  0.57900  0.10600  Biso   1.000  H
  H127     1.0000 0.15000  0.07900  0.39400  Biso   1.000  H
  H128     1.0000 0.65000  0.57900  0.39400  Biso   1.000  H
  H129     1.0000 0.12200  0.06400  0.89200  Biso   1.000  H
  H130     1.0000 0.62200  0.56400  0.89200  Biso   1.000  H
  H131     1.0000 0.87800  0.06400  0.60800  Biso   1.000  H
  H132     1.0000 0.37800  0.56400  0.60800  Biso   1.000  H
  H133     1.0000 0.87800  0.93600  0.10800  Biso   1.000  H
  H134     1.0000 0.37800  0.43600  0.10800  Biso   1.000  H
  H135     1.0000 0.12200  0.93600  0.39200  Biso   1.000  H
  H136     1.0000 0.62200  0.43600  0.39200  Biso   1.000  H
  C161     1.0000 0.06960  0.89580  0.86250  Biso   1.000  C
  C162     1.0000 0.56960  0.39580  0.86250  Biso   1.000  C
  C163     1.0000 0.93040  0.89580  0.63750  Biso   1.000  C
  C164     1.0000 0.43040  0.39580  0.63750  Biso   1.000  C
  C165     1.0000 0.93040  0.10420  0.13750  Biso   1.000  C
  C166     1.0000 0.43040  0.60420  0.13750  Biso   1.000  C
  C167     1.0000 0.06960  0.10420  0.36250  Biso   1.000  C
  C168     1.0000 0.56960  0.60420  0.36250  Biso   1.000  C
  H137     1.0000 0.05200  0.91500  0.81500  Biso   1.000  H
  H138     1.0000 0.55200  0.41500  0.81500  Biso   1.000  H
  H139     1.0000 0.94800  0.91500  0.68500  Biso   1.000  H
  H140     1.0000 0.44800  0.41500  0.68500  Biso   1.000  H
  H141     1.0000 0.94800  0.08500  0.18500  Biso   1.000  H
  H142     1.0000 0.44800  0.58500  0.18500  Biso   1.000  H
  H143     1.0000 0.05200  0.08500  0.31500  Biso   1.000  H
  H144     1.0000 0.55200  0.58500  0.31500  Biso   1.000  H
  H145     1.0000 0.04300  0.93700  0.86600  Biso   1.000  H
  H146     1.0000 0.54300  0.43700  0.86600  Biso   1.000  H
  H147     1.0000 0.95700  0.93700  0.63400  Biso   1.000  H
  H148     1.0000 0.45700  0.43700  0.63400  Biso   1.000  H
  H149     1.0000 0.95700  0.06300  0.13400  Biso   1.000  H
  H150     1.0000 0.45700  0.56300  0.13400  Biso   1.000  H
  H151     1.0000 0.04300  0.06300  0.36600  Biso   1.000  H
  H152     1.0000 0.54300  0.56300  0.36600  Biso   1.000  H
  H153     1.0000 0.07400  0.77600  0.87500  Biso   1.000  H
  H154     1.0000 0.57400  0.27600  0.87500  Biso   1.000  H
  H155     1.0000 0.92600  0.77600  0.62500  Biso   1.000  H
  H156     1.0000 0.42600  0.27600  0.62500  Biso   1.000  H
  H157     1.0000 0.92600  0.22400  0.12500  Biso   1.000  H
  H158     1.0000 0.42600  0.72400  0.12500  Biso   1.000  H
  H159     1.0000 0.07400  0.22400  0.37500  Biso   1.000  H
  H160     1.0000 0.57400  0.72400  0.37500  Biso   1.000  H
  C169     1.0000 0.12700  0.01520  0.00340  Biso   1.000  C
  C170     1.0000 0.62700  0.51520  0.00340  Biso   1.000  C
  C171     1.0000 0.87300  0.01520  0.49660  Biso   1.000  C
  C172     1.0000 0.37300  0.51520  0.49660  Biso   1.000  C
  C173     1.0000 0.87300  0.98480  0.99660  Biso   1.000  C
  C174     1.0000 0.37300  0.48480  0.99660  Biso   1.000  C
  C175     1.0000 0.12700  0.98480  0.50340  Biso   1.000  C
  C176     1.0000 0.62700  0.48480  0.50340  Biso   1.000  C
  H161     1.0000 0.10100  0.06100  0.98700  Biso   1.000  H
  H162     1.0000 0.60100  0.56100  0.98700  Biso   1.000  H
  H163     1.0000 0.89900  0.06100  0.51300  Biso   1.000  H
  H164     1.0000 0.39900  0.56100  0.51300  Biso   1.000  H
  H165     1.0000 0.89900  0.93900  0.01300  Biso   1.000  H
  H166     1.0000 0.39900  0.43900  0.01300  Biso   1.000  H
  H167     1.0000 0.10100  0.93900  0.48700  Biso   1.000  H
  H168     1.0000 0.60100  0.43900  0.48700  Biso   1.000  H
