data_image0
_cell_length_a       30.242
_cell_length_b       9.5761
_cell_length_c       24.978
_cell_angle_alpha    90
_cell_angle_beta     123.152
_cell_angle_gamma    90

_symmetry_space_group_name_H-M    "P 1"
_symmetry_int_tables_number       1

loop_
  _symmetry_equiv_pos_as_xyz
  'x, y, z'

loop_
  _atom_site_label
  _atom_site_occupancy
  _atom_site_fract_x
  _atom_site_fract_y
  _atom_site_fract_z
  _atom_site_thermal_displace_type
  _atom_site_B_iso_or_equiv
  _atom_site_type_symbol
  Cu1      1.0000 0.00000  0.00000  0.00000  Biso   1.000  Cu
  Cu2      1.0000 0.50000  0.50000  0.00000  Biso   1.000  Cu
  Cu3      1.0000 0.00000  0.00000  0.50000  Biso   1.000  Cu
  Cu4      1.0000 0.50000  0.50000  0.50000  Biso   1.000  Cu
  O1       1.0000 0.99547  0.09730  0.92472  Biso   1.000  O
  O2       1.0000 0.49547  0.59730  0.92472  Biso   1.000  O
  O3       1.0000 0.00453  0.09730  0.57528  Biso   1.000  O
  O4       1.0000 0.50453  0.59730  0.57528  Biso   1.000  O
  O5       1.0000 0.00453  0.90270  0.07528  Biso   1.000  O
  O6       1.0000 0.50453  0.40270  0.07528  Biso   1.000  O
  O7       1.0000 0.99547  0.90270  0.42472  Biso   1.000  O
  O8       1.0000 0.49547  0.40270  0.42472  Biso   1.000  O
  C1       1.0000 0.98900  0.27550  0.85670  Biso   1.000  C
  C2       1.0000 0.48900  0.77550  0.85670  Biso   1.000  C
  C3       1.0000 0.01100  0.27550  0.64330  Biso   1.000  C
  C4       1.0000 0.51100  0.77550  0.64330  Biso   1.000  C
  C5       1.0000 0.01100  0.72450  0.14330  Biso   1.000  C
  C6       1.0000 0.51100  0.22450  0.14330  Biso   1.000  C
  C7       1.0000 0.98900  0.72450  0.35670  Biso   1.000  C
  C8       1.0000 0.48900  0.22450  0.35670  Biso   1.000  C
  F1       1.0000 0.96060  0.39000  0.82780  Biso   1.000  F
  F2       1.0000 0.46060  0.89000  0.82780  Biso   1.000  F
  F3       1.0000 0.03940  0.39000  0.67220  Biso   1.000  F
  F4       1.0000 0.53940  0.89000  0.67220  Biso   1.000  F
  F5       1.0000 0.03940  0.61000  0.17220  Biso   1.000  F
  F6       1.0000 0.53940  0.11000  0.17220  Biso   1.000  F
  F7       1.0000 0.96060  0.61000  0.32780  Biso   1.000  F
  F8       1.0000 0.46060  0.11000  0.32780  Biso   1.000  F
  F9       1.0000 0.97450  0.20900  0.81330  Biso   1.000  F
  F10      1.0000 0.47450  0.70900  0.81330  Biso   1.000  F
  F11      1.0000 0.02550  0.20900  0.68670  Biso   1.000  F
  F12      1.0000 0.52550  0.70900  0.68670  Biso   1.000  F
  F13      1.0000 0.02550  0.79100  0.18670  Biso   1.000  F
  F14      1.0000 0.52550  0.29100  0.18670  Biso   1.000  F
  F15      1.0000 0.97450  0.79100  0.31330  Biso   1.000  F
  F16      1.0000 0.47450  0.29100  0.31330  Biso   1.000  F
  F17      1.0000 0.03500  0.31000  0.88030  Biso   1.000  F
  F18      1.0000 0.53500  0.81000  0.88030  Biso   1.000  F
  F19      1.0000 0.96500  0.31000  0.61970  Biso   1.000  F
  F20      1.0000 0.46500  0.81000  0.61970  Biso   1.000  F
  F21      1.0000 0.96500  0.69000  0.11970  Biso   1.000  F
  F22      1.0000 0.46500  0.19000  0.11970  Biso   1.000  F
  F23      1.0000 0.03500  0.69000  0.38030  Biso   1.000  F
  F24      1.0000 0.53500  0.19000  0.38030  Biso   1.000  F
  F25      1.0000 0.96900  0.17400  0.80550  Biso   1.000  F
  F26      1.0000 0.46900  0.67400  0.80550  Biso   1.000  F
  F27      1.0000 0.03100  0.17400  0.69450  Biso   1.000  F
  F28      1.0000 0.53100  0.67400  0.69450  Biso   1.000  F
  F29      1.0000 0.03100  0.82600  0.19450  Biso   1.000  F
  F30      1.0000 0.53100  0.32600  0.19450  Biso   1.000  F
  F31      1.0000 0.96900  0.82600  0.30550  Biso   1.000  F
  F32      1.0000 0.46900  0.32600  0.30550  Biso   1.000  F
  F33      1.0000 0.04440  0.26800  0.88190  Biso   1.000  F
  F34      1.0000 0.54440  0.76800  0.88190  Biso   1.000  F
  F35      1.0000 0.95560  0.26800  0.61810  Biso   1.000  F
  F36      1.0000 0.45560  0.76800  0.61810  Biso   1.000  F
  F37      1.0000 0.95560  0.73200  0.11810  Biso   1.000  F
  F38      1.0000 0.45560  0.23200  0.11810  Biso   1.000  F
  F39      1.0000 0.04440  0.73200  0.38190  Biso   1.000  F
  F40      1.0000 0.54440  0.23200  0.38190  Biso   1.000  F
  F41      1.0000 0.97670  0.40200  0.84160  Biso   1.000  F
  F42      1.0000 0.47670  0.90200  0.84160  Biso   1.000  F
  F43      1.0000 0.02330  0.40200  0.65840  Biso   1.000  F
  F44      1.0000 0.52330  0.90200  0.65840  Biso   1.000  F
  F45      1.0000 0.02330  0.59800  0.15840  Biso   1.000  F
  F46      1.0000 0.52330  0.09800  0.15840  Biso   1.000  F
  F47      1.0000 0.97670  0.59800  0.34160  Biso   1.000  F
  F48      1.0000 0.47670  0.09800  0.34160  Biso   1.000  F
  C9       1.0000 0.98033  0.21960  0.90770  Biso   1.000  C
  C10      1.0000 0.48033  0.71960  0.90770  Biso   1.000  C
  C11      1.0000 0.01967  0.21960  0.59230  Biso   1.000  C
  C12      1.0000 0.51967  0.71960  0.59230  Biso   1.000  C
  C13      1.0000 0.01967  0.78040  0.09230  Biso   1.000  C
  C14      1.0000 0.51967  0.28040  0.09230  Biso   1.000  C
  C15      1.0000 0.98033  0.78040  0.40770  Biso   1.000  C
  C16      1.0000 0.48033  0.28040  0.40770  Biso   1.000  C
  C17      1.0000 0.95760  0.30770  0.93000  Biso   1.000  C
  C18      1.0000 0.45760  0.80770  0.93000  Biso   1.000  C
  C19      1.0000 0.04240  0.30770  0.57000  Biso   1.000  C
  C20      1.0000 0.54240  0.80770  0.57000  Biso   1.000  C
  C21      1.0000 0.04240  0.69230  0.07000  Biso   1.000  C
  C22      1.0000 0.54240  0.19230  0.07000  Biso   1.000  C
  C23      1.0000 0.95760  0.69230  0.43000  Biso   1.000  C
  C24      1.0000 0.45760  0.19230  0.43000  Biso   1.000  C
  H1       1.0000 0.94640  0.39500  0.90900  Biso   1.000  H
  H2       1.0000 0.44640  0.89500  0.90900  Biso   1.000  H
  H3       1.0000 0.05360  0.39500  0.59100  Biso   1.000  H
  H4       1.0000 0.55360  0.89500  0.59100  Biso   1.000  H
  H5       1.0000 0.05360  0.60500  0.09100  Biso   1.000  H
  H6       1.0000 0.55360  0.10500  0.09100  Biso   1.000  H
  H7       1.0000 0.94640  0.60500  0.40900  Biso   1.000  H
  H8       1.0000 0.44640  0.10500  0.40900  Biso   1.000  H
  C25      1.0000 0.94939  0.26880  0.97650  Biso   1.000  C
  C26      1.0000 0.44939  0.76880  0.97650  Biso   1.000  C
  C27      1.0000 0.05061  0.26880  0.52350  Biso   1.000  C
  C28      1.0000 0.55061  0.76880  0.52350  Biso   1.000  C
  C29      1.0000 0.05061  0.73120  0.02350  Biso   1.000  C
  C30      1.0000 0.55061  0.23120  0.02350  Biso   1.000  C
  C31      1.0000 0.94939  0.73120  0.47650  Biso   1.000  C
  C32      1.0000 0.44939  0.23120  0.47650  Biso   1.000  C
  C33      1.0000 0.92450  0.37460  0.99890  Biso   1.000  C
  C34      1.0000 0.42450  0.87460  0.99890  Biso   1.000  C
  C35      1.0000 0.07550  0.37460  0.50110  Biso   1.000  C
  C36      1.0000 0.57550  0.87460  0.50110  Biso   1.000  C
  C37      1.0000 0.07550  0.62540  0.00110  Biso   1.000  C
  C38      1.0000 0.57550  0.12540  0.00110  Biso   1.000  C
  C39      1.0000 0.92450  0.62540  0.49890  Biso   1.000  C
  C40      1.0000 0.42450  0.12540  0.49890  Biso   1.000  C
  F49      1.0000 0.88590  0.33690  0.99640  Biso   1.000  F
  F50      1.0000 0.38590  0.83690  0.99640  Biso   1.000  F
  F51      1.0000 0.11410  0.33690  0.50360  Biso   1.000  F
  F52      1.0000 0.61410  0.83690  0.50360  Biso   1.000  F
  F53      1.0000 0.11410  0.66310  0.00360  Biso   1.000  F
  F54      1.0000 0.61410  0.16310  0.00360  Biso   1.000  F
  F55      1.0000 0.88590  0.66310  0.49640  Biso   1.000  F
  F56      1.0000 0.38590  0.16310  0.49640  Biso   1.000  F
  F57      1.0000 0.91680  0.33600  0.03830  Biso   1.000  F
  F58      1.0000 0.41680  0.83600  0.03830  Biso   1.000  F
  F59      1.0000 0.08320  0.33600  0.46170  Biso   1.000  F
  F60      1.0000 0.58320  0.83600  0.46170  Biso   1.000  F
  F61      1.0000 0.08320  0.66400  0.96170  Biso   1.000  F
  F62      1.0000 0.58320  0.16400  0.96170  Biso   1.000  F
  F63      1.0000 0.91680  0.66400  0.53830  Biso   1.000  F
  F64      1.0000 0.41680  0.16400  0.53830  Biso   1.000  F
  F65      1.0000 0.92210  0.50600  0.97950  Biso   1.000  F
  F66      1.0000 0.42210  0.00600  0.97950  Biso   1.000  F
  F67      1.0000 0.07790  0.50600  0.52050  Biso   1.000  F
  F68      1.0000 0.57790  0.00600  0.52050  Biso   1.000  F
  F69      1.0000 0.07790  0.49400  0.02050  Biso   1.000  F
  F70      1.0000 0.57790  0.99400  0.02050  Biso   1.000  F
  F71      1.0000 0.92210  0.49400  0.47950  Biso   1.000  F
  F72      1.0000 0.42210  0.99400  0.47950  Biso   1.000  F
  F73      1.0000 0.86770  0.37760  0.94150  Biso   1.000  F
  F74      1.0000 0.36770  0.87760  0.94150  Biso   1.000  F
  F75      1.0000 0.13230  0.37760  0.55850  Biso   1.000  F
  F76      1.0000 0.63230  0.87760  0.55850  Biso   1.000  F
  F77      1.0000 0.13230  0.62240  0.05850  Biso   1.000  F
  F78      1.0000 0.63230  0.12240  0.05850  Biso   1.000  F
  F79      1.0000 0.86770  0.62240  0.44150  Biso   1.000  F
  F80      1.0000 0.36770  0.12240  0.44150  Biso   1.000  F
  F81      1.0000 0.93630  0.49370  0.99660  Biso   1.000  F
  F82      1.0000 0.43630  0.99370  0.99660  Biso   1.000  F
  F83      1.0000 0.06370  0.49370  0.50340  Biso   1.000  F
  F84      1.0000 0.56370  0.99370  0.50340  Biso   1.000  F
  F85      1.0000 0.06370  0.50630  0.00340  Biso   1.000  F
  F86      1.0000 0.56370  0.00630  0.00340  Biso   1.000  F
  F87      1.0000 0.93630  0.50630  0.49660  Biso   1.000  F
  F88      1.0000 0.43630  0.00630  0.49660  Biso   1.000  F
  F89      1.0000 0.96260  0.39440  0.06780  Biso   1.000  F
  F90      1.0000 0.46260  0.89440  0.06780  Biso   1.000  F
  F91      1.0000 0.03740  0.39440  0.43220  Biso   1.000  F
  F92      1.0000 0.53740  0.89440  0.43220  Biso   1.000  F
  F93      1.0000 0.03740  0.60560  0.93220  Biso   1.000  F
  F94      1.0000 0.53740  0.10560  0.93220  Biso   1.000  F
  F95      1.0000 0.96260  0.60560  0.56780  Biso   1.000  F
  F96      1.0000 0.46260  0.10560  0.56780  Biso   1.000  F
  O9       1.0000 0.96082  0.15630  0.00659  Biso   1.000  O
  O10      1.0000 0.46082  0.65630  0.00659  Biso   1.000  O
  O11      1.0000 0.03918  0.15630  0.49341  Biso   1.000  O
  O12      1.0000 0.53918  0.65630  0.49341  Biso   1.000  O
  O13      1.0000 0.03918  0.84370  0.99341  Biso   1.000  O
  O14      1.0000 0.53918  0.34370  0.99341  Biso   1.000  O
  O15      1.0000 0.96082  0.84370  0.50659  Biso   1.000  O
  O16      1.0000 0.46082  0.34370  0.50659  Biso   1.000  O
  Co1      1.0000 0.25000  0.75000  0.00000  Biso   1.000  Co
  Co2      1.0000 0.75000  0.25000  0.00000  Biso   1.000  Co
  Co3      1.0000 0.75000  0.75000  0.50000  Biso   1.000  Co
  Co4      1.0000 0.25000  0.25000  0.50000  Biso   1.000  Co
  O17      1.0000 0.25724  0.91320  0.95514  Biso   1.000  O
  O18      1.0000 0.75724  0.41320  0.95514  Biso   1.000  O
  O19      1.0000 0.74276  0.91320  0.54486  Biso   1.000  O
  O20      1.0000 0.24276  0.41320  0.54486  Biso   1.000  O
  O21      1.0000 0.74276  0.08680  0.04486  Biso   1.000  O
  O22      1.0000 0.24276  0.58680  0.04486  Biso   1.000  O
  O23      1.0000 0.25724  0.08680  0.45514  Biso   1.000  O
  O24      1.0000 0.75724  0.58680  0.45514  Biso   1.000  O
  C41      1.0000 0.27440  0.14160  0.93780  Biso   1.000  C
  C42      1.0000 0.77440  0.64160  0.93780  Biso   1.000  C
  C43      1.0000 0.72560  0.14160  0.56220  Biso   1.000  C
  C44      1.0000 0.22560  0.64160  0.56220  Biso   1.000  C
  C45      1.0000 0.72560  0.85840  0.06220  Biso   1.000  C
  C46      1.0000 0.22560  0.35840  0.06220  Biso   1.000  C
  C47      1.0000 0.27440  0.85840  0.43780  Biso   1.000  C
  C48      1.0000 0.77440  0.35840  0.43780  Biso   1.000  C
  F97      1.0000 0.28800  0.10240  0.89960  Biso   1.000  F
  F98      1.0000 0.78800  0.60240  0.89960  Biso   1.000  F
  F99      1.0000 0.71200  0.10240  0.60040  Biso   1.000  F
  F100     1.0000 0.21200  0.60240  0.60040  Biso   1.000  F
  F101     1.0000 0.71200  0.89760  0.10040  Biso   1.000  F
  F102     1.0000 0.21200  0.39760  0.10040  Biso   1.000  F
  F103     1.0000 0.28800  0.89760  0.39960  Biso   1.000  F
  F104     1.0000 0.78800  0.39760  0.39960  Biso   1.000  F
  F105     1.0000 0.22250  0.16140  0.89830  Biso   1.000  F
  F106     1.0000 0.72250  0.66140  0.89830  Biso   1.000  F
  F107     1.0000 0.77750  0.16140  0.60170  Biso   1.000  F
  F108     1.0000 0.27750  0.66140  0.60170  Biso   1.000  F
  F109     1.0000 0.77750  0.83860  0.10170  Biso   1.000  F
  F110     1.0000 0.27750  0.33860  0.10170  Biso   1.000  F
  F111     1.0000 0.22250  0.83860  0.39830  Biso   1.000  F
  F112     1.0000 0.72250  0.33860  0.39830  Biso   1.000  F
  F113     1.0000 0.29610  0.25000  0.96620  Biso   1.000  F
  F114     1.0000 0.79610  0.75000  0.96620  Biso   1.000  F
  F115     1.0000 0.70390  0.25000  0.53380  Biso   1.000  F
  F116     1.0000 0.20390  0.75000  0.53380  Biso   1.000  F
  F117     1.0000 0.70390  0.75000  0.03380  Biso   1.000  F
  F118     1.0000 0.20390  0.25000  0.03380  Biso   1.000  F
  F119     1.0000 0.29610  0.75000  0.46620  Biso   1.000  F
  F120     1.0000 0.79610  0.25000  0.46620  Biso   1.000  F
  F121     1.0000 0.31840  0.15330  0.93530  Biso   1.000  F
  F122     1.0000 0.81840  0.65330  0.93530  Biso   1.000  F
  F123     1.0000 0.68160  0.15330  0.56470  Biso   1.000  F
  F124     1.0000 0.18160  0.65330  0.56470  Biso   1.000  F
  F125     1.0000 0.68160  0.84670  0.06470  Biso   1.000  F
  F126     1.0000 0.18160  0.34670  0.06470  Biso   1.000  F
  F127     1.0000 0.31840  0.84670  0.43530  Biso   1.000  F
  F128     1.0000 0.81840  0.34670  0.43530  Biso   1.000  F
  F129     1.0000 0.23740  0.13300  0.88460  Biso   1.000  F
  F130     1.0000 0.73740  0.63300  0.88460  Biso   1.000  F
  F131     1.0000 0.76260  0.13300  0.61540  Biso   1.000  F
  F132     1.0000 0.26260  0.63300  0.61540  Biso   1.000  F
  F133     1.0000 0.76260  0.86700  0.11540  Biso   1.000  F
  F134     1.0000 0.26260  0.36700  0.11540  Biso   1.000  F
  F135     1.0000 0.23740  0.86700  0.38460  Biso   1.000  F
  F136     1.0000 0.73740  0.36700  0.38460  Biso   1.000  F
  F137     1.0000 0.27670  0.26440  0.96200  Biso   1.000  F
  F138     1.0000 0.77670  0.76440  0.96200  Biso   1.000  F
  F139     1.0000 0.72330  0.26440  0.53800  Biso   1.000  F
  F140     1.0000 0.22330  0.76440  0.53800  Biso   1.000  F
  F141     1.0000 0.72330  0.73560  0.03800  Biso   1.000  F
  F142     1.0000 0.22330  0.23560  0.03800  Biso   1.000  F
  F143     1.0000 0.27670  0.73560  0.46200  Biso   1.000  F
  F144     1.0000 0.77670  0.23560  0.46200  Biso   1.000  F
  C49      1.0000 0.28351  0.01930  0.98280  Biso   1.000  C
  C50      1.0000 0.78351  0.51930  0.98280  Biso   1.000  C
  C51      1.0000 0.71649  0.01930  0.51720  Biso   1.000  C
  C52      1.0000 0.21649  0.51930  0.51720  Biso   1.000  C
  C53      1.0000 0.71649  0.98070  0.01720  Biso   1.000  C
  C54      1.0000 0.21649  0.48070  0.01720  Biso   1.000  C
  C55      1.0000 0.28351  0.98070  0.48280  Biso   1.000  C
  C56      1.0000 0.78351  0.48070  0.48280  Biso   1.000  C
  C57      1.0000 0.31820  0.04150  0.04800  Biso   1.000  C
  C58      1.0000 0.81820  0.54150  0.04800  Biso   1.000  C
  C59      1.0000 0.68180  0.04150  0.45200  Biso   1.000  C
  C60      1.0000 0.18180  0.54150  0.45200  Biso   1.000  C
  C61      1.0000 0.68180  0.95850  0.95200  Biso   1.000  C
  C62      1.0000 0.18180  0.45850  0.95200  Biso   1.000  C
  C63      1.0000 0.31820  0.95850  0.54800  Biso   1.000  C
  C64      1.0000 0.81820  0.45850  0.54800  Biso   1.000  C
  H9       1.0000 0.33040  0.11700  0.05870  Biso   1.000  H
  H10      1.0000 0.83040  0.61700  0.05870  Biso   1.000  H
  H11      1.0000 0.66960  0.11700  0.44130  Biso   1.000  H
  H12      1.0000 0.16960  0.61700  0.44130  Biso   1.000  H
  H13      1.0000 0.66960  0.88300  0.94130  Biso   1.000  H
  H14      1.0000 0.16960  0.38300  0.94130  Biso   1.000  H
  H15      1.0000 0.33040  0.88300  0.55870  Biso   1.000  H
  H16      1.0000 0.83040  0.38300  0.55870  Biso   1.000  H
  C65      1.0000 0.32835  0.94380  0.09376  Biso   1.000  C
  C66      1.0000 0.82835  0.44380  0.09376  Biso   1.000  C
  C67      1.0000 0.67165  0.94380  0.40624  Biso   1.000  C
  C68      1.0000 0.17165  0.44380  0.40624  Biso   1.000  C
  C69      1.0000 0.67165  0.05620  0.90624  Biso   1.000  C
  C70      1.0000 0.17165  0.55620  0.90624  Biso   1.000  C
  C71      1.0000 0.32835  0.05620  0.59376  Biso   1.000  C
  C72      1.0000 0.82835  0.55620  0.59376  Biso   1.000  C
  C73      1.0000 0.36780  0.98480  0.16420  Biso   1.000  C
  C74      1.0000 0.86780  0.48480  0.16420  Biso   1.000  C
  C75      1.0000 0.63220  0.98480  0.33580  Biso   1.000  C
  C76      1.0000 0.13220  0.48480  0.33580  Biso   1.000  C
  C77      1.0000 0.63220  0.01520  0.83580  Biso   1.000  C
  C78      1.0000 0.13220  0.51520  0.83580  Biso   1.000  C
  C79      1.0000 0.36780  0.01520  0.66420  Biso   1.000  C
  C80      1.0000 0.86780  0.51520  0.66420  Biso   1.000  C
  F145     1.0000 0.40010  0.07600  0.17310  Biso   1.000  F
  F146     1.0000 0.90010  0.57600  0.17310  Biso   1.000  F
  F147     1.0000 0.59990  0.07600  0.32690  Biso   1.000  F
  F148     1.0000 0.09990  0.57600  0.32690  Biso   1.000  F
  F149     1.0000 0.59990  0.92400  0.82690  Biso   1.000  F
  F150     1.0000 0.09990  0.42400  0.82690  Biso   1.000  F
  F151     1.0000 0.40010  0.92400  0.67310  Biso   1.000  F
  F152     1.0000 0.90010  0.42400  0.67310  Biso   1.000  F
  F153     1.0000 0.33940  0.02800  0.18790  Biso   1.000  F
  F154     1.0000 0.83940  0.52800  0.18790  Biso   1.000  F
  F155     1.0000 0.66060  0.02800  0.31210  Biso   1.000  F
  F156     1.0000 0.16060  0.52800  0.31210  Biso   1.000  F
  F157     1.0000 0.66060  0.97200  0.81210  Biso   1.000  F
  F158     1.0000 0.16060  0.47200  0.81210  Biso   1.000  F
  F159     1.0000 0.33940  0.97200  0.68790  Biso   1.000  F
  F160     1.0000 0.83940  0.47200  0.68790  Biso   1.000  F
  F161     1.0000 0.39350  0.88080  0.19870  Biso   1.000  F
  F162     1.0000 0.89350  0.38080  0.19870  Biso   1.000  F
  F163     1.0000 0.60650  0.88080  0.30130  Biso   1.000  F
  F164     1.0000 0.10650  0.38080  0.30130  Biso   1.000  F
  F165     1.0000 0.60650  0.11920  0.80130  Biso   1.000  F
  F166     1.0000 0.10650  0.61920  0.80130  Biso   1.000  F
  F167     1.0000 0.39350  0.11920  0.69870  Biso   1.000  F
  F168     1.0000 0.89350  0.61920  0.69870  Biso   1.000  F
  F169     1.0000 0.41410  0.93300  0.18310  Biso   1.000  F
  F170     1.0000 0.91410  0.43300  0.18310  Biso   1.000  F
  F171     1.0000 0.58590  0.93300  0.31690  Biso   1.000  F
  F172     1.0000 0.08590  0.43300  0.31690  Biso   1.000  F
  F173     1.0000 0.58590  0.06700  0.81690  Biso   1.000  F
  F174     1.0000 0.08590  0.56700  0.81690  Biso   1.000  F
  F175     1.0000 0.41410  0.06700  0.68310  Biso   1.000  F
  F176     1.0000 0.91410  0.56700  0.68310  Biso   1.000  F
  F177     1.0000 0.37760  0.11800  0.17280  Biso   1.000  F
  F178     1.0000 0.87760  0.61800  0.17280  Biso   1.000  F
  F179     1.0000 0.62240  0.11800  0.32720  Biso   1.000  F
  F180     1.0000 0.12240  0.61800  0.32720  Biso   1.000  F
  F181     1.0000 0.62240  0.88200  0.82720  Biso   1.000  F
  F182     1.0000 0.12240  0.38200  0.82720  Biso   1.000  F
  F183     1.0000 0.37760  0.88200  0.67280  Biso   1.000  F
  F184     1.0000 0.87760  0.38200  0.67280  Biso   1.000  F
  F185     1.0000 0.35660  0.94000  0.20080  Biso   1.000  F
  F186     1.0000 0.85660  0.44000  0.20080  Biso   1.000  F
  F187     1.0000 0.64340  0.94000  0.29920  Biso   1.000  F
  F188     1.0000 0.14340  0.44000  0.29920  Biso   1.000  F
  F189     1.0000 0.64340  0.06000  0.79920  Biso   1.000  F
  F190     1.0000 0.14340  0.56000  0.79920  Biso   1.000  F
  F191     1.0000 0.35660  0.06000  0.70080  Biso   1.000  F
  F192     1.0000 0.85660  0.56000  0.70080  Biso   1.000  F
  O25      1.0000 0.30866  0.82690  0.08601  Biso   1.000  O
  O26      1.0000 0.80866  0.32690  0.08601  Biso   1.000  O
  O27      1.0000 0.69134  0.82690  0.41399  Biso   1.000  O
  O28      1.0000 0.19134  0.32690  0.41399  Biso   1.000  O
  O29      1.0000 0.69134  0.17310  0.91399  Biso   1.000  O
  O30      1.0000 0.19134  0.67310  0.91399  Biso   1.000  O
  O31      1.0000 0.30866  0.17310  0.58601  Biso   1.000  O
  O32      1.0000 0.80866  0.67310  0.58601  Biso   1.000  O
  O33      1.0000 0.07205  0.13290  0.05517  Biso   1.000  O
  O34      1.0000 0.57205  0.63290  0.05517  Biso   1.000  O
  O35      1.0000 0.92795  0.13290  0.44483  Biso   1.000  O
  O36      1.0000 0.42795  0.63290  0.44483  Biso   1.000  O
  O37      1.0000 0.92795  0.86710  0.94483  Biso   1.000  O
  O38      1.0000 0.42795  0.36710  0.94483  Biso   1.000  O
  O39      1.0000 0.07205  0.86710  0.55517  Biso   1.000  O
  O40      1.0000 0.57205  0.36710  0.55517  Biso   1.000  O
  N1       1.0000 0.11478  0.10120  0.10970  Biso   1.000  N
  N2       1.0000 0.61478  0.60120  0.10970  Biso   1.000  N
  N3       1.0000 0.88522  0.10120  0.39030  Biso   1.000  N
  N4       1.0000 0.38522  0.60120  0.39030  Biso   1.000  N
  N5       1.0000 0.88522  0.89880  0.89030  Biso   1.000  N
  N6       1.0000 0.38522  0.39880  0.89030  Biso   1.000  N
  N7       1.0000 0.11478  0.89880  0.60970  Biso   1.000  N
  N8       1.0000 0.61478  0.39880  0.60970  Biso   1.000  N
  C81      1.0000 0.12693  0.16480  0.17111  Biso   1.000  C
  C82      1.0000 0.62693  0.66480  0.17111  Biso   1.000  C
  C83      1.0000 0.87307  0.16480  0.32889  Biso   1.000  C
  C84      1.0000 0.37307  0.66480  0.32889  Biso   1.000  C
  C85      1.0000 0.87307  0.83520  0.82889  Biso   1.000  C
  C86      1.0000 0.37307  0.33520  0.82889  Biso   1.000  C
  C87      1.0000 0.12693  0.83520  0.67111  Biso   1.000  C
  C88      1.0000 0.62693  0.33520  0.67111  Biso   1.000  C
  C89      1.0000 0.07750  0.16360  0.17340  Biso   1.000  C
  C90      1.0000 0.57750  0.66360  0.17340  Biso   1.000  C
  C91      1.0000 0.92250  0.16360  0.32660  Biso   1.000  C
  C92      1.0000 0.42250  0.66360  0.32660  Biso   1.000  C
  C93      1.0000 0.92250  0.83640  0.82660  Biso   1.000  C
  C94      1.0000 0.42250  0.33640  0.82660  Biso   1.000  C
  C95      1.0000 0.07750  0.83640  0.67340  Biso   1.000  C
  C96      1.0000 0.57750  0.33640  0.67340  Biso   1.000  C
  H17      1.0000 0.06520  0.08600  0.16900  Biso   1.000  H
  H18      1.0000 0.56520  0.58600  0.16900  Biso   1.000  H
  H19      1.0000 0.93480  0.08600  0.33100  Biso   1.000  H
  H20      1.0000 0.43480  0.58600  0.33100  Biso   1.000  H
  H21      1.0000 0.93480  0.91400  0.83100  Biso   1.000  H
  H22      1.0000 0.43480  0.41400  0.83100  Biso   1.000  H
  H23      1.0000 0.06520  0.91400  0.66900  Biso   1.000  H
  H24      1.0000 0.56520  0.41400  0.66900  Biso   1.000  H
  H25      1.0000 0.00200  0.95000  0.11600  Biso   1.000  H
  H26      1.0000 0.50200  0.45000  0.11600  Biso   1.000  H
  H27      1.0000 0.99800  0.95000  0.38400  Biso   1.000  H
  H28      1.0000 0.49800  0.45000  0.38400  Biso   1.000  H
  H29      1.0000 0.99800  0.05000  0.88400  Biso   1.000  H
  H30      1.0000 0.49800  0.55000  0.88400  Biso   1.000  H
  H31      1.0000 0.00200  0.05000  0.61600  Biso   1.000  H
  H32      1.0000 0.50200  0.55000  0.61600  Biso   1.000  H
  H33      1.0000 0.08500  0.19400  0.20900  Biso   1.000  H
  H34      1.0000 0.58500  0.69400  0.20900  Biso   1.000  H
  H35      1.0000 0.91500  0.19400  0.29100  Biso   1.000  H
  H36      1.0000 0.41500  0.69400  0.29100  Biso   1.000  H
  H37      1.0000 0.91500  0.80600  0.79100  Biso   1.000  H
  H38      1.0000 0.41500  0.30600  0.79100  Biso   1.000  H
  H39      1.0000 0.08500  0.80600  0.70900  Biso   1.000  H
  H40      1.0000 0.58500  0.30600  0.70900  Biso   1.000  H
  C97      1.0000 0.14150  0.31440  0.16850  Biso   1.000  C
  C98      1.0000 0.64150  0.81440  0.16850  Biso   1.000  C
  C99      1.0000 0.85850  0.31440  0.33150  Biso   1.000  C
  C100     1.0000 0.35850  0.81440  0.33150  Biso   1.000  C
  C101     1.0000 0.85850  0.68560  0.83150  Biso   1.000  C
  C102     1.0000 0.35850  0.18560  0.83150  Biso   1.000  C
  C103     1.0000 0.14150  0.68560  0.66850  Biso   1.000  C
  C104     1.0000 0.64150  0.18560  0.66850  Biso   1.000  C
  H41      1.0000 0.16920  0.32400  0.16900  Biso   1.000  H
  H42      1.0000 0.66920  0.82400  0.16900  Biso   1.000  H
  H43      1.0000 0.83080  0.32400  0.33100  Biso   1.000  H
  H44      1.0000 0.33080  0.82400  0.33100  Biso   1.000  H
  H45      1.0000 0.83080  0.67600  0.83100  Biso   1.000  H
  H46      1.0000 0.33080  0.17600  0.83100  Biso   1.000  H
  H47      1.0000 0.16920  0.67600  0.66900  Biso   1.000  H
  H48      1.0000 0.66920  0.17600  0.66900  Biso   1.000  H
  H49      1.0000 0.14680  0.34900  0.19560  Biso   1.000  H
  H50      1.0000 0.64680  0.84900  0.19560  Biso   1.000  H
  H51      1.0000 0.85320  0.34900  0.30440  Biso   1.000  H
  H52      1.0000 0.35320  0.84900  0.30440  Biso   1.000  H
  H53      1.0000 0.85320  0.65100  0.80440  Biso   1.000  H
  H54      1.0000 0.35320  0.15100  0.80440  Biso   1.000  H
  H55      1.0000 0.14680  0.65100  0.69560  Biso   1.000  H
  H56      1.0000 0.64680  0.15100  0.69560  Biso   1.000  H
  H57      1.0000 0.88900  0.94200  0.12400  Biso   1.000  H
  H58      1.0000 0.38900  0.44200  0.12400  Biso   1.000  H
  H59      1.0000 0.11100  0.94200  0.37600  Biso   1.000  H
  H60      1.0000 0.61100  0.44200  0.37600  Biso   1.000  H
  H61      1.0000 0.11100  0.05800  0.87600  Biso   1.000  H
  H62      1.0000 0.61100  0.55800  0.87600  Biso   1.000  H
  H63      1.0000 0.88900  0.05800  0.62400  Biso   1.000  H
  H64      1.0000 0.38900  0.55800  0.62400  Biso   1.000  H
  C105     1.0000 0.17290  0.06920  0.21944  Biso   1.000  C
  C106     1.0000 0.67290  0.56920  0.21944  Biso   1.000  C
  C107     1.0000 0.82710  0.06920  0.28056  Biso   1.000  C
  C108     1.0000 0.32710  0.56920  0.28056  Biso   1.000  C
  C109     1.0000 0.82710  0.93080  0.78056  Biso   1.000  C
  C110     1.0000 0.32710  0.43080  0.78056  Biso   1.000  C
  C111     1.0000 0.17290  0.93080  0.71944  Biso   1.000  C
  C112     1.0000 0.67290  0.43080  0.71944  Biso   1.000  C
  C113     1.0000 0.21490  0.14240  0.28150  Biso   1.000  C
  C114     1.0000 0.71490  0.64240  0.28150  Biso   1.000  C
  C115     1.0000 0.78510  0.14240  0.21850  Biso   1.000  C
  C116     1.0000 0.28510  0.64240  0.21850  Biso   1.000  C
  C117     1.0000 0.78510  0.85760  0.71850  Biso   1.000  C
  C118     1.0000 0.28510  0.35760  0.71850  Biso   1.000  C
  C119     1.0000 0.21490  0.85760  0.78150  Biso   1.000  C
  C120     1.0000 0.71490  0.35760  0.78150  Biso   1.000  C
  H65      1.0000 0.23000  0.20500  0.27210  Biso   1.000  H
  H66      1.0000 0.73000  0.70500  0.27210  Biso   1.000  H
  H67      1.0000 0.77000  0.20500  0.22790  Biso   1.000  H
  H68      1.0000 0.27000  0.70500  0.22790  Biso   1.000  H
  H69      1.0000 0.77000  0.79500  0.72790  Biso   1.000  H
  H70      1.0000 0.27000  0.29500  0.72790  Biso   1.000  H
  H71      1.0000 0.23000  0.79500  0.77210  Biso   1.000  H
  H72      1.0000 0.73000  0.29500  0.77210  Biso   1.000  H
  H73      1.0000 0.24500  0.09200  0.30200  Biso   1.000  H
  H74      1.0000 0.74500  0.59200  0.30200  Biso   1.000  H
  H75      1.0000 0.75500  0.09200  0.19800  Biso   1.000  H
  H76      1.0000 0.25500  0.59200  0.19800  Biso   1.000  H
  H77      1.0000 0.75500  0.90800  0.69800  Biso   1.000  H
  H78      1.0000 0.25500  0.40800  0.69800  Biso   1.000  H
  H79      1.0000 0.24500  0.90800  0.80200  Biso   1.000  H
  H80      1.0000 0.74500  0.40800  0.80200  Biso   1.000  H
  H81      1.0000 0.15600  0.89000  0.25900  Biso   1.000  H
  H82      1.0000 0.65600  0.39000  0.25900  Biso   1.000  H
  H83      1.0000 0.84400  0.89000  0.24100  Biso   1.000  H
  H84      1.0000 0.34400  0.39000  0.24100  Biso   1.000  H
  H85      1.0000 0.84400  0.11000  0.74100  Biso   1.000  H
  H86      1.0000 0.34400  0.61000  0.74100  Biso   1.000  H
  H87      1.0000 0.15600  0.11000  0.75900  Biso   1.000  H
  H88      1.0000 0.65600  0.61000  0.75900  Biso   1.000  H
  C121     1.0000 0.15430  0.93600  0.23540  Biso   1.000  C
  C122     1.0000 0.65430  0.43600  0.23540  Biso   1.000  C
  C123     1.0000 0.84570  0.93600  0.26460  Biso   1.000  C
  C124     1.0000 0.34570  0.43600  0.26460  Biso   1.000  C
  C125     1.0000 0.84570  0.06400  0.76460  Biso   1.000  C
  C126     1.0000 0.34570  0.56400  0.76460  Biso   1.000  C
  C127     1.0000 0.15430  0.06400  0.73540  Biso   1.000  C
  C128     1.0000 0.65430  0.56400  0.73540  Biso   1.000  C
  H89      1.0000 0.12720  0.87900  0.19700  Biso   1.000  H
  H90      1.0000 0.62720  0.37900  0.19700  Biso   1.000  H
  H91      1.0000 0.87280  0.87900  0.30300  Biso   1.000  H
  H92      1.0000 0.37280  0.37900  0.30300  Biso   1.000  H
  H93      1.0000 0.87280  0.12100  0.80300  Biso   1.000  H
  H94      1.0000 0.37280  0.62100  0.80300  Biso   1.000  H
  H95      1.0000 0.12720  0.12100  0.69700  Biso   1.000  H
  H96      1.0000 0.62720  0.62100  0.69700  Biso   1.000  H
  H97      1.0000 0.09800  0.23300  0.39900  Biso   1.000  H
  H98      1.0000 0.59800  0.73300  0.39900  Biso   1.000  H
  H99      1.0000 0.90200  0.23300  0.10100  Biso   1.000  H
  H100     1.0000 0.40200  0.73300  0.10100  Biso   1.000  H
  H101     1.0000 0.90200  0.76700  0.60100  Biso   1.000  H
  H102     1.0000 0.40200  0.26700  0.60100  Biso   1.000  H
  H103     1.0000 0.09800  0.76700  0.89900  Biso   1.000  H
  H104     1.0000 0.59800  0.26700  0.89900  Biso   1.000  H
  H105     1.0000 0.18270  0.88600  0.25300  Biso   1.000  H
  H106     1.0000 0.68270  0.38600  0.25300  Biso   1.000  H
  H107     1.0000 0.81730  0.88600  0.24700  Biso   1.000  H
  H108     1.0000 0.31730  0.38600  0.24700  Biso   1.000  H
  H109     1.0000 0.81730  0.11400  0.74700  Biso   1.000  H
  H110     1.0000 0.31730  0.61400  0.74700  Biso   1.000  H
  H111     1.0000 0.18270  0.11400  0.75300  Biso   1.000  H
  H112     1.0000 0.68270  0.61400  0.75300  Biso   1.000  H
  N9       1.0000 0.19400  0.02580  0.17962  Biso   1.000  N
  N10      1.0000 0.69400  0.52580  0.17962  Biso   1.000  N
  N11      1.0000 0.80600  0.02580  0.32038  Biso   1.000  N
  N12      1.0000 0.30600  0.52580  0.32038  Biso   1.000  N
  N13      1.0000 0.80600  0.97420  0.82038  Biso   1.000  N
  N14      1.0000 0.30600  0.47420  0.82038  Biso   1.000  N
  N15      1.0000 0.19400  0.97420  0.67962  Biso   1.000  N
  N16      1.0000 0.69400  0.47420  0.67962  Biso   1.000  N
  O41      1.0000 0.23894  0.97130  0.20325  Biso   1.000  O
  O42      1.0000 0.73894  0.47130  0.20325  Biso   1.000  O
  O43      1.0000 0.76106  0.97130  0.29675  Biso   1.000  O
  O44      1.0000 0.26106  0.47130  0.29675  Biso   1.000  O
  O45      1.0000 0.76106  0.02870  0.79675  Biso   1.000  O
  O46      1.0000 0.26106  0.52870  0.79675  Biso   1.000  O
  O47      1.0000 0.23894  0.02870  0.70325  Biso   1.000  O
  O48      1.0000 0.73894  0.52870  0.70325  Biso   1.000  O
  C129     1.0000 0.15641  0.03550  0.11636  Biso   1.000  C
  C130     1.0000 0.65641  0.53550  0.11636  Biso   1.000  C
  C131     1.0000 0.84359  0.03550  0.38364  Biso   1.000  C
  C132     1.0000 0.34359  0.53550  0.38364  Biso   1.000  C
  C133     1.0000 0.84359  0.96450  0.88364  Biso   1.000  C
  C134     1.0000 0.34359  0.46450  0.88364  Biso   1.000  C
  C135     1.0000 0.15641  0.96450  0.61636  Biso   1.000  C
  C136     1.0000 0.65641  0.46450  0.61636  Biso   1.000  C
  C137     1.0000 0.16128  0.98530  0.06586  Biso   1.000  C
  C138     1.0000 0.66128  0.48530  0.06586  Biso   1.000  C
  C139     1.0000 0.83872  0.98530  0.43414  Biso   1.000  C
  C140     1.0000 0.33872  0.48530  0.43414  Biso   1.000  C
  C141     1.0000 0.83872  0.01470  0.93414  Biso   1.000  C
  C142     1.0000 0.33872  0.51470  0.93414  Biso   1.000  C
  C143     1.0000 0.16128  0.01470  0.56586  Biso   1.000  C
  C144     1.0000 0.66128  0.51470  0.56586  Biso   1.000  C
  C145     1.0000 0.20157  0.90300  0.07020  Biso   1.000  C
  C146     1.0000 0.70157  0.40300  0.07020  Biso   1.000  C
  C147     1.0000 0.79843  0.90300  0.42980  Biso   1.000  C
  C148     1.0000 0.29843  0.40300  0.42980  Biso   1.000  C
  C149     1.0000 0.79843  0.09700  0.92980  Biso   1.000  C
  C150     1.0000 0.29843  0.59700  0.92980  Biso   1.000  C
  C151     1.0000 0.20157  0.09700  0.57020  Biso   1.000  C
  C152     1.0000 0.70157  0.59700  0.57020  Biso   1.000  C
  H113     1.0000 0.23420  0.85900  0.10980  Biso   1.000  H
  H114     1.0000 0.73420  0.35900  0.10980  Biso   1.000  H
  H115     1.0000 0.76580  0.85900  0.39020  Biso   1.000  H
  H116     1.0000 0.26580  0.35900  0.39020  Biso   1.000  H
  H117     1.0000 0.76580  0.14100  0.89020  Biso   1.000  H
  H118     1.0000 0.26580  0.64100  0.89020  Biso   1.000  H
  H119     1.0000 0.23420  0.14100  0.60980  Biso   1.000  H
  H120     1.0000 0.73420  0.64100  0.60980  Biso   1.000  H
  N17      1.0000 0.19369  0.88120  0.01331  Biso   1.000  N
  N18      1.0000 0.69369  0.38120  0.01331  Biso   1.000  N
  N19      1.0000 0.80631  0.88120  0.48669  Biso   1.000  N
  N20      1.0000 0.30631  0.38120  0.48669  Biso   1.000  N
  N21      1.0000 0.80631  0.11880  0.98669  Biso   1.000  N
  N22      1.0000 0.30631  0.61880  0.98669  Biso   1.000  N
  N23      1.0000 0.19369  0.11880  0.51331  Biso   1.000  N
  N24      1.0000 0.69369  0.61880  0.51331  Biso   1.000  N
  N25      1.0000 0.14818  0.95110  0.97164  Biso   1.000  N
  N26      1.0000 0.64818  0.45110  0.97164  Biso   1.000  N
  N27      1.0000 0.85182  0.95110  0.52836  Biso   1.000  N
  N28      1.0000 0.35182  0.45110  0.52836  Biso   1.000  N
  N29      1.0000 0.85182  0.04890  0.02836  Biso   1.000  N
  N30      1.0000 0.35182  0.54890  0.02836  Biso   1.000  N
  N31      1.0000 0.14818  0.04890  0.47164  Biso   1.000  N
  N32      1.0000 0.64818  0.54890  0.47164  Biso   1.000  N
  C153     1.0000 0.12680  0.95470  0.90300  Biso   1.000  C
  C154     1.0000 0.62680  0.45470  0.90300  Biso   1.000  C
  C155     1.0000 0.87320  0.95470  0.59700  Biso   1.000  C
  C156     1.0000 0.37320  0.45470  0.59700  Biso   1.000  C
  C157     1.0000 0.87320  0.04530  0.09700  Biso   1.000  C
  C158     1.0000 0.37320  0.54530  0.09700  Biso   1.000  C
  C159     1.0000 0.12680  0.04530  0.40300  Biso   1.000  C
  C160     1.0000 0.62680  0.54530  0.40300  Biso   1.000  C
  H121     1.0000 0.08100  0.04500  0.85900  Biso   1.000  H
  H122     1.0000 0.58100  0.54500  0.85900  Biso   1.000  H
  H123     1.0000 0.91900  0.04500  0.64100  Biso   1.000  H
  H124     1.0000 0.41900  0.54500  0.64100  Biso   1.000  H
  H125     1.0000 0.91900  0.95500  0.14100  Biso   1.000  H
  H126     1.0000 0.41900  0.45500  0.14100  Biso   1.000  H
  H127     1.0000 0.08100  0.95500  0.35900  Biso   1.000  H
  H128     1.0000 0.58100  0.45500  0.35900  Biso   1.000  H
  H129     1.0000 0.14990  0.90400  0.89700  Biso   1.000  H
  H130     1.0000 0.64990  0.40400  0.89700  Biso   1.000  H
  H131     1.0000 0.85010  0.90400  0.60300  Biso   1.000  H
  H132     1.0000 0.35010  0.40400  0.60300  Biso   1.000  H
  H133     1.0000 0.85010  0.09600  0.10300  Biso   1.000  H
  H134     1.0000 0.35010  0.59600  0.10300  Biso   1.000  H
  H135     1.0000 0.14990  0.09600  0.39700  Biso   1.000  H
  H136     1.0000 0.64990  0.59600  0.39700  Biso   1.000  H
  C161     1.0000 0.07460  0.89410  0.86370  Biso   1.000  C
  C162     1.0000 0.57460  0.39410  0.86370  Biso   1.000  C
  C163     1.0000 0.92540  0.89410  0.63630  Biso   1.000  C
  C164     1.0000 0.42540  0.39410  0.63630  Biso   1.000  C
  C165     1.0000 0.92540  0.10590  0.13630  Biso   1.000  C
  C166     1.0000 0.42540  0.60590  0.13630  Biso   1.000  C
  C167     1.0000 0.07460  0.10590  0.36370  Biso   1.000  C
  C168     1.0000 0.57460  0.60590  0.36370  Biso   1.000  C
  H137     1.0000 0.06340  0.89760  0.81960  Biso   1.000  H
  H138     1.0000 0.56340  0.39760  0.81960  Biso   1.000  H
  H139     1.0000 0.93660  0.89760  0.68040  Biso   1.000  H
  H140     1.0000 0.43660  0.39760  0.68040  Biso   1.000  H
  H141     1.0000 0.93660  0.10240  0.18040  Biso   1.000  H
  H142     1.0000 0.43660  0.60240  0.18040  Biso   1.000  H
  H143     1.0000 0.06340  0.10240  0.31960  Biso   1.000  H
  H144     1.0000 0.56340  0.60240  0.31960  Biso   1.000  H
  H145     1.0000 0.05030  0.94580  0.86940  Biso   1.000  H
  H146     1.0000 0.55030  0.44580  0.86940  Biso   1.000  H
  H147     1.0000 0.94970  0.94580  0.63060  Biso   1.000  H
  H148     1.0000 0.44970  0.44580  0.63060  Biso   1.000  H
  H149     1.0000 0.94970  0.05420  0.13060  Biso   1.000  H
  H150     1.0000 0.44970  0.55420  0.13060  Biso   1.000  H
  H151     1.0000 0.05030  0.05420  0.36940  Biso   1.000  H
  H152     1.0000 0.55030  0.55420  0.36940  Biso   1.000  H
  H153     1.0000 0.07560  0.79870  0.87610  Biso   1.000  H
  H154     1.0000 0.57560  0.29870  0.87610  Biso   1.000  H
  H155     1.0000 0.92440  0.79870  0.62390  Biso   1.000  H
  H156     1.0000 0.42440  0.29870  0.62390  Biso   1.000  H
  H157     1.0000 0.92440  0.20130  0.12390  Biso   1.000  H
  H158     1.0000 0.42440  0.70130  0.12390  Biso   1.000  H
  H159     1.0000 0.07560  0.20130  0.37610  Biso   1.000  H
  H160     1.0000 0.57560  0.70130  0.37610  Biso   1.000  H
  C169     1.0000 0.12728  0.01590  0.00059  Biso   1.000  C
  C170     1.0000 0.62728  0.51590  0.00059  Biso   1.000  C
  C171     1.0000 0.87272  0.01590  0.49941  Biso   1.000  C
  C172     1.0000 0.37272  0.51590  0.49941  Biso   1.000  C
  C173     1.0000 0.87272  0.98410  0.99941  Biso   1.000  C
  C174     1.0000 0.37272  0.48410  0.99941  Biso   1.000  C
  C175     1.0000 0.12728  0.98410  0.50059  Biso   1.000  C
  C176     1.0000 0.62728  0.48410  0.50059  Biso   1.000  C
  H161     1.0000 0.14100  0.07200  0.89100  Biso   1.000  H
  H162     1.0000 0.64100  0.57200  0.89100  Biso   1.000  H
  H163     1.0000 0.85900  0.07200  0.60900  Biso   1.000  H
  H164     1.0000 0.35900  0.57200  0.60900  Biso   1.000  H
  H165     1.0000 0.85900  0.92800  0.10900  Biso   1.000  H
  H166     1.0000 0.35900  0.42800  0.10900  Biso   1.000  H
  H167     1.0000 0.14100  0.92800  0.39100  Biso   1.000  H
  H168     1.0000 0.64100  0.42800  0.39100  Biso   1.000  H
