data_image0
_cell_length_a       30.357
_cell_length_b       9.5645
_cell_length_c       25.182
_cell_angle_alpha    90
_cell_angle_beta     124.197
_cell_angle_gamma    90

_symmetry_space_group_name_H-M    "P 1"
_symmetry_int_tables_number       1

loop_
  _symmetry_equiv_pos_as_xyz
  'x, y, z'

loop_
  _atom_site_label
  _atom_site_occupancy
  _atom_site_fract_x
  _atom_site_fract_y
  _atom_site_fract_z
  _atom_site_thermal_displace_type
  _atom_site_B_iso_or_equiv
  _atom_site_type_symbol
  Mn1      1.0000 0.00000  0.00000  0.00000  Biso   1.000  Mn
  Mn2      1.0000 0.50000  0.50000  0.00000  Biso   1.000  Mn
  Mn3      1.0000 0.00000  0.00000  0.50000  Biso   1.000  Mn
  Mn4      1.0000 0.50000  0.50000  0.50000  Biso   1.000  Mn
  O1       1.0000 0.99319  0.10660  0.92273  Biso   1.000  O
  O2       1.0000 0.49319  0.60660  0.92273  Biso   1.000  O
  O3       1.0000 0.00681  0.10660  0.57727  Biso   1.000  O
  O4       1.0000 0.50681  0.60660  0.57727  Biso   1.000  O
  O5       1.0000 0.00681  0.89340  0.07727  Biso   1.000  O
  O6       1.0000 0.50681  0.39340  0.07727  Biso   1.000  O
  O7       1.0000 0.99319  0.89340  0.42273  Biso   1.000  O
  O8       1.0000 0.49319  0.39340  0.42273  Biso   1.000  O
  C1       1.0000 0.98670  0.28420  0.85580  Biso   1.000  C
  C2       1.0000 0.48670  0.78420  0.85580  Biso   1.000  C
  C3       1.0000 0.01330  0.28420  0.64420  Biso   1.000  C
  C4       1.0000 0.51330  0.78420  0.64420  Biso   1.000  C
  C5       1.0000 0.01330  0.71580  0.14420  Biso   1.000  C
  C6       1.0000 0.51330  0.21580  0.14420  Biso   1.000  C
  C7       1.0000 0.98670  0.71580  0.35580  Biso   1.000  C
  C8       1.0000 0.48670  0.21580  0.35580  Biso   1.000  C
  F1       1.0000 0.96800  0.41300  0.82840  Biso   1.000  F
  F2       1.0000 0.46800  0.91300  0.82840  Biso   1.000  F
  F3       1.0000 0.03200  0.41300  0.67160  Biso   1.000  F
  F4       1.0000 0.53200  0.91300  0.67160  Biso   1.000  F
  F5       1.0000 0.03200  0.58700  0.17160  Biso   1.000  F
  F6       1.0000 0.53200  0.08700  0.17160  Biso   1.000  F
  F7       1.0000 0.96800  0.58700  0.32840  Biso   1.000  F
  F8       1.0000 0.46800  0.08700  0.32840  Biso   1.000  F
  F9       1.0000 0.97340  0.19600  0.80980  Biso   1.000  F
  F10      1.0000 0.47340  0.69600  0.80980  Biso   1.000  F
  F11      1.0000 0.02660  0.19600  0.69020  Biso   1.000  F
  F12      1.0000 0.52660  0.69600  0.69020  Biso   1.000  F
  F13      1.0000 0.02660  0.80400  0.19020  Biso   1.000  F
  F14      1.0000 0.52660  0.30400  0.19020  Biso   1.000  F
  F15      1.0000 0.97340  0.80400  0.30980  Biso   1.000  F
  F16      1.0000 0.47340  0.30400  0.30980  Biso   1.000  F
  F17      1.0000 0.03470  0.32000  0.87870  Biso   1.000  F
  F18      1.0000 0.53470  0.82000  0.87870  Biso   1.000  F
  F19      1.0000 0.96530  0.32000  0.62130  Biso   1.000  F
  F20      1.0000 0.46530  0.82000  0.62130  Biso   1.000  F
  F21      1.0000 0.96530  0.68000  0.12130  Biso   1.000  F
  F22      1.0000 0.46530  0.18000  0.12130  Biso   1.000  F
  F23      1.0000 0.03470  0.68000  0.37870  Biso   1.000  F
  F24      1.0000 0.53470  0.18000  0.37870  Biso   1.000  F
  F25      1.0000 0.96030  0.21400  0.80500  Biso   1.000  F
  F26      1.0000 0.46030  0.71400  0.80500  Biso   1.000  F
  F27      1.0000 0.03970  0.21400  0.69500  Biso   1.000  F
  F28      1.0000 0.53970  0.71400  0.69500  Biso   1.000  F
  F29      1.0000 0.03970  0.78600  0.19500  Biso   1.000  F
  F30      1.0000 0.53970  0.28600  0.19500  Biso   1.000  F
  F31      1.0000 0.96030  0.78600  0.30500  Biso   1.000  F
  F32      1.0000 0.46030  0.28600  0.30500  Biso   1.000  F
  F33      1.0000 0.03920  0.27100  0.88140  Biso   1.000  F
  F34      1.0000 0.53920  0.77100  0.88140  Biso   1.000  F
  F35      1.0000 0.96080  0.27100  0.61860  Biso   1.000  F
  F36      1.0000 0.46080  0.77100  0.61860  Biso   1.000  F
  F37      1.0000 0.96080  0.72900  0.11860  Biso   1.000  F
  F38      1.0000 0.46080  0.22900  0.11860  Biso   1.000  F
  F39      1.0000 0.03920  0.72900  0.38140  Biso   1.000  F
  F40      1.0000 0.53920  0.22900  0.38140  Biso   1.000  F
  F41      1.0000 0.96770  0.40600  0.84460  Biso   1.000  F
  F42      1.0000 0.46770  0.90600  0.84460  Biso   1.000  F
  F43      1.0000 0.03230  0.40600  0.65540  Biso   1.000  F
  F44      1.0000 0.53230  0.90600  0.65540  Biso   1.000  F
  F45      1.0000 0.03230  0.59400  0.15540  Biso   1.000  F
  F46      1.0000 0.53230  0.09400  0.15540  Biso   1.000  F
  F47      1.0000 0.96770  0.59400  0.34460  Biso   1.000  F
  F48      1.0000 0.46770  0.09400  0.34460  Biso   1.000  F
  C9       1.0000 0.97771  0.22950  0.90610  Biso   1.000  C
  C10      1.0000 0.47771  0.72950  0.90610  Biso   1.000  C
  C11      1.0000 0.02229  0.22950  0.59390  Biso   1.000  C
  C12      1.0000 0.52229  0.72950  0.59390  Biso   1.000  C
  C13      1.0000 0.02229  0.77050  0.09390  Biso   1.000  C
  C14      1.0000 0.52229  0.27050  0.09390  Biso   1.000  C
  C15      1.0000 0.97771  0.77050  0.40610  Biso   1.000  C
  C16      1.0000 0.47771  0.27050  0.40610  Biso   1.000  C
  C17      1.0000 0.95453  0.31500  0.92770  Biso   1.000  C
  C18      1.0000 0.45453  0.81500  0.92770  Biso   1.000  C
  C19      1.0000 0.04547  0.31500  0.57230  Biso   1.000  C
  C20      1.0000 0.54547  0.81500  0.57230  Biso   1.000  C
  C21      1.0000 0.04547  0.68500  0.07230  Biso   1.000  C
  C22      1.0000 0.54547  0.18500  0.07230  Biso   1.000  C
  C23      1.0000 0.95453  0.68500  0.42770  Biso   1.000  C
  C24      1.0000 0.45453  0.18500  0.42770  Biso   1.000  C
  H1       1.0000 0.94670  0.39000  0.91040  Biso   1.000  H
  H2       1.0000 0.44670  0.89000  0.91040  Biso   1.000  H
  H3       1.0000 0.05330  0.39000  0.58960  Biso   1.000  H
  H4       1.0000 0.55330  0.89000  0.58960  Biso   1.000  H
  H5       1.0000 0.05330  0.61000  0.08960  Biso   1.000  H
  H6       1.0000 0.55330  0.11000  0.08960  Biso   1.000  H
  H7       1.0000 0.94670  0.61000  0.41040  Biso   1.000  H
  H8       1.0000 0.44670  0.11000  0.41040  Biso   1.000  H
  C25      1.0000 0.94661  0.27770  0.97420  Biso   1.000  C
  C26      1.0000 0.44661  0.77770  0.97420  Biso   1.000  C
  C27      1.0000 0.05339  0.27770  0.52580  Biso   1.000  C
  C28      1.0000 0.55339  0.77770  0.52580  Biso   1.000  C
  C29      1.0000 0.05339  0.72230  0.02580  Biso   1.000  C
  C30      1.0000 0.55339  0.22230  0.02580  Biso   1.000  C
  C31      1.0000 0.94661  0.72230  0.47420  Biso   1.000  C
  C32      1.0000 0.44661  0.22230  0.47420  Biso   1.000  C
  C33      1.0000 0.92000  0.38080  0.99340  Biso   1.000  C
  C34      1.0000 0.42000  0.88080  0.99340  Biso   1.000  C
  C35      1.0000 0.08000  0.38080  0.50660  Biso   1.000  C
  C36      1.0000 0.58000  0.88080  0.50660  Biso   1.000  C
  C37      1.0000 0.08000  0.61920  0.00660  Biso   1.000  C
  C38      1.0000 0.58000  0.11920  0.00660  Biso   1.000  C
  C39      1.0000 0.92000  0.61920  0.49340  Biso   1.000  C
  C40      1.0000 0.42000  0.11920  0.49340  Biso   1.000  C
  F49      1.0000 0.88270  0.33890  0.99310  Biso   1.000  F
  F50      1.0000 0.38270  0.83890  0.99310  Biso   1.000  F
  F51      1.0000 0.11730  0.33890  0.50690  Biso   1.000  F
  F52      1.0000 0.61730  0.83890  0.50690  Biso   1.000  F
  F53      1.0000 0.11730  0.66110  0.00690  Biso   1.000  F
  F54      1.0000 0.61730  0.16110  0.00690  Biso   1.000  F
  F55      1.0000 0.88270  0.66110  0.49310  Biso   1.000  F
  F56      1.0000 0.38270  0.16110  0.49310  Biso   1.000  F
  F57      1.0000 0.91570  0.35160  0.03470  Biso   1.000  F
  F58      1.0000 0.41570  0.85160  0.03470  Biso   1.000  F
  F59      1.0000 0.08430  0.35160  0.46530  Biso   1.000  F
  F60      1.0000 0.58430  0.85160  0.46530  Biso   1.000  F
  F61      1.0000 0.08430  0.64840  0.96530  Biso   1.000  F
  F62      1.0000 0.58430  0.14840  0.96530  Biso   1.000  F
  F63      1.0000 0.91570  0.64840  0.53470  Biso   1.000  F
  F64      1.0000 0.41570  0.14840  0.53470  Biso   1.000  F
  F65      1.0000 0.92130  0.51210  0.97580  Biso   1.000  F
  F66      1.0000 0.42130  0.01210  0.97580  Biso   1.000  F
  F67      1.0000 0.07870  0.51210  0.52420  Biso   1.000  F
  F68      1.0000 0.57870  0.01210  0.52420  Biso   1.000  F
  F69      1.0000 0.07870  0.48790  0.02420  Biso   1.000  F
  F70      1.0000 0.57870  0.98790  0.02420  Biso   1.000  F
  F71      1.0000 0.92130  0.48790  0.47580  Biso   1.000  F
  F72      1.0000 0.42130  0.98790  0.47580  Biso   1.000  F
  F73      1.0000 0.86210  0.38180  0.93420  Biso   1.000  F
  F74      1.0000 0.36210  0.88180  0.93420  Biso   1.000  F
  F75      1.0000 0.13790  0.38180  0.56580  Biso   1.000  F
  F76      1.0000 0.63790  0.88180  0.56580  Biso   1.000  F
  F77      1.0000 0.13790  0.61820  0.06580  Biso   1.000  F
  F78      1.0000 0.63790  0.11820  0.06580  Biso   1.000  F
  F79      1.0000 0.86210  0.61820  0.43420  Biso   1.000  F
  F80      1.0000 0.36210  0.11820  0.43420  Biso   1.000  F
  F81      1.0000 0.93060  0.50570  0.99320  Biso   1.000  F
  F82      1.0000 0.43060  0.00570  0.99320  Biso   1.000  F
  F83      1.0000 0.06940  0.50570  0.50680  Biso   1.000  F
  F84      1.0000 0.56940  0.00570  0.50680  Biso   1.000  F
  F85      1.0000 0.06940  0.49430  0.00680  Biso   1.000  F
  F86      1.0000 0.56940  0.99430  0.00680  Biso   1.000  F
  F87      1.0000 0.93060  0.49430  0.49320  Biso   1.000  F
  F88      1.0000 0.43060  0.99430  0.49320  Biso   1.000  F
  F89      1.0000 0.95920  0.39820  0.06650  Biso   1.000  F
  F90      1.0000 0.45920  0.89820  0.06650  Biso   1.000  F
  F91      1.0000 0.04080  0.39820  0.43350  Biso   1.000  F
  F92      1.0000 0.54080  0.89820  0.43350  Biso   1.000  F
  F93      1.0000 0.04080  0.60180  0.93350  Biso   1.000  F
  F94      1.0000 0.54080  0.10180  0.93350  Biso   1.000  F
  F95      1.0000 0.95920  0.60180  0.56650  Biso   1.000  F
  F96      1.0000 0.45920  0.10180  0.56650  Biso   1.000  F
  O9       1.0000 0.95780  0.16500  0.00351  Biso   1.000  O
  O10      1.0000 0.45780  0.66500  0.00351  Biso   1.000  O
  O11      1.0000 0.04220  0.16500  0.49649  Biso   1.000  O
  O12      1.0000 0.54220  0.66500  0.49649  Biso   1.000  O
  O13      1.0000 0.04220  0.83500  0.99649  Biso   1.000  O
  O14      1.0000 0.54220  0.33500  0.99649  Biso   1.000  O
  O15      1.0000 0.95780  0.83500  0.50351  Biso   1.000  O
  O16      1.0000 0.45780  0.33500  0.50351  Biso   1.000  O
  Cu1      1.0000 0.25000  0.75000  0.00000  Biso   1.000  Cu
  Cu2      1.0000 0.75000  0.25000  0.00000  Biso   1.000  Cu
  Cu3      1.0000 0.75000  0.75000  0.50000  Biso   1.000  Cu
  Cu4      1.0000 0.25000  0.25000  0.50000  Biso   1.000  Cu
  O17      1.0000 0.25571  0.91270  0.95521  Biso   1.000  O
  O18      1.0000 0.75571  0.41270  0.95521  Biso   1.000  O
  O19      1.0000 0.74429  0.91270  0.54479  Biso   1.000  O
  O20      1.0000 0.24429  0.41270  0.54479  Biso   1.000  O
  O21      1.0000 0.74429  0.08730  0.04479  Biso   1.000  O
  O22      1.0000 0.24429  0.58730  0.04479  Biso   1.000  O
  O23      1.0000 0.25571  0.08730  0.45521  Biso   1.000  O
  O24      1.0000 0.75571  0.58730  0.45521  Biso   1.000  O
  C41      1.0000 0.27230  0.13990  0.93820  Biso   1.000  C
  C42      1.0000 0.77230  0.63990  0.93820  Biso   1.000  C
  C43      1.0000 0.72770  0.13990  0.56180  Biso   1.000  C
  C44      1.0000 0.22770  0.63990  0.56180  Biso   1.000  C
  C45      1.0000 0.72770  0.86010  0.06180  Biso   1.000  C
  C46      1.0000 0.22770  0.36010  0.06180  Biso   1.000  C
  C47      1.0000 0.27230  0.86010  0.43820  Biso   1.000  C
  C48      1.0000 0.77230  0.36010  0.43820  Biso   1.000  C
  F97      1.0000 0.28740  0.10700  0.90190  Biso   1.000  F
  F98      1.0000 0.78740  0.60700  0.90190  Biso   1.000  F
  F99      1.0000 0.71260  0.10700  0.59810  Biso   1.000  F
  F100     1.0000 0.21260  0.60700  0.59810  Biso   1.000  F
  F101     1.0000 0.71260  0.89300  0.09810  Biso   1.000  F
  F102     1.0000 0.21260  0.39300  0.09810  Biso   1.000  F
  F103     1.0000 0.28740  0.89300  0.40190  Biso   1.000  F
  F104     1.0000 0.78740  0.39300  0.40190  Biso   1.000  F
  F105     1.0000 0.21900  0.15780  0.89730  Biso   1.000  F
  F106     1.0000 0.71900  0.65780  0.89730  Biso   1.000  F
  F107     1.0000 0.78100  0.15780  0.60270  Biso   1.000  F
  F108     1.0000 0.28100  0.65780  0.60270  Biso   1.000  F
  F109     1.0000 0.78100  0.84220  0.10270  Biso   1.000  F
  F110     1.0000 0.28100  0.34220  0.10270  Biso   1.000  F
  F111     1.0000 0.21900  0.84220  0.39730  Biso   1.000  F
  F112     1.0000 0.71900  0.34220  0.39730  Biso   1.000  F
  F113     1.0000 0.29290  0.25250  0.96630  Biso   1.000  F
  F114     1.0000 0.79290  0.75250  0.96630  Biso   1.000  F
  F115     1.0000 0.70710  0.25250  0.53370  Biso   1.000  F
  F116     1.0000 0.20710  0.75250  0.53370  Biso   1.000  F
  F117     1.0000 0.70710  0.74750  0.03370  Biso   1.000  F
  F118     1.0000 0.20710  0.24750  0.03370  Biso   1.000  F
  F119     1.0000 0.29290  0.74750  0.46630  Biso   1.000  F
  F120     1.0000 0.79290  0.24750  0.46630  Biso   1.000  F
  F121     1.0000 0.31770  0.15540  0.93620  Biso   1.000  F
  F122     1.0000 0.81770  0.65540  0.93620  Biso   1.000  F
  F123     1.0000 0.68230  0.15540  0.56380  Biso   1.000  F
  F124     1.0000 0.18230  0.65540  0.56380  Biso   1.000  F
  F125     1.0000 0.68230  0.84460  0.06380  Biso   1.000  F
  F126     1.0000 0.18230  0.34460  0.06380  Biso   1.000  F
  F127     1.0000 0.31770  0.84460  0.43620  Biso   1.000  F
  F128     1.0000 0.81770  0.34460  0.43620  Biso   1.000  F
  F129     1.0000 0.23660  0.13130  0.88610  Biso   1.000  F
  F130     1.0000 0.73660  0.63130  0.88610  Biso   1.000  F
  F131     1.0000 0.76340  0.13130  0.61390  Biso   1.000  F
  F132     1.0000 0.26340  0.63130  0.61390  Biso   1.000  F
  F133     1.0000 0.76340  0.86870  0.11390  Biso   1.000  F
  F134     1.0000 0.26340  0.36870  0.11390  Biso   1.000  F
  F135     1.0000 0.23660  0.86870  0.38610  Biso   1.000  F
  F136     1.0000 0.73660  0.36870  0.38610  Biso   1.000  F
  F137     1.0000 0.27640  0.26230  0.96300  Biso   1.000  F
  F138     1.0000 0.77640  0.76230  0.96300  Biso   1.000  F
  F139     1.0000 0.72360  0.26230  0.53700  Biso   1.000  F
  F140     1.0000 0.22360  0.76230  0.53700  Biso   1.000  F
  F141     1.0000 0.72360  0.73770  0.03700  Biso   1.000  F
  F142     1.0000 0.22360  0.23770  0.03700  Biso   1.000  F
  F143     1.0000 0.27640  0.73770  0.46300  Biso   1.000  F
  F144     1.0000 0.77640  0.23770  0.46300  Biso   1.000  F
  C49      1.0000 0.28288  0.01840  0.98339  Biso   1.000  C
  C50      1.0000 0.78288  0.51840  0.98339  Biso   1.000  C
  C51      1.0000 0.71712  0.01840  0.51661  Biso   1.000  C
  C52      1.0000 0.21712  0.51840  0.51661  Biso   1.000  C
  C53      1.0000 0.71712  0.98160  0.01661  Biso   1.000  C
  C54      1.0000 0.21712  0.48160  0.01661  Biso   1.000  C
  C55      1.0000 0.28288  0.98160  0.48339  Biso   1.000  C
  C56      1.0000 0.78288  0.48160  0.48339  Biso   1.000  C
  C57      1.0000 0.31846  0.03890  0.04801  Biso   1.000  C
  C58      1.0000 0.81846  0.53890  0.04801  Biso   1.000  C
  C59      1.0000 0.68154  0.03890  0.45199  Biso   1.000  C
  C60      1.0000 0.18154  0.53890  0.45199  Biso   1.000  C
  C61      1.0000 0.68154  0.96110  0.95199  Biso   1.000  C
  C62      1.0000 0.18154  0.46110  0.95199  Biso   1.000  C
  C63      1.0000 0.31846  0.96110  0.54801  Biso   1.000  C
  C64      1.0000 0.81846  0.46110  0.54801  Biso   1.000  C
  H9       1.0000 0.33280  0.11900  0.05960  Biso   1.000  H
  H10      1.0000 0.83280  0.61900  0.05960  Biso   1.000  H
  H11      1.0000 0.66720  0.11900  0.44040  Biso   1.000  H
  H12      1.0000 0.16720  0.61900  0.44040  Biso   1.000  H
  H13      1.0000 0.66720  0.88100  0.94040  Biso   1.000  H
  H14      1.0000 0.16720  0.38100  0.94040  Biso   1.000  H
  H15      1.0000 0.33280  0.88100  0.55960  Biso   1.000  H
  H16      1.0000 0.83280  0.38100  0.55960  Biso   1.000  H
  C65      1.0000 0.32883  0.94110  0.09368  Biso   1.000  C
  C66      1.0000 0.82883  0.44110  0.09368  Biso   1.000  C
  C67      1.0000 0.67117  0.94110  0.40632  Biso   1.000  C
  C68      1.0000 0.17117  0.44110  0.40632  Biso   1.000  C
  C69      1.0000 0.67117  0.05890  0.90632  Biso   1.000  C
  C70      1.0000 0.17117  0.55890  0.90632  Biso   1.000  C
  C71      1.0000 0.32883  0.05890  0.59368  Biso   1.000  C
  C72      1.0000 0.82883  0.55890  0.59368  Biso   1.000  C
  C73      1.0000 0.36920  0.97750  0.16390  Biso   1.000  C
  C74      1.0000 0.86920  0.47750  0.16390  Biso   1.000  C
  C75      1.0000 0.63080  0.97750  0.33610  Biso   1.000  C
  C76      1.0000 0.13080  0.47750  0.33610  Biso   1.000  C
  C77      1.0000 0.63080  0.02250  0.83610  Biso   1.000  C
  C78      1.0000 0.13080  0.52250  0.83610  Biso   1.000  C
  C79      1.0000 0.36920  0.02250  0.66390  Biso   1.000  C
  C80      1.0000 0.86920  0.52250  0.66390  Biso   1.000  C
  F145     1.0000 0.40270  0.07200  0.17520  Biso   1.000  F
  F146     1.0000 0.90270  0.57200  0.17520  Biso   1.000  F
  F147     1.0000 0.59730  0.07200  0.32480  Biso   1.000  F
  F148     1.0000 0.09730  0.57200  0.32480  Biso   1.000  F
  F149     1.0000 0.59730  0.92800  0.82480  Biso   1.000  F
  F150     1.0000 0.09730  0.42800  0.82480  Biso   1.000  F
  F151     1.0000 0.40270  0.92800  0.67520  Biso   1.000  F
  F152     1.0000 0.90270  0.42800  0.67520  Biso   1.000  F
  F153     1.0000 0.34210  0.02300  0.18720  Biso   1.000  F
  F154     1.0000 0.84210  0.52300  0.18720  Biso   1.000  F
  F155     1.0000 0.65790  0.02300  0.31280  Biso   1.000  F
  F156     1.0000 0.15790  0.52300  0.31280  Biso   1.000  F
  F157     1.0000 0.65790  0.97700  0.81280  Biso   1.000  F
  F158     1.0000 0.15790  0.47700  0.81280  Biso   1.000  F
  F159     1.0000 0.34210  0.97700  0.68720  Biso   1.000  F
  F160     1.0000 0.84210  0.47700  0.68720  Biso   1.000  F
  F161     1.0000 0.39630  0.87410  0.19850  Biso   1.000  F
  F162     1.0000 0.89630  0.37410  0.19850  Biso   1.000  F
  F163     1.0000 0.60370  0.87410  0.30150  Biso   1.000  F
  F164     1.0000 0.10370  0.37410  0.30150  Biso   1.000  F
  F165     1.0000 0.60370  0.12590  0.80150  Biso   1.000  F
  F166     1.0000 0.10370  0.62590  0.80150  Biso   1.000  F
  F167     1.0000 0.39630  0.12590  0.69850  Biso   1.000  F
  F168     1.0000 0.89630  0.62590  0.69850  Biso   1.000  F
  F169     1.0000 0.41420  0.92300  0.18230  Biso   1.000  F
  F170     1.0000 0.91420  0.42300  0.18230  Biso   1.000  F
  F171     1.0000 0.58580  0.92300  0.31770  Biso   1.000  F
  F172     1.0000 0.08580  0.42300  0.31770  Biso   1.000  F
  F173     1.0000 0.58580  0.07700  0.81770  Biso   1.000  F
  F174     1.0000 0.08580  0.57700  0.81770  Biso   1.000  F
  F175     1.0000 0.41420  0.07700  0.68230  Biso   1.000  F
  F176     1.0000 0.91420  0.57700  0.68230  Biso   1.000  F
  F177     1.0000 0.37840  0.11010  0.17220  Biso   1.000  F
  F178     1.0000 0.87840  0.61010  0.17220  Biso   1.000  F
  F179     1.0000 0.62160  0.11010  0.32780  Biso   1.000  F
  F180     1.0000 0.12160  0.61010  0.32780  Biso   1.000  F
  F181     1.0000 0.62160  0.88990  0.82780  Biso   1.000  F
  F182     1.0000 0.12160  0.38990  0.82780  Biso   1.000  F
  F183     1.0000 0.37840  0.88990  0.67220  Biso   1.000  F
  F184     1.0000 0.87840  0.38990  0.67220  Biso   1.000  F
  F185     1.0000 0.35650  0.94400  0.20030  Biso   1.000  F
  F186     1.0000 0.85650  0.44400  0.20030  Biso   1.000  F
  F187     1.0000 0.64350  0.94400  0.29970  Biso   1.000  F
  F188     1.0000 0.14350  0.44400  0.29970  Biso   1.000  F
  F189     1.0000 0.64350  0.05600  0.79970  Biso   1.000  F
  F190     1.0000 0.14350  0.55600  0.79970  Biso   1.000  F
  F191     1.0000 0.35650  0.05600  0.70030  Biso   1.000  F
  F192     1.0000 0.85650  0.55600  0.70030  Biso   1.000  F
  O25      1.0000 0.30848  0.82330  0.08495  Biso   1.000  O
  O26      1.0000 0.80848  0.32330  0.08495  Biso   1.000  O
  O27      1.0000 0.69152  0.82330  0.41505  Biso   1.000  O
  O28      1.0000 0.19152  0.32330  0.41505  Biso   1.000  O
  O29      1.0000 0.69152  0.17670  0.91505  Biso   1.000  O
  O30      1.0000 0.19152  0.67670  0.91505  Biso   1.000  O
  O31      1.0000 0.30848  0.17670  0.58495  Biso   1.000  O
  O32      1.0000 0.80848  0.67670  0.58495  Biso   1.000  O
  O33      1.0000 0.07070  0.13140  0.05588  Biso   1.000  O
  O34      1.0000 0.57070  0.63140  0.05588  Biso   1.000  O
  O35      1.0000 0.92930  0.13140  0.44412  Biso   1.000  O
  O36      1.0000 0.42930  0.63140  0.44412  Biso   1.000  O
  O37      1.0000 0.92930  0.86860  0.94412  Biso   1.000  O
  O38      1.0000 0.42930  0.36860  0.94412  Biso   1.000  O
  O39      1.0000 0.07070  0.86860  0.55588  Biso   1.000  O
  O40      1.0000 0.57070  0.36860  0.55588  Biso   1.000  O
  N1       1.0000 0.11458  0.10200  0.11045  Biso   1.000  N
  N2       1.0000 0.61458  0.60200  0.11045  Biso   1.000  N
  N3       1.0000 0.88542  0.10200  0.38955  Biso   1.000  N
  N4       1.0000 0.38542  0.60200  0.38955  Biso   1.000  N
  N5       1.0000 0.88542  0.89800  0.88955  Biso   1.000  N
  N6       1.0000 0.38542  0.39800  0.88955  Biso   1.000  N
  N7       1.0000 0.11458  0.89800  0.61045  Biso   1.000  N
  N8       1.0000 0.61458  0.39800  0.61045  Biso   1.000  N
  C81      1.0000 0.12737  0.16350  0.17213  Biso   1.000  C
  C82      1.0000 0.62737  0.66350  0.17213  Biso   1.000  C
  C83      1.0000 0.87263  0.16350  0.32787  Biso   1.000  C
  C84      1.0000 0.37263  0.66350  0.32787  Biso   1.000  C
  C85      1.0000 0.87263  0.83650  0.82787  Biso   1.000  C
  C86      1.0000 0.37263  0.33650  0.82787  Biso   1.000  C
  C87      1.0000 0.12737  0.83650  0.67213  Biso   1.000  C
  C88      1.0000 0.62737  0.33650  0.67213  Biso   1.000  C
  C89      1.0000 0.07950  0.15770  0.17540  Biso   1.000  C
  C90      1.0000 0.57950  0.65770  0.17540  Biso   1.000  C
  C91      1.0000 0.92050  0.15770  0.32460  Biso   1.000  C
  C92      1.0000 0.42050  0.65770  0.32460  Biso   1.000  C
  C93      1.0000 0.92050  0.84230  0.82460  Biso   1.000  C
  C94      1.0000 0.42050  0.34230  0.82460  Biso   1.000  C
  C95      1.0000 0.07950  0.84230  0.67540  Biso   1.000  C
  C96      1.0000 0.57950  0.34230  0.67540  Biso   1.000  C
  H17      1.0000 0.06540  0.07800  0.17060  Biso   1.000  H
  H18      1.0000 0.56540  0.57800  0.17060  Biso   1.000  H
  H19      1.0000 0.93460  0.07800  0.32940  Biso   1.000  H
  H20      1.0000 0.43460  0.57800  0.32940  Biso   1.000  H
  H21      1.0000 0.93460  0.92200  0.82940  Biso   1.000  H
  H22      1.0000 0.43460  0.42200  0.82940  Biso   1.000  H
  H23      1.0000 0.06540  0.92200  0.67060  Biso   1.000  H
  H24      1.0000 0.56540  0.42200  0.67060  Biso   1.000  H
  H25      1.0000 0.90860  0.95100  0.13100  Biso   1.000  H
  H26      1.0000 0.40860  0.45100  0.13100  Biso   1.000  H
  H27      1.0000 0.09140  0.95100  0.36900  Biso   1.000  H
  H28      1.0000 0.59140  0.45100  0.36900  Biso   1.000  H
  H29      1.0000 0.09140  0.04900  0.86900  Biso   1.000  H
  H30      1.0000 0.59140  0.54900  0.86900  Biso   1.000  H
  H31      1.0000 0.90860  0.04900  0.63100  Biso   1.000  H
  H32      1.0000 0.40860  0.54900  0.63100  Biso   1.000  H
  H33      1.0000 0.08960  0.17400  0.21900  Biso   1.000  H
  H34      1.0000 0.58960  0.67400  0.21900  Biso   1.000  H
  H35      1.0000 0.91040  0.17400  0.28100  Biso   1.000  H
  H36      1.0000 0.41040  0.67400  0.28100  Biso   1.000  H
  H37      1.0000 0.91040  0.82600  0.78100  Biso   1.000  H
  H38      1.0000 0.41040  0.32600  0.78100  Biso   1.000  H
  H39      1.0000 0.08960  0.82600  0.71900  Biso   1.000  H
  H40      1.0000 0.58960  0.32600  0.71900  Biso   1.000  H
  C97      1.0000 0.14100  0.31570  0.17030  Biso   1.000  C
  C98      1.0000 0.64100  0.81570  0.17030  Biso   1.000  C
  C99      1.0000 0.85900  0.31570  0.32970  Biso   1.000  C
  C100     1.0000 0.35900  0.81570  0.32970  Biso   1.000  C
  C101     1.0000 0.85900  0.68430  0.82970  Biso   1.000  C
  C102     1.0000 0.35900  0.18430  0.82970  Biso   1.000  C
  C103     1.0000 0.14100  0.68430  0.67030  Biso   1.000  C
  C104     1.0000 0.64100  0.18430  0.67030  Biso   1.000  C
  H41      1.0000 0.16520  0.31900  0.16970  Biso   1.000  H
  H42      1.0000 0.66520  0.81900  0.16970  Biso   1.000  H
  H43      1.0000 0.83480  0.31900  0.33030  Biso   1.000  H
  H44      1.0000 0.33480  0.81900  0.33030  Biso   1.000  H
  H45      1.0000 0.83480  0.68100  0.83030  Biso   1.000  H
  H46      1.0000 0.33480  0.18100  0.83030  Biso   1.000  H
  H47      1.0000 0.16520  0.68100  0.66970  Biso   1.000  H
  H48      1.0000 0.66520  0.18100  0.66970  Biso   1.000  H
  H49      1.0000 0.14480  0.36400  0.20010  Biso   1.000  H
  H50      1.0000 0.64480  0.86400  0.20010  Biso   1.000  H
  H51      1.0000 0.85520  0.36400  0.29990  Biso   1.000  H
  H52      1.0000 0.35520  0.86400  0.29990  Biso   1.000  H
  H53      1.0000 0.85520  0.63600  0.79990  Biso   1.000  H
  H54      1.0000 0.35520  0.13600  0.79990  Biso   1.000  H
  H55      1.0000 0.14480  0.63600  0.70010  Biso   1.000  H
  H56      1.0000 0.64480  0.13600  0.70010  Biso   1.000  H
  H57      1.0000 0.04800  0.21700  0.14900  Biso   1.000  H
  H58      1.0000 0.54800  0.71700  0.14900  Biso   1.000  H
  H59      1.0000 0.95200  0.21700  0.35100  Biso   1.000  H
  H60      1.0000 0.45200  0.71700  0.35100  Biso   1.000  H
  H61      1.0000 0.95200  0.78300  0.85100  Biso   1.000  H
  H62      1.0000 0.45200  0.28300  0.85100  Biso   1.000  H
  H63      1.0000 0.04800  0.78300  0.64900  Biso   1.000  H
  H64      1.0000 0.54800  0.28300  0.64900  Biso   1.000  H
  C105     1.0000 0.17503  0.07090  0.22011  Biso   1.000  C
  C106     1.0000 0.67503  0.57090  0.22011  Biso   1.000  C
  C107     1.0000 0.82497  0.07090  0.27989  Biso   1.000  C
  C108     1.0000 0.32497  0.57090  0.27989  Biso   1.000  C
  C109     1.0000 0.82497  0.92910  0.77989  Biso   1.000  C
  C110     1.0000 0.32497  0.42910  0.77989  Biso   1.000  C
  C111     1.0000 0.17503  0.92910  0.72011  Biso   1.000  C
  C112     1.0000 0.67503  0.42910  0.72011  Biso   1.000  C
  C113     1.0000 0.21910  0.14500  0.28050  Biso   1.000  C
  C114     1.0000 0.71910  0.64500  0.28050  Biso   1.000  C
  C115     1.0000 0.78090  0.14500  0.21950  Biso   1.000  C
  C116     1.0000 0.28090  0.64500  0.21950  Biso   1.000  C
  C117     1.0000 0.78090  0.85500  0.71950  Biso   1.000  C
  C118     1.0000 0.28090  0.35500  0.71950  Biso   1.000  C
  C119     1.0000 0.21910  0.85500  0.78050  Biso   1.000  C
  C120     1.0000 0.71910  0.35500  0.78050  Biso   1.000  C
  H65      1.0000 0.20660  0.16600  0.29670  Biso   1.000  H
  H66      1.0000 0.70660  0.66600  0.29670  Biso   1.000  H
  H67      1.0000 0.79340  0.16600  0.20330  Biso   1.000  H
  H68      1.0000 0.29340  0.66600  0.20330  Biso   1.000  H
  H69      1.0000 0.79340  0.83400  0.70330  Biso   1.000  H
  H70      1.0000 0.29340  0.33400  0.70330  Biso   1.000  H
  H71      1.0000 0.20660  0.83400  0.79670  Biso   1.000  H
  H72      1.0000 0.70660  0.33400  0.79670  Biso   1.000  H
  H73      1.0000 0.24580  0.09100  0.30250  Biso   1.000  H
  H74      1.0000 0.74580  0.59100  0.30250  Biso   1.000  H
  H75      1.0000 0.75420  0.09100  0.19750  Biso   1.000  H
  H76      1.0000 0.25420  0.59100  0.19750  Biso   1.000  H
  H77      1.0000 0.75420  0.90900  0.69750  Biso   1.000  H
  H78      1.0000 0.25420  0.40900  0.69750  Biso   1.000  H
  H79      1.0000 0.24580  0.90900  0.80250  Biso   1.000  H
  H80      1.0000 0.74580  0.40900  0.80250  Biso   1.000  H
  H81      1.0000 0.04200  0.48300  0.29200  Biso   1.000  H
  H82      1.0000 0.54200  0.98300  0.29200  Biso   1.000  H
  H83      1.0000 0.95800  0.48300  0.20800  Biso   1.000  H
  H84      1.0000 0.45800  0.98300  0.20800  Biso   1.000  H
  H85      1.0000 0.95800  0.51700  0.70800  Biso   1.000  H
  H86      1.0000 0.45800  0.01700  0.70800  Biso   1.000  H
  H87      1.0000 0.04200  0.51700  0.79200  Biso   1.000  H
  H88      1.0000 0.54200  0.01700  0.79200  Biso   1.000  H
  C121     1.0000 0.15800  0.93450  0.23600  Biso   1.000  C
  C122     1.0000 0.65800  0.43450  0.23600  Biso   1.000  C
  C123     1.0000 0.84200  0.93450  0.26400  Biso   1.000  C
  C124     1.0000 0.34200  0.43450  0.26400  Biso   1.000  C
  C125     1.0000 0.84200  0.06550  0.76400  Biso   1.000  C
  C126     1.0000 0.34200  0.56550  0.76400  Biso   1.000  C
  C127     1.0000 0.15800  0.06550  0.73600  Biso   1.000  C
  C128     1.0000 0.65800  0.56550  0.73600  Biso   1.000  C
  H89      1.0000 0.13140  0.88400  0.19740  Biso   1.000  H
  H90      1.0000 0.63140  0.38400  0.19740  Biso   1.000  H
  H91      1.0000 0.86860  0.88400  0.30260  Biso   1.000  H
  H92      1.0000 0.36860  0.38400  0.30260  Biso   1.000  H
  H93      1.0000 0.86860  0.11600  0.80260  Biso   1.000  H
  H94      1.0000 0.36860  0.61600  0.80260  Biso   1.000  H
  H95      1.0000 0.13140  0.11600  0.69740  Biso   1.000  H
  H96      1.0000 0.63140  0.61600  0.69740  Biso   1.000  H
  H97      1.0000 0.90000  0.98100  0.16500  Biso   1.000  H
  H98      1.0000 0.40000  0.48100  0.16500  Biso   1.000  H
  H99      1.0000 0.10000  0.98100  0.33500  Biso   1.000  H
  H100     1.0000 0.60000  0.48100  0.33500  Biso   1.000  H
  H101     1.0000 0.10000  0.01900  0.83500  Biso   1.000  H
  H102     1.0000 0.60000  0.51900  0.83500  Biso   1.000  H
  H103     1.0000 0.90000  0.01900  0.66500  Biso   1.000  H
  H104     1.0000 0.40000  0.51900  0.66500  Biso   1.000  H
  H105     1.0000 0.18400  0.88300  0.25360  Biso   1.000  H
  H106     1.0000 0.68400  0.38300  0.25360  Biso   1.000  H
  H107     1.0000 0.81600  0.88300  0.24640  Biso   1.000  H
  H108     1.0000 0.31600  0.38300  0.24640  Biso   1.000  H
  H109     1.0000 0.81600  0.11700  0.74640  Biso   1.000  H
  H110     1.0000 0.31600  0.61700  0.74640  Biso   1.000  H
  H111     1.0000 0.18400  0.11700  0.75360  Biso   1.000  H
  H112     1.0000 0.68400  0.61700  0.75360  Biso   1.000  H
  N9       1.0000 0.19532  0.03150  0.18008  Biso   1.000  N
  N10      1.0000 0.69532  0.53150  0.18008  Biso   1.000  N
  N11      1.0000 0.80468  0.03150  0.31992  Biso   1.000  N
  N12      1.0000 0.30468  0.53150  0.31992  Biso   1.000  N
  N13      1.0000 0.80468  0.96850  0.81992  Biso   1.000  N
  N14      1.0000 0.30468  0.46850  0.81992  Biso   1.000  N
  N15      1.0000 0.19532  0.96850  0.68008  Biso   1.000  N
  N16      1.0000 0.69532  0.46850  0.68008  Biso   1.000  N
  O41      1.0000 0.24112  0.98030  0.20368  Biso   1.000  O
  O42      1.0000 0.74112  0.48030  0.20368  Biso   1.000  O
  O43      1.0000 0.75888  0.98030  0.29632  Biso   1.000  O
  O44      1.0000 0.25888  0.48030  0.29632  Biso   1.000  O
  O45      1.0000 0.75888  0.01970  0.79632  Biso   1.000  O
  O46      1.0000 0.25888  0.51970  0.79632  Biso   1.000  O
  O47      1.0000 0.24112  0.01970  0.70368  Biso   1.000  O
  O48      1.0000 0.74112  0.51970  0.70368  Biso   1.000  O
  C129     1.0000 0.15675  0.03980  0.11695  Biso   1.000  C
  C130     1.0000 0.65675  0.53980  0.11695  Biso   1.000  C
  C131     1.0000 0.84325  0.03980  0.38305  Biso   1.000  C
  C132     1.0000 0.34325  0.53980  0.38305  Biso   1.000  C
  C133     1.0000 0.84325  0.96020  0.88305  Biso   1.000  C
  C134     1.0000 0.34325  0.46020  0.88305  Biso   1.000  C
  C135     1.0000 0.15675  0.96020  0.61695  Biso   1.000  C
  C136     1.0000 0.65675  0.46020  0.61695  Biso   1.000  C
  C137     1.0000 0.16071  0.99210  0.06594  Biso   1.000  C
  C138     1.0000 0.66071  0.49210  0.06594  Biso   1.000  C
  C139     1.0000 0.83929  0.99210  0.43406  Biso   1.000  C
  C140     1.0000 0.33929  0.49210  0.43406  Biso   1.000  C
  C141     1.0000 0.83929  0.00790  0.93406  Biso   1.000  C
  C142     1.0000 0.33929  0.50790  0.93406  Biso   1.000  C
  C143     1.0000 0.16071  0.00790  0.56594  Biso   1.000  C
  C144     1.0000 0.66071  0.50790  0.56594  Biso   1.000  C
  C145     1.0000 0.20057  0.91050  0.06985  Biso   1.000  C
  C146     1.0000 0.70057  0.41050  0.06985  Biso   1.000  C
  C147     1.0000 0.79943  0.91050  0.43015  Biso   1.000  C
  C148     1.0000 0.29943  0.41050  0.43015  Biso   1.000  C
  C149     1.0000 0.79943  0.08950  0.93015  Biso   1.000  C
  C150     1.0000 0.29943  0.58950  0.93015  Biso   1.000  C
  C151     1.0000 0.20057  0.08950  0.56985  Biso   1.000  C
  C152     1.0000 0.70057  0.58950  0.56985  Biso   1.000  C
  H113     1.0000 0.22850  0.87000  0.10350  Biso   1.000  H
  H114     1.0000 0.72850  0.37000  0.10350  Biso   1.000  H
  H115     1.0000 0.77150  0.87000  0.39650  Biso   1.000  H
  H116     1.0000 0.27150  0.37000  0.39650  Biso   1.000  H
  H117     1.0000 0.77150  0.13000  0.89650  Biso   1.000  H
  H118     1.0000 0.27150  0.63000  0.89650  Biso   1.000  H
  H119     1.0000 0.22850  0.13000  0.60350  Biso   1.000  H
  H120     1.0000 0.72850  0.63000  0.60350  Biso   1.000  H
  N17      1.0000 0.19184  0.88750  0.01337  Biso   1.000  N
  N18      1.0000 0.69184  0.38750  0.01337  Biso   1.000  N
  N19      1.0000 0.80816  0.88750  0.48663  Biso   1.000  N
  N20      1.0000 0.30816  0.38750  0.48663  Biso   1.000  N
  N21      1.0000 0.80816  0.11250  0.98663  Biso   1.000  N
  N22      1.0000 0.30816  0.61250  0.98663  Biso   1.000  N
  N23      1.0000 0.19184  0.11250  0.51337  Biso   1.000  N
  N24      1.0000 0.69184  0.61250  0.51337  Biso   1.000  N
  N25      1.0000 0.14566  0.95680  0.97172  Biso   1.000  N
  N26      1.0000 0.64566  0.45680  0.97172  Biso   1.000  N
  N27      1.0000 0.85434  0.95680  0.52828  Biso   1.000  N
  N28      1.0000 0.35434  0.45680  0.52828  Biso   1.000  N
  N29      1.0000 0.85434  0.04320  0.02828  Biso   1.000  N
  N30      1.0000 0.35434  0.54320  0.02828  Biso   1.000  N
  N31      1.0000 0.14566  0.04320  0.47172  Biso   1.000  N
  N32      1.0000 0.64566  0.54320  0.47172  Biso   1.000  N
  C153     1.0000 0.12320  0.95790  0.90340  Biso   1.000  C
  C154     1.0000 0.62320  0.45790  0.90340  Biso   1.000  C
  C155     1.0000 0.87680  0.95790  0.59660  Biso   1.000  C
  C156     1.0000 0.37680  0.45790  0.59660  Biso   1.000  C
  C157     1.0000 0.87680  0.04210  0.09660  Biso   1.000  C
  C158     1.0000 0.37680  0.54210  0.09660  Biso   1.000  C
  C159     1.0000 0.12320  0.04210  0.40340  Biso   1.000  C
  C160     1.0000 0.62320  0.54210  0.40340  Biso   1.000  C
  H121     1.0000 0.12460  0.06600  0.88400  Biso   1.000  H
  H122     1.0000 0.62460  0.56600  0.88400  Biso   1.000  H
  H123     1.0000 0.87540  0.06600  0.61600  Biso   1.000  H
  H124     1.0000 0.37540  0.56600  0.61600  Biso   1.000  H
  H125     1.0000 0.87540  0.93400  0.11600  Biso   1.000  H
  H126     1.0000 0.37540  0.43400  0.11600  Biso   1.000  H
  H127     1.0000 0.12460  0.93400  0.38400  Biso   1.000  H
  H128     1.0000 0.62460  0.43400  0.38400  Biso   1.000  H
  H129     1.0000 0.14930  0.93100  0.89670  Biso   1.000  H
  H130     1.0000 0.64930  0.43100  0.89670  Biso   1.000  H
  H131     1.0000 0.85070  0.93100  0.60330  Biso   1.000  H
  H132     1.0000 0.35070  0.43100  0.60330  Biso   1.000  H
  H133     1.0000 0.85070  0.06900  0.10330  Biso   1.000  H
  H134     1.0000 0.35070  0.56900  0.10330  Biso   1.000  H
  H135     1.0000 0.14930  0.06900  0.39670  Biso   1.000  H
  H136     1.0000 0.64930  0.56900  0.39670  Biso   1.000  H
  C161     1.0000 0.07130  0.90070  0.86500  Biso   1.000  C
  C162     1.0000 0.57130  0.40070  0.86500  Biso   1.000  C
  C163     1.0000 0.92870  0.90070  0.63500  Biso   1.000  C
  C164     1.0000 0.42870  0.40070  0.63500  Biso   1.000  C
  C165     1.0000 0.92870  0.09930  0.13500  Biso   1.000  C
  C166     1.0000 0.42870  0.59930  0.13500  Biso   1.000  C
  C167     1.0000 0.07130  0.09930  0.36500  Biso   1.000  C
  C168     1.0000 0.57130  0.59930  0.36500  Biso   1.000  C
  H137     1.0000 0.05940  0.90340  0.82070  Biso   1.000  H
  H138     1.0000 0.55940  0.40340  0.82070  Biso   1.000  H
  H139     1.0000 0.94060  0.90340  0.67930  Biso   1.000  H
  H140     1.0000 0.44060  0.40340  0.67930  Biso   1.000  H
  H141     1.0000 0.94060  0.09660  0.17930  Biso   1.000  H
  H142     1.0000 0.44060  0.59660  0.17930  Biso   1.000  H
  H143     1.0000 0.05940  0.09660  0.32070  Biso   1.000  H
  H144     1.0000 0.55940  0.59660  0.32070  Biso   1.000  H
  H145     1.0000 0.04750  0.95430  0.87060  Biso   1.000  H
  H146     1.0000 0.54750  0.45430  0.87060  Biso   1.000  H
  H147     1.0000 0.95250  0.95430  0.62940  Biso   1.000  H
  H148     1.0000 0.45250  0.45430  0.62940  Biso   1.000  H
  H149     1.0000 0.95250  0.04570  0.12940  Biso   1.000  H
  H150     1.0000 0.45250  0.54570  0.12940  Biso   1.000  H
  H151     1.0000 0.04750  0.04570  0.37060  Biso   1.000  H
  H152     1.0000 0.54750  0.54570  0.37060  Biso   1.000  H
  H153     1.0000 0.07200  0.80560  0.87750  Biso   1.000  H
  H154     1.0000 0.57200  0.30560  0.87750  Biso   1.000  H
  H155     1.0000 0.92800  0.80560  0.62250  Biso   1.000  H
  H156     1.0000 0.42800  0.30560  0.62250  Biso   1.000  H
  H157     1.0000 0.92800  0.19440  0.12250  Biso   1.000  H
  H158     1.0000 0.42800  0.69440  0.12250  Biso   1.000  H
  H159     1.0000 0.07200  0.19440  0.37750  Biso   1.000  H
  H160     1.0000 0.57200  0.69440  0.37750  Biso   1.000  H
  C169     1.0000 0.12660  0.01860  0.00173  Biso   1.000  C
  C170     1.0000 0.62660  0.51860  0.00173  Biso   1.000  C
  C171     1.0000 0.87340  0.01860  0.49827  Biso   1.000  C
  C172     1.0000 0.37340  0.51860  0.49827  Biso   1.000  C
  C173     1.0000 0.87340  0.98140  0.99827  Biso   1.000  C
  C174     1.0000 0.37340  0.48140  0.99827  Biso   1.000  C
  C175     1.0000 0.12660  0.98140  0.50173  Biso   1.000  C
  C176     1.0000 0.62660  0.48140  0.50173  Biso   1.000  C
  H161     1.0000 0.09720  0.06400  0.97930  Biso   1.000  H
  H162     1.0000 0.59720  0.56400  0.97930  Biso   1.000  H
  H163     1.0000 0.90280  0.06400  0.52070  Biso   1.000  H
  H164     1.0000 0.40280  0.56400  0.52070  Biso   1.000  H
  H165     1.0000 0.90280  0.93600  0.02070  Biso   1.000  H
  H166     1.0000 0.40280  0.43600  0.02070  Biso   1.000  H
  H167     1.0000 0.09720  0.93600  0.47930  Biso   1.000  H
  H168     1.0000 0.59720  0.43600  0.47930  Biso   1.000  H
