data_image0
_cell_length_a       30.383
_cell_length_b       9.5555
_cell_length_c       25.0755
_cell_angle_alpha    90
_cell_angle_beta     123.569
_cell_angle_gamma    90

_symmetry_space_group_name_H-M    "P 1"
_symmetry_int_tables_number       1

loop_
  _symmetry_equiv_pos_as_xyz
  'x, y, z'

loop_
  _atom_site_label
  _atom_site_occupancy
  _atom_site_fract_x
  _atom_site_fract_y
  _atom_site_fract_z
  _atom_site_thermal_displace_type
  _atom_site_B_iso_or_equiv
  _atom_site_type_symbol
  Cu1      1.0000 0.00000  0.00000  0.00000  Biso   1.000  Cu
  Cu2      1.0000 0.50000  0.50000  0.00000  Biso   1.000  Cu
  Cu3      1.0000 0.00000  0.00000  0.50000  Biso   1.000  Cu
  Cu4      1.0000 0.50000  0.50000  0.50000  Biso   1.000  Cu
  O1       1.0000 0.99470  0.09700  0.92485  Biso   1.000  O
  O2       1.0000 0.49470  0.59700  0.92485  Biso   1.000  O
  O3       1.0000 0.00530  0.09700  0.57515  Biso   1.000  O
  O4       1.0000 0.50530  0.59700  0.57515  Biso   1.000  O
  O5       1.0000 0.00530  0.90300  0.07515  Biso   1.000  O
  O6       1.0000 0.50530  0.40300  0.07515  Biso   1.000  O
  O7       1.0000 0.99470  0.90300  0.42485  Biso   1.000  O
  O8       1.0000 0.49470  0.40300  0.42485  Biso   1.000  O
  C1       1.0000 0.98790  0.27750  0.85750  Biso   1.000  C
  C2       1.0000 0.48790  0.77750  0.85750  Biso   1.000  C
  C3       1.0000 0.01210  0.27750  0.64250  Biso   1.000  C
  C4       1.0000 0.51210  0.77750  0.64250  Biso   1.000  C
  C5       1.0000 0.01210  0.72250  0.14250  Biso   1.000  C
  C6       1.0000 0.51210  0.22250  0.14250  Biso   1.000  C
  C7       1.0000 0.98790  0.72250  0.35750  Biso   1.000  C
  C8       1.0000 0.48790  0.22250  0.35750  Biso   1.000  C
  F1       1.0000 0.95890  0.40000  0.82580  Biso   1.000  F
  F2       1.0000 0.45890  0.90000  0.82580  Biso   1.000  F
  F3       1.0000 0.04110  0.40000  0.67420  Biso   1.000  F
  F4       1.0000 0.54110  0.90000  0.67420  Biso   1.000  F
  F5       1.0000 0.04110  0.60000  0.17420  Biso   1.000  F
  F6       1.0000 0.54110  0.10000  0.17420  Biso   1.000  F
  F7       1.0000 0.95890  0.60000  0.32580  Biso   1.000  F
  F8       1.0000 0.45890  0.10000  0.32580  Biso   1.000  F
  F9       1.0000 0.97620  0.21300  0.81640  Biso   1.000  F
  F10      1.0000 0.47620  0.71300  0.81640  Biso   1.000  F
  F11      1.0000 0.02380  0.21300  0.68360  Biso   1.000  F
  F12      1.0000 0.52380  0.71300  0.68360  Biso   1.000  F
  F13      1.0000 0.02380  0.78700  0.18360  Biso   1.000  F
  F14      1.0000 0.52380  0.28700  0.18360  Biso   1.000  F
  F15      1.0000 0.97620  0.78700  0.31640  Biso   1.000  F
  F16      1.0000 0.47620  0.28700  0.31640  Biso   1.000  F
  F17      1.0000 0.03310  0.31300  0.87880  Biso   1.000  F
  F18      1.0000 0.53310  0.81300  0.87880  Biso   1.000  F
  F19      1.0000 0.96690  0.31300  0.62120  Biso   1.000  F
  F20      1.0000 0.46690  0.81300  0.62120  Biso   1.000  F
  F21      1.0000 0.96690  0.68700  0.12120  Biso   1.000  F
  F22      1.0000 0.46690  0.18700  0.12120  Biso   1.000  F
  F23      1.0000 0.03310  0.68700  0.37880  Biso   1.000  F
  F24      1.0000 0.53310  0.18700  0.37880  Biso   1.000  F
  F25      1.0000 0.96530  0.17300  0.80490  Biso   1.000  F
  F26      1.0000 0.46530  0.67300  0.80490  Biso   1.000  F
  F27      1.0000 0.03470  0.17300  0.69510  Biso   1.000  F
  F28      1.0000 0.53470  0.67300  0.69510  Biso   1.000  F
  F29      1.0000 0.03470  0.82700  0.19510  Biso   1.000  F
  F30      1.0000 0.53470  0.32700  0.19510  Biso   1.000  F
  F31      1.0000 0.96530  0.82700  0.30490  Biso   1.000  F
  F32      1.0000 0.46530  0.32700  0.30490  Biso   1.000  F
  F33      1.0000 0.04200  0.27300  0.88320  Biso   1.000  F
  F34      1.0000 0.54200  0.77300  0.88320  Biso   1.000  F
  F35      1.0000 0.95800  0.27300  0.61680  Biso   1.000  F
  F36      1.0000 0.45800  0.77300  0.61680  Biso   1.000  F
  F37      1.0000 0.95800  0.72700  0.11680  Biso   1.000  F
  F38      1.0000 0.45800  0.22700  0.11680  Biso   1.000  F
  F39      1.0000 0.04200  0.72700  0.38320  Biso   1.000  F
  F40      1.0000 0.54200  0.22700  0.38320  Biso   1.000  F
  F41      1.0000 0.97700  0.39700  0.84510  Biso   1.000  F
  F42      1.0000 0.47700  0.89700  0.84510  Biso   1.000  F
  F43      1.0000 0.02300  0.39700  0.65490  Biso   1.000  F
  F44      1.0000 0.52300  0.89700  0.65490  Biso   1.000  F
  F45      1.0000 0.02300  0.60300  0.15490  Biso   1.000  F
  F46      1.0000 0.52300  0.10300  0.15490  Biso   1.000  F
  F47      1.0000 0.97700  0.60300  0.34510  Biso   1.000  F
  F48      1.0000 0.47700  0.10300  0.34510  Biso   1.000  F
  C9       1.0000 0.97960  0.22130  0.90740  Biso   1.000  C
  C10      1.0000 0.47960  0.72130  0.90740  Biso   1.000  C
  C11      1.0000 0.02040  0.22130  0.59260  Biso   1.000  C
  C12      1.0000 0.52040  0.72130  0.59260  Biso   1.000  C
  C13      1.0000 0.02040  0.77870  0.09260  Biso   1.000  C
  C14      1.0000 0.52040  0.27870  0.09260  Biso   1.000  C
  C15      1.0000 0.97960  0.77870  0.40740  Biso   1.000  C
  C16      1.0000 0.47960  0.27870  0.40740  Biso   1.000  C
  C17      1.0000 0.95680  0.30690  0.93090  Biso   1.000  C
  C18      1.0000 0.45680  0.80690  0.93090  Biso   1.000  C
  C19      1.0000 0.04320  0.30690  0.56910  Biso   1.000  C
  C20      1.0000 0.54320  0.80690  0.56910  Biso   1.000  C
  C21      1.0000 0.04320  0.69310  0.06910  Biso   1.000  C
  C22      1.0000 0.54320  0.19310  0.06910  Biso   1.000  C
  C23      1.0000 0.95680  0.69310  0.43090  Biso   1.000  C
  C24      1.0000 0.45680  0.19310  0.43090  Biso   1.000  C
  H1       1.0000 0.95200  0.39300  0.91700  Biso   1.000  H
  H2       1.0000 0.45200  0.89300  0.91700  Biso   1.000  H
  H3       1.0000 0.04800  0.39300  0.58300  Biso   1.000  H
  H4       1.0000 0.54800  0.89300  0.58300  Biso   1.000  H
  H5       1.0000 0.04800  0.60700  0.08300  Biso   1.000  H
  H6       1.0000 0.54800  0.10700  0.08300  Biso   1.000  H
  H7       1.0000 0.95200  0.60700  0.41700  Biso   1.000  H
  H8       1.0000 0.45200  0.10700  0.41700  Biso   1.000  H
  C25      1.0000 0.94960  0.26750  0.97790  Biso   1.000  C
  C26      1.0000 0.44960  0.76750  0.97790  Biso   1.000  C
  C27      1.0000 0.05040  0.26750  0.52210  Biso   1.000  C
  C28      1.0000 0.55040  0.76750  0.52210  Biso   1.000  C
  C29      1.0000 0.05040  0.73250  0.02210  Biso   1.000  C
  C30      1.0000 0.55040  0.23250  0.02210  Biso   1.000  C
  C31      1.0000 0.94960  0.73250  0.47790  Biso   1.000  C
  C32      1.0000 0.44960  0.23250  0.47790  Biso   1.000  C
  C33      1.0000 0.92420  0.37460  0.99850  Biso   1.000  C
  C34      1.0000 0.42420  0.87460  0.99850  Biso   1.000  C
  C35      1.0000 0.07580  0.37460  0.50150  Biso   1.000  C
  C36      1.0000 0.57580  0.87460  0.50150  Biso   1.000  C
  C37      1.0000 0.07580  0.62540  0.00150  Biso   1.000  C
  C38      1.0000 0.57580  0.12540  0.00150  Biso   1.000  C
  C39      1.0000 0.92420  0.62540  0.49850  Biso   1.000  C
  C40      1.0000 0.42420  0.12540  0.49850  Biso   1.000  C
  F49      1.0000 0.88840  0.33180  0.00160  Biso   1.000  F
  F50      1.0000 0.38840  0.83180  0.00160  Biso   1.000  F
  F51      1.0000 0.11160  0.33180  0.49840  Biso   1.000  F
  F52      1.0000 0.61160  0.83180  0.49840  Biso   1.000  F
  F53      1.0000 0.11160  0.66820  0.99840  Biso   1.000  F
  F54      1.0000 0.61160  0.16820  0.99840  Biso   1.000  F
  F55      1.0000 0.88840  0.66820  0.50160  Biso   1.000  F
  F56      1.0000 0.38840  0.16820  0.50160  Biso   1.000  F
  F57      1.0000 0.92540  0.34300  0.04540  Biso   1.000  F
  F58      1.0000 0.42540  0.84300  0.04540  Biso   1.000  F
  F59      1.0000 0.07460  0.34300  0.45460  Biso   1.000  F
  F60      1.0000 0.57460  0.84300  0.45460  Biso   1.000  F
  F61      1.0000 0.07460  0.65700  0.95460  Biso   1.000  F
  F62      1.0000 0.57460  0.15700  0.95460  Biso   1.000  F
  F63      1.0000 0.92540  0.65700  0.54540  Biso   1.000  F
  F64      1.0000 0.42540  0.15700  0.54540  Biso   1.000  F
  F65      1.0000 0.92360  0.50700  0.98050  Biso   1.000  F
  F66      1.0000 0.42360  0.00700  0.98050  Biso   1.000  F
  F67      1.0000 0.07640  0.50700  0.51950  Biso   1.000  F
  F68      1.0000 0.57640  0.00700  0.51950  Biso   1.000  F
  F69      1.0000 0.07640  0.49300  0.01950  Biso   1.000  F
  F70      1.0000 0.57640  0.99300  0.01950  Biso   1.000  F
  F71      1.0000 0.92360  0.49300  0.48050  Biso   1.000  F
  F72      1.0000 0.42360  0.99300  0.48050  Biso   1.000  F
  F73      1.0000 0.86840  0.37360  0.94550  Biso   1.000  F
  F74      1.0000 0.36840  0.87360  0.94550  Biso   1.000  F
  F75      1.0000 0.13160  0.37360  0.55450  Biso   1.000  F
  F76      1.0000 0.63160  0.87360  0.55450  Biso   1.000  F
  F77      1.0000 0.13160  0.62640  0.05450  Biso   1.000  F
  F78      1.0000 0.63160  0.12640  0.05450  Biso   1.000  F
  F79      1.0000 0.86840  0.62640  0.44550  Biso   1.000  F
  F80      1.0000 0.36840  0.12640  0.44550  Biso   1.000  F
  F81      1.0000 0.93490  0.49520  0.99560  Biso   1.000  F
  F82      1.0000 0.43490  0.99520  0.99560  Biso   1.000  F
  F83      1.0000 0.06510  0.49520  0.50440  Biso   1.000  F
  F84      1.0000 0.56510  0.99520  0.50440  Biso   1.000  F
  F85      1.0000 0.06510  0.50480  0.00440  Biso   1.000  F
  F86      1.0000 0.56510  0.00480  0.00440  Biso   1.000  F
  F87      1.0000 0.93490  0.50480  0.49560  Biso   1.000  F
  F88      1.0000 0.43490  0.00480  0.49560  Biso   1.000  F
  F89      1.0000 0.96510  0.39860  0.06840  Biso   1.000  F
  F90      1.0000 0.46510  0.89860  0.06840  Biso   1.000  F
  F91      1.0000 0.03490  0.39860  0.43160  Biso   1.000  F
  F92      1.0000 0.53490  0.89860  0.43160  Biso   1.000  F
  F93      1.0000 0.03490  0.60140  0.93160  Biso   1.000  F
  F94      1.0000 0.53490  0.10140  0.93160  Biso   1.000  F
  F95      1.0000 0.96510  0.60140  0.56840  Biso   1.000  F
  F96      1.0000 0.46510  0.10140  0.56840  Biso   1.000  F
  O9       1.0000 0.96134  0.15480  0.00721  Biso   1.000  O
  O10      1.0000 0.46134  0.65480  0.00721  Biso   1.000  O
  O11      1.0000 0.03866  0.15480  0.49279  Biso   1.000  O
  O12      1.0000 0.53866  0.65480  0.49279  Biso   1.000  O
  O13      1.0000 0.03866  0.84520  0.99279  Biso   1.000  O
  O14      1.0000 0.53866  0.34520  0.99279  Biso   1.000  O
  O15      1.0000 0.96134  0.84520  0.50721  Biso   1.000  O
  O16      1.0000 0.46134  0.34520  0.50721  Biso   1.000  O
  Co1      1.0000 0.25000  0.75000  0.00000  Biso   1.000  Co
  Co2      1.0000 0.75000  0.25000  0.00000  Biso   1.000  Co
  Co3      1.0000 0.75000  0.75000  0.50000  Biso   1.000  Co
  Co4      1.0000 0.25000  0.25000  0.50000  Biso   1.000  Co
  O17      1.0000 0.25674  0.91260  0.95522  Biso   1.000  O
  O18      1.0000 0.75674  0.41260  0.95522  Biso   1.000  O
  O19      1.0000 0.74326  0.91260  0.54478  Biso   1.000  O
  O20      1.0000 0.24326  0.41260  0.54478  Biso   1.000  O
  O21      1.0000 0.74326  0.08740  0.04478  Biso   1.000  O
  O22      1.0000 0.24326  0.58740  0.04478  Biso   1.000  O
  O23      1.0000 0.25674  0.08740  0.45522  Biso   1.000  O
  O24      1.0000 0.75674  0.58740  0.45522  Biso   1.000  O
  C41      1.0000 0.27430  0.13910  0.93760  Biso   1.000  C
  C42      1.0000 0.77430  0.63910  0.93760  Biso   1.000  C
  C43      1.0000 0.72570  0.13910  0.56240  Biso   1.000  C
  C44      1.0000 0.22570  0.63910  0.56240  Biso   1.000  C
  C45      1.0000 0.72570  0.86090  0.06240  Biso   1.000  C
  C46      1.0000 0.22570  0.36090  0.06240  Biso   1.000  C
  C47      1.0000 0.27430  0.86090  0.43760  Biso   1.000  C
  C48      1.0000 0.77430  0.36090  0.43760  Biso   1.000  C
  F97      1.0000 0.28830  0.10410  0.90120  Biso   1.000  F
  F98      1.0000 0.78830  0.60410  0.90120  Biso   1.000  F
  F99      1.0000 0.71170  0.10410  0.59880  Biso   1.000  F
  F100     1.0000 0.21170  0.60410  0.59880  Biso   1.000  F
  F101     1.0000 0.71170  0.89590  0.09880  Biso   1.000  F
  F102     1.0000 0.21170  0.39590  0.09880  Biso   1.000  F
  F103     1.0000 0.28830  0.89590  0.40120  Biso   1.000  F
  F104     1.0000 0.78830  0.39590  0.40120  Biso   1.000  F
  F105     1.0000 0.22090  0.15870  0.89610  Biso   1.000  F
  F106     1.0000 0.72090  0.65870  0.89610  Biso   1.000  F
  F107     1.0000 0.77910  0.15870  0.60390  Biso   1.000  F
  F108     1.0000 0.27910  0.65870  0.60390  Biso   1.000  F
  F109     1.0000 0.77910  0.84130  0.10390  Biso   1.000  F
  F110     1.0000 0.27910  0.34130  0.10390  Biso   1.000  F
  F111     1.0000 0.22090  0.84130  0.39610  Biso   1.000  F
  F112     1.0000 0.72090  0.34130  0.39610  Biso   1.000  F
  F113     1.0000 0.29480  0.25010  0.96580  Biso   1.000  F
  F114     1.0000 0.79480  0.75010  0.96580  Biso   1.000  F
  F115     1.0000 0.70520  0.25010  0.53420  Biso   1.000  F
  F116     1.0000 0.20520  0.75010  0.53420  Biso   1.000  F
  F117     1.0000 0.70520  0.74990  0.03420  Biso   1.000  F
  F118     1.0000 0.20520  0.24990  0.03420  Biso   1.000  F
  F119     1.0000 0.29480  0.74990  0.46580  Biso   1.000  F
  F120     1.0000 0.79480  0.24990  0.46580  Biso   1.000  F
  F121     1.0000 0.32180  0.15660  0.93990  Biso   1.000  F
  F122     1.0000 0.82180  0.65660  0.93990  Biso   1.000  F
  F123     1.0000 0.67820  0.15660  0.56010  Biso   1.000  F
  F124     1.0000 0.17820  0.65660  0.56010  Biso   1.000  F
  F125     1.0000 0.67820  0.84340  0.06010  Biso   1.000  F
  F126     1.0000 0.17820  0.34340  0.06010  Biso   1.000  F
  F127     1.0000 0.32180  0.84340  0.43990  Biso   1.000  F
  F128     1.0000 0.82180  0.34340  0.43990  Biso   1.000  F
  F129     1.0000 0.24000  0.12800  0.88450  Biso   1.000  F
  F130     1.0000 0.74000  0.62800  0.88450  Biso   1.000  F
  F131     1.0000 0.76000  0.12800  0.61550  Biso   1.000  F
  F132     1.0000 0.26000  0.62800  0.61550  Biso   1.000  F
  F133     1.0000 0.76000  0.87200  0.11550  Biso   1.000  F
  F134     1.0000 0.26000  0.37200  0.11550  Biso   1.000  F
  F135     1.0000 0.24000  0.87200  0.38450  Biso   1.000  F
  F136     1.0000 0.74000  0.37200  0.38450  Biso   1.000  F
  F137     1.0000 0.27510  0.26270  0.96030  Biso   1.000  F
  F138     1.0000 0.77510  0.76270  0.96030  Biso   1.000  F
  F139     1.0000 0.72490  0.26270  0.53970  Biso   1.000  F
  F140     1.0000 0.22490  0.76270  0.53970  Biso   1.000  F
  F141     1.0000 0.72490  0.73730  0.03970  Biso   1.000  F
  F142     1.0000 0.22490  0.23730  0.03970  Biso   1.000  F
  F143     1.0000 0.27510  0.73730  0.46030  Biso   1.000  F
  F144     1.0000 0.77510  0.23730  0.46030  Biso   1.000  F
  C49      1.0000 0.28340  0.01850  0.98320  Biso   1.000  C
  C50      1.0000 0.78340  0.51850  0.98320  Biso   1.000  C
  C51      1.0000 0.71660  0.01850  0.51680  Biso   1.000  C
  C52      1.0000 0.21660  0.51850  0.51680  Biso   1.000  C
  C53      1.0000 0.71660  0.98150  0.01680  Biso   1.000  C
  C54      1.0000 0.21660  0.48150  0.01680  Biso   1.000  C
  C55      1.0000 0.28340  0.98150  0.48320  Biso   1.000  C
  C56      1.0000 0.78340  0.48150  0.48320  Biso   1.000  C
  C57      1.0000 0.31890  0.03980  0.04810  Biso   1.000  C
  C58      1.0000 0.81890  0.53980  0.04810  Biso   1.000  C
  C59      1.0000 0.68110  0.03980  0.45190  Biso   1.000  C
  C60      1.0000 0.18110  0.53980  0.45190  Biso   1.000  C
  C61      1.0000 0.68110  0.96020  0.95190  Biso   1.000  C
  C62      1.0000 0.18110  0.46020  0.95190  Biso   1.000  C
  C63      1.0000 0.31890  0.96020  0.54810  Biso   1.000  C
  C64      1.0000 0.81890  0.46020  0.54810  Biso   1.000  C
  H9       1.0000 0.33500  0.12600  0.06400  Biso   1.000  H
  H10      1.0000 0.83500  0.62600  0.06400  Biso   1.000  H
  H11      1.0000 0.66500  0.12600  0.43600  Biso   1.000  H
  H12      1.0000 0.16500  0.62600  0.43600  Biso   1.000  H
  H13      1.0000 0.66500  0.87400  0.93600  Biso   1.000  H
  H14      1.0000 0.16500  0.37400  0.93600  Biso   1.000  H
  H15      1.0000 0.33500  0.87400  0.56400  Biso   1.000  H
  H16      1.0000 0.83500  0.37400  0.56400  Biso   1.000  H
  C65      1.0000 0.32852  0.94360  0.09360  Biso   1.000  C
  C66      1.0000 0.82852  0.44360  0.09360  Biso   1.000  C
  C67      1.0000 0.67148  0.94360  0.40640  Biso   1.000  C
  C68      1.0000 0.17148  0.44360  0.40640  Biso   1.000  C
  C69      1.0000 0.67148  0.05640  0.90640  Biso   1.000  C
  C70      1.0000 0.17148  0.55640  0.90640  Biso   1.000  C
  C71      1.0000 0.32852  0.05640  0.59360  Biso   1.000  C
  C72      1.0000 0.82852  0.55640  0.59360  Biso   1.000  C
  C73      1.0000 0.36790  0.98260  0.16450  Biso   1.000  C
  C74      1.0000 0.86790  0.48260  0.16450  Biso   1.000  C
  C75      1.0000 0.63210  0.98260  0.33550  Biso   1.000  C
  C76      1.0000 0.13210  0.48260  0.33550  Biso   1.000  C
  C77      1.0000 0.63210  0.01740  0.83550  Biso   1.000  C
  C78      1.0000 0.13210  0.51740  0.83550  Biso   1.000  C
  C79      1.0000 0.36790  0.01740  0.66450  Biso   1.000  C
  C80      1.0000 0.86790  0.51740  0.66450  Biso   1.000  C
  F145     1.0000 0.39760  0.08300  0.17220  Biso   1.000  F
  F146     1.0000 0.89760  0.58300  0.17220  Biso   1.000  F
  F147     1.0000 0.60240  0.08300  0.32780  Biso   1.000  F
  F148     1.0000 0.10240  0.58300  0.32780  Biso   1.000  F
  F149     1.0000 0.60240  0.91700  0.82780  Biso   1.000  F
  F150     1.0000 0.10240  0.41700  0.82780  Biso   1.000  F
  F151     1.0000 0.39760  0.91700  0.67220  Biso   1.000  F
  F152     1.0000 0.89760  0.41700  0.67220  Biso   1.000  F
  F153     1.0000 0.34210  0.00900  0.19110  Biso   1.000  F
  F154     1.0000 0.84210  0.50900  0.19110  Biso   1.000  F
  F155     1.0000 0.65790  0.00900  0.30890  Biso   1.000  F
  F156     1.0000 0.15790  0.50900  0.30890  Biso   1.000  F
  F157     1.0000 0.65790  0.99100  0.80890  Biso   1.000  F
  F158     1.0000 0.15790  0.49100  0.80890  Biso   1.000  F
  F159     1.0000 0.34210  0.99100  0.69110  Biso   1.000  F
  F160     1.0000 0.84210  0.49100  0.69110  Biso   1.000  F
  F161     1.0000 0.40100  0.88300  0.19440  Biso   1.000  F
  F162     1.0000 0.90100  0.38300  0.19440  Biso   1.000  F
  F163     1.0000 0.59900  0.88300  0.30560  Biso   1.000  F
  F164     1.0000 0.09900  0.38300  0.30560  Biso   1.000  F
  F165     1.0000 0.59900  0.11700  0.80560  Biso   1.000  F
  F166     1.0000 0.09900  0.61700  0.80560  Biso   1.000  F
  F167     1.0000 0.40100  0.11700  0.69440  Biso   1.000  F
  F168     1.0000 0.90100  0.61700  0.69440  Biso   1.000  F
  F169     1.0000 0.41590  0.95500  0.17510  Biso   1.000  F
  F170     1.0000 0.91590  0.45500  0.17510  Biso   1.000  F
  F171     1.0000 0.58410  0.95500  0.32490  Biso   1.000  F
  F172     1.0000 0.08410  0.45500  0.32490  Biso   1.000  F
  F173     1.0000 0.58410  0.04500  0.82490  Biso   1.000  F
  F174     1.0000 0.08410  0.54500  0.82490  Biso   1.000  F
  F175     1.0000 0.41590  0.04500  0.67510  Biso   1.000  F
  F176     1.0000 0.91590  0.54500  0.67510  Biso   1.000  F
  F177     1.0000 0.37430  0.11500  0.17520  Biso   1.000  F
  F178     1.0000 0.87430  0.61500  0.17520  Biso   1.000  F
  F179     1.0000 0.62570  0.11500  0.32480  Biso   1.000  F
  F180     1.0000 0.12570  0.61500  0.32480  Biso   1.000  F
  F181     1.0000 0.62570  0.88500  0.82480  Biso   1.000  F
  F182     1.0000 0.12570  0.38500  0.82480  Biso   1.000  F
  F183     1.0000 0.37430  0.88500  0.67520  Biso   1.000  F
  F184     1.0000 0.87430  0.38500  0.67520  Biso   1.000  F
  F185     1.0000 0.37070  0.90700  0.20380  Biso   1.000  F
  F186     1.0000 0.87070  0.40700  0.20380  Biso   1.000  F
  F187     1.0000 0.62930  0.90700  0.29620  Biso   1.000  F
  F188     1.0000 0.12930  0.40700  0.29620  Biso   1.000  F
  F189     1.0000 0.62930  0.09300  0.79620  Biso   1.000  F
  F190     1.0000 0.12930  0.59300  0.79620  Biso   1.000  F
  F191     1.0000 0.37070  0.09300  0.70380  Biso   1.000  F
  F192     1.0000 0.87070  0.59300  0.70380  Biso   1.000  F
  O25      1.0000 0.30834  0.82510  0.08554  Biso   1.000  O
  O26      1.0000 0.80834  0.32510  0.08554  Biso   1.000  O
  O27      1.0000 0.69166  0.82510  0.41446  Biso   1.000  O
  O28      1.0000 0.19166  0.32510  0.41446  Biso   1.000  O
  O29      1.0000 0.69166  0.17490  0.91446  Biso   1.000  O
  O30      1.0000 0.19166  0.67490  0.91446  Biso   1.000  O
  O31      1.0000 0.30834  0.17490  0.58554  Biso   1.000  O
  O32      1.0000 0.80834  0.67490  0.58554  Biso   1.000  O
  O33      1.0000 0.07167  0.13460  0.05491  Biso   1.000  O
  O34      1.0000 0.57167  0.63460  0.05491  Biso   1.000  O
  O35      1.0000 0.92833  0.13460  0.44509  Biso   1.000  O
  O36      1.0000 0.42833  0.63460  0.44509  Biso   1.000  O
  O37      1.0000 0.92833  0.86540  0.94509  Biso   1.000  O
  O38      1.0000 0.42833  0.36540  0.94509  Biso   1.000  O
  O39      1.0000 0.07167  0.86540  0.55491  Biso   1.000  O
  O40      1.0000 0.57167  0.36540  0.55491  Biso   1.000  O
  N1       1.0000 0.11439  0.10400  0.10930  Biso   1.000  N
  N2       1.0000 0.61439  0.60400  0.10930  Biso   1.000  N
  N3       1.0000 0.88561  0.10400  0.39070  Biso   1.000  N
  N4       1.0000 0.38561  0.60400  0.39070  Biso   1.000  N
  N5       1.0000 0.88561  0.89600  0.89070  Biso   1.000  N
  N6       1.0000 0.38561  0.39600  0.89070  Biso   1.000  N
  N7       1.0000 0.11439  0.89600  0.60930  Biso   1.000  N
  N8       1.0000 0.61439  0.39600  0.60930  Biso   1.000  N
  C81      1.0000 0.12700  0.16640  0.17110  Biso   1.000  C
  C82      1.0000 0.62700  0.66640  0.17110  Biso   1.000  C
  C83      1.0000 0.87300  0.16640  0.32890  Biso   1.000  C
  C84      1.0000 0.37300  0.66640  0.32890  Biso   1.000  C
  C85      1.0000 0.87300  0.83360  0.82890  Biso   1.000  C
  C86      1.0000 0.37300  0.33360  0.82890  Biso   1.000  C
  C87      1.0000 0.12700  0.83360  0.67110  Biso   1.000  C
  C88      1.0000 0.62700  0.33360  0.67110  Biso   1.000  C
  C89      1.0000 0.07810  0.16460  0.17320  Biso   1.000  C
  C90      1.0000 0.57810  0.66460  0.17320  Biso   1.000  C
  C91      1.0000 0.92190  0.16460  0.32680  Biso   1.000  C
  C92      1.0000 0.42190  0.66460  0.32680  Biso   1.000  C
  C93      1.0000 0.92190  0.83540  0.82680  Biso   1.000  C
  C94      1.0000 0.42190  0.33540  0.82680  Biso   1.000  C
  C95      1.0000 0.07810  0.83540  0.67320  Biso   1.000  C
  C96      1.0000 0.57810  0.33540  0.67320  Biso   1.000  C
  H17      1.0000 0.06360  0.08200  0.16700  Biso   1.000  H
  H18      1.0000 0.56360  0.58200  0.16700  Biso   1.000  H
  H19      1.0000 0.93640  0.08200  0.33300  Biso   1.000  H
  H20      1.0000 0.43640  0.58200  0.33300  Biso   1.000  H
  H21      1.0000 0.93640  0.91800  0.83300  Biso   1.000  H
  H22      1.0000 0.43640  0.41800  0.83300  Biso   1.000  H
  H23      1.0000 0.06360  0.91800  0.66700  Biso   1.000  H
  H24      1.0000 0.56360  0.41800  0.66700  Biso   1.000  H
  H25      1.0000 0.98300  0.79000  0.18400  Biso   1.000  H
  H26      1.0000 0.48300  0.29000  0.18400  Biso   1.000  H
  H27      1.0000 0.01700  0.79000  0.31600  Biso   1.000  H
  H28      1.0000 0.51700  0.29000  0.31600  Biso   1.000  H
  H29      1.0000 0.01700  0.21000  0.81600  Biso   1.000  H
  H30      1.0000 0.51700  0.71000  0.81600  Biso   1.000  H
  H31      1.0000 0.98300  0.21000  0.68400  Biso   1.000  H
  H32      1.0000 0.48300  0.71000  0.68400  Biso   1.000  H
  H33      1.0000 0.08570  0.19500  0.21100  Biso   1.000  H
  H34      1.0000 0.58570  0.69500  0.21100  Biso   1.000  H
  H35      1.0000 0.91430  0.19500  0.28900  Biso   1.000  H
  H36      1.0000 0.41430  0.69500  0.28900  Biso   1.000  H
  H37      1.0000 0.91430  0.80500  0.78900  Biso   1.000  H
  H38      1.0000 0.41430  0.30500  0.78900  Biso   1.000  H
  H39      1.0000 0.08570  0.80500  0.71100  Biso   1.000  H
  H40      1.0000 0.58570  0.30500  0.71100  Biso   1.000  H
  C97      1.0000 0.14110  0.31730  0.16890  Biso   1.000  C
  C98      1.0000 0.64110  0.81730  0.16890  Biso   1.000  C
  C99      1.0000 0.85890  0.31730  0.33110  Biso   1.000  C
  C100     1.0000 0.35890  0.81730  0.33110  Biso   1.000  C
  C101     1.0000 0.85890  0.68270  0.83110  Biso   1.000  C
  C102     1.0000 0.35890  0.18270  0.83110  Biso   1.000  C
  C103     1.0000 0.14110  0.68270  0.66890  Biso   1.000  C
  C104     1.0000 0.64110  0.18270  0.66890  Biso   1.000  C
  H41      1.0000 0.16330  0.32700  0.16680  Biso   1.000  H
  H42      1.0000 0.66330  0.82700  0.16680  Biso   1.000  H
  H43      1.0000 0.83670  0.32700  0.33320  Biso   1.000  H
  H44      1.0000 0.33670  0.82700  0.33320  Biso   1.000  H
  H45      1.0000 0.83670  0.67300  0.83320  Biso   1.000  H
  H46      1.0000 0.33670  0.17300  0.83320  Biso   1.000  H
  H47      1.0000 0.16330  0.67300  0.66680  Biso   1.000  H
  H48      1.0000 0.66330  0.17300  0.66680  Biso   1.000  H
  H49      1.0000 0.14320  0.35700  0.19500  Biso   1.000  H
  H50      1.0000 0.64320  0.85700  0.19500  Biso   1.000  H
  H51      1.0000 0.85680  0.35700  0.30500  Biso   1.000  H
  H52      1.0000 0.35680  0.85700  0.30500  Biso   1.000  H
  H53      1.0000 0.85680  0.64300  0.80500  Biso   1.000  H
  H54      1.0000 0.35680  0.14300  0.80500  Biso   1.000  H
  H55      1.0000 0.14320  0.64300  0.69500  Biso   1.000  H
  H56      1.0000 0.64320  0.14300  0.69500  Biso   1.000  H
  H57      1.0000 0.91100  0.91300  0.12800  Biso   1.000  H
  H58      1.0000 0.41100  0.41300  0.12800  Biso   1.000  H
  H59      1.0000 0.08900  0.91300  0.37200  Biso   1.000  H
  H60      1.0000 0.58900  0.41300  0.37200  Biso   1.000  H
  H61      1.0000 0.08900  0.08700  0.87200  Biso   1.000  H
  H62      1.0000 0.58900  0.58700  0.87200  Biso   1.000  H
  H63      1.0000 0.91100  0.08700  0.62800  Biso   1.000  H
  H64      1.0000 0.41100  0.58700  0.62800  Biso   1.000  H
  C105     1.0000 0.17370  0.07250  0.21940  Biso   1.000  C
  C106     1.0000 0.67370  0.57250  0.21940  Biso   1.000  C
  C107     1.0000 0.82630  0.07250  0.28060  Biso   1.000  C
  C108     1.0000 0.32630  0.57250  0.28060  Biso   1.000  C
  C109     1.0000 0.82630  0.92750  0.78060  Biso   1.000  C
  C110     1.0000 0.32630  0.42750  0.78060  Biso   1.000  C
  C111     1.0000 0.17370  0.92750  0.71940  Biso   1.000  C
  C112     1.0000 0.67370  0.42750  0.71940  Biso   1.000  C
  C113     1.0000 0.21560  0.14390  0.28130  Biso   1.000  C
  C114     1.0000 0.71560  0.64390  0.28130  Biso   1.000  C
  C115     1.0000 0.78440  0.14390  0.21870  Biso   1.000  C
  C116     1.0000 0.28440  0.64390  0.21870  Biso   1.000  C
  C117     1.0000 0.78440  0.85610  0.71870  Biso   1.000  C
  C118     1.0000 0.28440  0.35610  0.71870  Biso   1.000  C
  C119     1.0000 0.21560  0.85610  0.78130  Biso   1.000  C
  C120     1.0000 0.71560  0.35610  0.78130  Biso   1.000  C
  H65      1.0000 0.22560  0.20800  0.27200  Biso   1.000  H
  H66      1.0000 0.72560  0.70800  0.27200  Biso   1.000  H
  H67      1.0000 0.77440  0.20800  0.22800  Biso   1.000  H
  H68      1.0000 0.27440  0.70800  0.22800  Biso   1.000  H
  H69      1.0000 0.77440  0.79200  0.72800  Biso   1.000  H
  H70      1.0000 0.27440  0.29200  0.72800  Biso   1.000  H
  H71      1.0000 0.22560  0.79200  0.77200  Biso   1.000  H
  H72      1.0000 0.72560  0.29200  0.77200  Biso   1.000  H
  H73      1.0000 0.24000  0.09400  0.30200  Biso   1.000  H
  H74      1.0000 0.74000  0.59400  0.30200  Biso   1.000  H
  H75      1.0000 0.76000  0.09400  0.19800  Biso   1.000  H
  H76      1.0000 0.26000  0.59400  0.19800  Biso   1.000  H
  H77      1.0000 0.76000  0.90600  0.69800  Biso   1.000  H
  H78      1.0000 0.26000  0.40600  0.69800  Biso   1.000  H
  H79      1.0000 0.24000  0.90600  0.80200  Biso   1.000  H
  H80      1.0000 0.74000  0.40600  0.80200  Biso   1.000  H
  H81      1.0000 0.98800  0.39000  0.29300  Biso   1.000  H
  H82      1.0000 0.48800  0.89000  0.29300  Biso   1.000  H
  H83      1.0000 0.01200  0.39000  0.20700  Biso   1.000  H
  H84      1.0000 0.51200  0.89000  0.20700  Biso   1.000  H
  H85      1.0000 0.01200  0.61000  0.70700  Biso   1.000  H
  H86      1.0000 0.51200  0.11000  0.70700  Biso   1.000  H
  H87      1.0000 0.98800  0.61000  0.79300  Biso   1.000  H
  H88      1.0000 0.48800  0.11000  0.79300  Biso   1.000  H
  C121     1.0000 0.15460  0.93850  0.23510  Biso   1.000  C
  C122     1.0000 0.65460  0.43850  0.23510  Biso   1.000  C
  C123     1.0000 0.84540  0.93850  0.26490  Biso   1.000  C
  C124     1.0000 0.34540  0.43850  0.26490  Biso   1.000  C
  C125     1.0000 0.84540  0.06150  0.76490  Biso   1.000  C
  C126     1.0000 0.34540  0.56150  0.76490  Biso   1.000  C
  C127     1.0000 0.15460  0.06150  0.73510  Biso   1.000  C
  C128     1.0000 0.65460  0.56150  0.73510  Biso   1.000  C
  H89      1.0000 0.12600  0.89100  0.19500  Biso   1.000  H
  H90      1.0000 0.62600  0.39100  0.19500  Biso   1.000  H
  H91      1.0000 0.87400  0.89100  0.30500  Biso   1.000  H
  H92      1.0000 0.37400  0.39100  0.30500  Biso   1.000  H
  H93      1.0000 0.87400  0.10900  0.80500  Biso   1.000  H
  H94      1.0000 0.37400  0.60900  0.80500  Biso   1.000  H
  H95      1.0000 0.12600  0.10900  0.69500  Biso   1.000  H
  H96      1.0000 0.62600  0.60900  0.69500  Biso   1.000  H
  H97      1.0000 0.98200  0.79000  0.43100  Biso   1.000  H
  H98      1.0000 0.48200  0.29000  0.43100  Biso   1.000  H
  H99      1.0000 0.01800  0.79000  0.06900  Biso   1.000  H
  H100     1.0000 0.51800  0.29000  0.06900  Biso   1.000  H
  H101     1.0000 0.01800  0.21000  0.56900  Biso   1.000  H
  H102     1.0000 0.51800  0.71000  0.56900  Biso   1.000  H
  H103     1.0000 0.98200  0.21000  0.93100  Biso   1.000  H
  H104     1.0000 0.48200  0.71000  0.93100  Biso   1.000  H
  H105     1.0000 0.17870  0.89900  0.25100  Biso   1.000  H
  H106     1.0000 0.67870  0.39900  0.25100  Biso   1.000  H
  H107     1.0000 0.82130  0.89900  0.24900  Biso   1.000  H
  H108     1.0000 0.32130  0.39900  0.24900  Biso   1.000  H
  H109     1.0000 0.82130  0.10100  0.74900  Biso   1.000  H
  H110     1.0000 0.32130  0.60100  0.74900  Biso   1.000  H
  H111     1.0000 0.17870  0.10100  0.75100  Biso   1.000  H
  H112     1.0000 0.67870  0.60100  0.75100  Biso   1.000  H
  N9       1.0000 0.19455  0.03030  0.17960  Biso   1.000  N
  N10      1.0000 0.69455  0.53030  0.17960  Biso   1.000  N
  N11      1.0000 0.80545  0.03030  0.32040  Biso   1.000  N
  N12      1.0000 0.30545  0.53030  0.32040  Biso   1.000  N
  N13      1.0000 0.80545  0.96970  0.82040  Biso   1.000  N
  N14      1.0000 0.30545  0.46970  0.82040  Biso   1.000  N
  N15      1.0000 0.19455  0.96970  0.67960  Biso   1.000  N
  N16      1.0000 0.69455  0.46970  0.67960  Biso   1.000  N
  O41      1.0000 0.23989  0.97710  0.20340  Biso   1.000  O
  O42      1.0000 0.73989  0.47710  0.20340  Biso   1.000  O
  O43      1.0000 0.76011  0.97710  0.29660  Biso   1.000  O
  O44      1.0000 0.26011  0.47710  0.29660  Biso   1.000  O
  O45      1.0000 0.76011  0.02290  0.79660  Biso   1.000  O
  O46      1.0000 0.26011  0.52290  0.79660  Biso   1.000  O
  O47      1.0000 0.23989  0.02290  0.70340  Biso   1.000  O
  O48      1.0000 0.73989  0.52290  0.70340  Biso   1.000  O
  C129     1.0000 0.15630  0.03980  0.11620  Biso   1.000  C
  C130     1.0000 0.65630  0.53980  0.11620  Biso   1.000  C
  C131     1.0000 0.84370  0.03980  0.38380  Biso   1.000  C
  C132     1.0000 0.34370  0.53980  0.38380  Biso   1.000  C
  C133     1.0000 0.84370  0.96020  0.88380  Biso   1.000  C
  C134     1.0000 0.34370  0.46020  0.88380  Biso   1.000  C
  C135     1.0000 0.15630  0.96020  0.61620  Biso   1.000  C
  C136     1.0000 0.65630  0.46020  0.61620  Biso   1.000  C
  C137     1.0000 0.16098  0.99050  0.06570  Biso   1.000  C
  C138     1.0000 0.66098  0.49050  0.06570  Biso   1.000  C
  C139     1.0000 0.83902  0.99050  0.43430  Biso   1.000  C
  C140     1.0000 0.33902  0.49050  0.43430  Biso   1.000  C
  C141     1.0000 0.83902  0.00950  0.93430  Biso   1.000  C
  C142     1.0000 0.33902  0.50950  0.93430  Biso   1.000  C
  C143     1.0000 0.16098  0.00950  0.56570  Biso   1.000  C
  C144     1.0000 0.66098  0.50950  0.56570  Biso   1.000  C
  C145     1.0000 0.20040  0.90840  0.06920  Biso   1.000  C
  C146     1.0000 0.70040  0.40840  0.06920  Biso   1.000  C
  C147     1.0000 0.79960  0.90840  0.43080  Biso   1.000  C
  C148     1.0000 0.29960  0.40840  0.43080  Biso   1.000  C
  C149     1.0000 0.79960  0.09160  0.93080  Biso   1.000  C
  C150     1.0000 0.29960  0.59160  0.93080  Biso   1.000  C
  C151     1.0000 0.20040  0.09160  0.56920  Biso   1.000  C
  C152     1.0000 0.70040  0.59160  0.56920  Biso   1.000  C
  H113     1.0000 0.22820  0.87900  0.10100  Biso   1.000  H
  H114     1.0000 0.72820  0.37900  0.10100  Biso   1.000  H
  H115     1.0000 0.77180  0.87900  0.39900  Biso   1.000  H
  H116     1.0000 0.27180  0.37900  0.39900  Biso   1.000  H
  H117     1.0000 0.77180  0.12100  0.89900  Biso   1.000  H
  H118     1.0000 0.27180  0.62100  0.89900  Biso   1.000  H
  H119     1.0000 0.22820  0.12100  0.60100  Biso   1.000  H
  H120     1.0000 0.72820  0.62100  0.60100  Biso   1.000  H
  N17      1.0000 0.19262  0.88450  0.01290  Biso   1.000  N
  N18      1.0000 0.69262  0.38450  0.01290  Biso   1.000  N
  N19      1.0000 0.80738  0.88450  0.48710  Biso   1.000  N
  N20      1.0000 0.30738  0.38450  0.48710  Biso   1.000  N
  N21      1.0000 0.80738  0.11550  0.98710  Biso   1.000  N
  N22      1.0000 0.30738  0.61550  0.98710  Biso   1.000  N
  N23      1.0000 0.19262  0.11550  0.51290  Biso   1.000  N
  N24      1.0000 0.69262  0.61550  0.51290  Biso   1.000  N
  N25      1.0000 0.14649  0.95390  0.97120  Biso   1.000  N
  N26      1.0000 0.64649  0.45390  0.97120  Biso   1.000  N
  N27      1.0000 0.85351  0.95390  0.52880  Biso   1.000  N
  N28      1.0000 0.35351  0.45390  0.52880  Biso   1.000  N
  N29      1.0000 0.85351  0.04610  0.02880  Biso   1.000  N
  N30      1.0000 0.35351  0.54610  0.02880  Biso   1.000  N
  N31      1.0000 0.14649  0.04610  0.47120  Biso   1.000  N
  N32      1.0000 0.64649  0.54610  0.47120  Biso   1.000  N
  C153     1.0000 0.12410  0.95640  0.90250  Biso   1.000  C
  C154     1.0000 0.62410  0.45640  0.90250  Biso   1.000  C
  C155     1.0000 0.87590  0.95640  0.59750  Biso   1.000  C
  C156     1.0000 0.37590  0.45640  0.59750  Biso   1.000  C
  C157     1.0000 0.87590  0.04360  0.09750  Biso   1.000  C
  C158     1.0000 0.37590  0.54360  0.09750  Biso   1.000  C
  C159     1.0000 0.12410  0.04360  0.40250  Biso   1.000  C
  C160     1.0000 0.62410  0.54360  0.40250  Biso   1.000  C
  H121     1.0000 0.08900  0.03500  0.85000  Biso   1.000  H
  H122     1.0000 0.58900  0.53500  0.85000  Biso   1.000  H
  H123     1.0000 0.91100  0.03500  0.65000  Biso   1.000  H
  H124     1.0000 0.41100  0.53500  0.65000  Biso   1.000  H
  H125     1.0000 0.91100  0.96500  0.15000  Biso   1.000  H
  H126     1.0000 0.41100  0.46500  0.15000  Biso   1.000  H
  H127     1.0000 0.08900  0.96500  0.35000  Biso   1.000  H
  H128     1.0000 0.58900  0.46500  0.35000  Biso   1.000  H
  H129     1.0000 0.14520  0.92400  0.89700  Biso   1.000  H
  H130     1.0000 0.64520  0.42400  0.89700  Biso   1.000  H
  H131     1.0000 0.85480  0.92400  0.60300  Biso   1.000  H
  H132     1.0000 0.35480  0.42400  0.60300  Biso   1.000  H
  H133     1.0000 0.85480  0.07600  0.10300  Biso   1.000  H
  H134     1.0000 0.35480  0.57600  0.10300  Biso   1.000  H
  H135     1.0000 0.14520  0.07600  0.39700  Biso   1.000  H
  H136     1.0000 0.64520  0.57600  0.39700  Biso   1.000  H
  C161     1.0000 0.07120  0.90000  0.86360  Biso   1.000  C
  C162     1.0000 0.57120  0.40000  0.86360  Biso   1.000  C
  C163     1.0000 0.92880  0.90000  0.63640  Biso   1.000  C
  C164     1.0000 0.42880  0.40000  0.63640  Biso   1.000  C
  C165     1.0000 0.92880  0.10000  0.13640  Biso   1.000  C
  C166     1.0000 0.42880  0.60000  0.13640  Biso   1.000  C
  C167     1.0000 0.07120  0.10000  0.36360  Biso   1.000  C
  C168     1.0000 0.57120  0.60000  0.36360  Biso   1.000  C
  H137     1.0000 0.05950  0.90260  0.81930  Biso   1.000  H
  H138     1.0000 0.55950  0.40260  0.81930  Biso   1.000  H
  H139     1.0000 0.94050  0.90260  0.68070  Biso   1.000  H
  H140     1.0000 0.44050  0.40260  0.68070  Biso   1.000  H
  H141     1.0000 0.94050  0.09740  0.18070  Biso   1.000  H
  H142     1.0000 0.44050  0.59740  0.18070  Biso   1.000  H
  H143     1.0000 0.05950  0.09740  0.31930  Biso   1.000  H
  H144     1.0000 0.55950  0.59740  0.31930  Biso   1.000  H
  H145     1.0000 0.04780  0.95450  0.86960  Biso   1.000  H
  H146     1.0000 0.54780  0.45450  0.86960  Biso   1.000  H
  H147     1.0000 0.95220  0.95450  0.63040  Biso   1.000  H
  H148     1.0000 0.45220  0.45450  0.63040  Biso   1.000  H
  H149     1.0000 0.95220  0.04550  0.13040  Biso   1.000  H
  H150     1.0000 0.45220  0.54550  0.13040  Biso   1.000  H
  H151     1.0000 0.04780  0.04550  0.36960  Biso   1.000  H
  H152     1.0000 0.54780  0.54550  0.36960  Biso   1.000  H
  H153     1.0000 0.07130  0.80470  0.87590  Biso   1.000  H
  H154     1.0000 0.57130  0.30470  0.87590  Biso   1.000  H
  H155     1.0000 0.92870  0.80470  0.62410  Biso   1.000  H
  H156     1.0000 0.42870  0.30470  0.62410  Biso   1.000  H
  H157     1.0000 0.92870  0.19530  0.12410  Biso   1.000  H
  H158     1.0000 0.42870  0.69530  0.12410  Biso   1.000  H
  H159     1.0000 0.07130  0.19530  0.37590  Biso   1.000  H
  H160     1.0000 0.57130  0.69530  0.37590  Biso   1.000  H
  C169     1.0000 0.12613  0.01890  0.00070  Biso   1.000  C
  C170     1.0000 0.62613  0.51890  0.00070  Biso   1.000  C
  C171     1.0000 0.87387  0.01890  0.49930  Biso   1.000  C
  C172     1.0000 0.37387  0.51890  0.49930  Biso   1.000  C
  C173     1.0000 0.87387  0.98110  0.99930  Biso   1.000  C
  C174     1.0000 0.37387  0.48110  0.99930  Biso   1.000  C
  C175     1.0000 0.12613  0.98110  0.50070  Biso   1.000  C
  C176     1.0000 0.62613  0.48110  0.50070  Biso   1.000  C
  H161     1.0000 0.12530  0.06200  0.88100  Biso   1.000  H
  H162     1.0000 0.62530  0.56200  0.88100  Biso   1.000  H
  H163     1.0000 0.87470  0.06200  0.61900  Biso   1.000  H
  H164     1.0000 0.37470  0.56200  0.61900  Biso   1.000  H
  H165     1.0000 0.87470  0.93800  0.11900  Biso   1.000  H
  H166     1.0000 0.37470  0.43800  0.11900  Biso   1.000  H
  H167     1.0000 0.12530  0.93800  0.38100  Biso   1.000  H
  H168     1.0000 0.62530  0.43800  0.38100  Biso   1.000  H
