data_image0
_cell_length_a       30.342
_cell_length_b       9.5947
_cell_length_c       25.202
_cell_angle_alpha    90
_cell_angle_beta     124.208
_cell_angle_gamma    90

_symmetry_space_group_name_H-M    "P 1"
_symmetry_int_tables_number       1

loop_
  _symmetry_equiv_pos_as_xyz
  'x, y, z'

loop_
  _atom_site_label
  _atom_site_occupancy
  _atom_site_fract_x
  _atom_site_fract_y
  _atom_site_fract_z
  _atom_site_thermal_displace_type
  _atom_site_B_iso_or_equiv
  _atom_site_type_symbol
  Mn1      1.0000 0.00000  0.00000  0.00000  Biso   1.000  Mn
  Mn2      1.0000 0.50000  0.50000  0.00000  Biso   1.000  Mn
  Mn3      1.0000 0.00000  0.00000  0.50000  Biso   1.000  Mn
  Mn4      1.0000 0.50000  0.50000  0.50000  Biso   1.000  Mn
  O1       1.0000 0.99289  0.11010  0.92228  Biso   1.000  O
  O2       1.0000 0.49289  0.61010  0.92228  Biso   1.000  O
  O3       1.0000 0.00711  0.11010  0.57772  Biso   1.000  O
  O4       1.0000 0.50711  0.61010  0.57772  Biso   1.000  O
  O5       1.0000 0.00711  0.88990  0.07772  Biso   1.000  O
  O6       1.0000 0.50711  0.38990  0.07772  Biso   1.000  O
  O7       1.0000 0.99289  0.88990  0.42228  Biso   1.000  O
  O8       1.0000 0.49289  0.38990  0.42228  Biso   1.000  O
  C1       1.0000 0.98760  0.28840  0.85610  Biso   1.000  C
  C2       1.0000 0.48760  0.78840  0.85610  Biso   1.000  C
  C3       1.0000 0.01240  0.28840  0.64390  Biso   1.000  C
  C4       1.0000 0.51240  0.78840  0.64390  Biso   1.000  C
  C5       1.0000 0.01240  0.71160  0.14390  Biso   1.000  C
  C6       1.0000 0.51240  0.21160  0.14390  Biso   1.000  C
  C7       1.0000 0.98760  0.71160  0.35610  Biso   1.000  C
  C8       1.0000 0.48760  0.21160  0.35610  Biso   1.000  C
  F1       1.0000 0.96090  0.39900  0.82480  Biso   1.000  F
  F2       1.0000 0.46090  0.89900  0.82480  Biso   1.000  F
  F3       1.0000 0.03910  0.39900  0.67520  Biso   1.000  F
  F4       1.0000 0.53910  0.89900  0.67520  Biso   1.000  F
  F5       1.0000 0.03910  0.60100  0.17520  Biso   1.000  F
  F6       1.0000 0.53910  0.10100  0.17520  Biso   1.000  F
  F7       1.0000 0.96090  0.60100  0.32480  Biso   1.000  F
  F8       1.0000 0.46090  0.10100  0.32480  Biso   1.000  F
  F9       1.0000 0.96540  0.19800  0.80320  Biso   1.000  F
  F10      1.0000 0.46540  0.69800  0.80320  Biso   1.000  F
  F11      1.0000 0.03460  0.19800  0.69680  Biso   1.000  F
  F12      1.0000 0.53460  0.69800  0.69680  Biso   1.000  F
  F13      1.0000 0.03460  0.80200  0.19680  Biso   1.000  F
  F14      1.0000 0.53460  0.30200  0.19680  Biso   1.000  F
  F15      1.0000 0.96540  0.80200  0.30320  Biso   1.000  F
  F16      1.0000 0.46540  0.30200  0.30320  Biso   1.000  F
  F17      1.0000 0.03670  0.31000  0.87980  Biso   1.000  F
  F18      1.0000 0.53670  0.81000  0.87980  Biso   1.000  F
  F19      1.0000 0.96330  0.31000  0.62020  Biso   1.000  F
  F20      1.0000 0.46330  0.81000  0.62020  Biso   1.000  F
  F21      1.0000 0.96330  0.69000  0.12020  Biso   1.000  F
  F22      1.0000 0.46330  0.19000  0.12020  Biso   1.000  F
  F23      1.0000 0.03670  0.69000  0.37980  Biso   1.000  F
  F24      1.0000 0.53670  0.19000  0.37980  Biso   1.000  F
  F25      1.0000 0.96890  0.22100  0.81240  Biso   1.000  F
  F26      1.0000 0.46890  0.72100  0.81240  Biso   1.000  F
  F27      1.0000 0.03110  0.22100  0.68760  Biso   1.000  F
  F28      1.0000 0.53110  0.72100  0.68760  Biso   1.000  F
  F29      1.0000 0.03110  0.77900  0.18760  Biso   1.000  F
  F30      1.0000 0.53110  0.27900  0.18760  Biso   1.000  F
  F31      1.0000 0.96890  0.77900  0.31240  Biso   1.000  F
  F32      1.0000 0.46890  0.27900  0.31240  Biso   1.000  F
  F33      1.0000 0.03910  0.27800  0.88040  Biso   1.000  F
  F34      1.0000 0.53910  0.77800  0.88040  Biso   1.000  F
  F35      1.0000 0.96090  0.27800  0.61960  Biso   1.000  F
  F36      1.0000 0.46090  0.77800  0.61960  Biso   1.000  F
  F37      1.0000 0.96090  0.72200  0.11960  Biso   1.000  F
  F38      1.0000 0.46090  0.22200  0.11960  Biso   1.000  F
  F39      1.0000 0.03910  0.72200  0.38040  Biso   1.000  F
  F40      1.0000 0.53910  0.22200  0.38040  Biso   1.000  F
  F41      1.0000 0.97800  0.42800  0.84930  Biso   1.000  F
  F42      1.0000 0.47800  0.92800  0.84930  Biso   1.000  F
  F43      1.0000 0.02200  0.42800  0.65070  Biso   1.000  F
  F44      1.0000 0.52200  0.92800  0.65070  Biso   1.000  F
  F45      1.0000 0.02200  0.57200  0.15070  Biso   1.000  F
  F46      1.0000 0.52200  0.07200  0.15070  Biso   1.000  F
  F47      1.0000 0.97800  0.57200  0.34930  Biso   1.000  F
  F48      1.0000 0.47800  0.07200  0.34930  Biso   1.000  F
  C9       1.0000 0.97790  0.23180  0.90600  Biso   1.000  C
  C10      1.0000 0.47790  0.73180  0.90600  Biso   1.000  C
  C11      1.0000 0.02210  0.23180  0.59400  Biso   1.000  C
  C12      1.0000 0.52210  0.73180  0.59400  Biso   1.000  C
  C13      1.0000 0.02210  0.76820  0.09400  Biso   1.000  C
  C14      1.0000 0.52210  0.26820  0.09400  Biso   1.000  C
  C15      1.0000 0.97790  0.76820  0.40600  Biso   1.000  C
  C16      1.0000 0.47790  0.26820  0.40600  Biso   1.000  C
  C17      1.0000 0.95420  0.31660  0.92700  Biso   1.000  C
  C18      1.0000 0.45420  0.81660  0.92700  Biso   1.000  C
  C19      1.0000 0.04580  0.31660  0.57300  Biso   1.000  C
  C20      1.0000 0.54580  0.81660  0.57300  Biso   1.000  C
  C21      1.0000 0.04580  0.68340  0.07300  Biso   1.000  C
  C22      1.0000 0.54580  0.18340  0.07300  Biso   1.000  C
  C23      1.0000 0.95420  0.68340  0.42700  Biso   1.000  C
  C24      1.0000 0.45420  0.18340  0.42700  Biso   1.000  C
  H1       1.0000 0.94300  0.39200  0.90800  Biso   1.000  H
  H2       1.0000 0.44300  0.89200  0.90800  Biso   1.000  H
  H3       1.0000 0.05700  0.39200  0.59200  Biso   1.000  H
  H4       1.0000 0.55700  0.89200  0.59200  Biso   1.000  H
  H5       1.0000 0.05700  0.60800  0.09200  Biso   1.000  H
  H6       1.0000 0.55700  0.10800  0.09200  Biso   1.000  H
  H7       1.0000 0.94300  0.60800  0.40800  Biso   1.000  H
  H8       1.0000 0.44300  0.10800  0.40800  Biso   1.000  H
  C25      1.0000 0.94600  0.28000  0.97350  Biso   1.000  C
  C26      1.0000 0.44600  0.78000  0.97350  Biso   1.000  C
  C27      1.0000 0.05400  0.28000  0.52650  Biso   1.000  C
  C28      1.0000 0.55400  0.78000  0.52650  Biso   1.000  C
  C29      1.0000 0.05400  0.72000  0.02650  Biso   1.000  C
  C30      1.0000 0.55400  0.22000  0.02650  Biso   1.000  C
  C31      1.0000 0.94600  0.72000  0.47350  Biso   1.000  C
  C32      1.0000 0.44600  0.22000  0.47350  Biso   1.000  C
  C33      1.0000 0.91860  0.38350  0.99180  Biso   1.000  C
  C34      1.0000 0.41860  0.88350  0.99180  Biso   1.000  C
  C35      1.0000 0.08140  0.38350  0.50820  Biso   1.000  C
  C36      1.0000 0.58140  0.88350  0.50820  Biso   1.000  C
  C37      1.0000 0.08140  0.61650  0.00820  Biso   1.000  C
  C38      1.0000 0.58140  0.11650  0.00820  Biso   1.000  C
  C39      1.0000 0.91860  0.61650  0.49180  Biso   1.000  C
  C40      1.0000 0.41860  0.11650  0.49180  Biso   1.000  C
  F49      1.0000 0.88280  0.34580  0.99310  Biso   1.000  F
  F50      1.0000 0.38280  0.84580  0.99310  Biso   1.000  F
  F51      1.0000 0.11720  0.34580  0.50690  Biso   1.000  F
  F52      1.0000 0.61720  0.84580  0.50690  Biso   1.000  F
  F53      1.0000 0.11720  0.65420  0.00690  Biso   1.000  F
  F54      1.0000 0.61720  0.15420  0.00690  Biso   1.000  F
  F55      1.0000 0.88280  0.65420  0.49310  Biso   1.000  F
  F56      1.0000 0.38280  0.15420  0.49310  Biso   1.000  F
  F57      1.0000 0.91640  0.35290  0.03550  Biso   1.000  F
  F58      1.0000 0.41640  0.85290  0.03550  Biso   1.000  F
  F59      1.0000 0.08360  0.35290  0.46450  Biso   1.000  F
  F60      1.0000 0.58360  0.85290  0.46450  Biso   1.000  F
  F61      1.0000 0.08360  0.64710  0.96450  Biso   1.000  F
  F62      1.0000 0.58360  0.14710  0.96450  Biso   1.000  F
  F63      1.0000 0.91640  0.64710  0.53550  Biso   1.000  F
  F64      1.0000 0.41640  0.14710  0.53550  Biso   1.000  F
  F65      1.0000 0.92070  0.51260  0.97940  Biso   1.000  F
  F66      1.0000 0.42070  0.01260  0.97940  Biso   1.000  F
  F67      1.0000 0.07930  0.51260  0.52060  Biso   1.000  F
  F68      1.0000 0.57930  0.01260  0.52060  Biso   1.000  F
  F69      1.0000 0.07930  0.48740  0.02060  Biso   1.000  F
  F70      1.0000 0.57930  0.98740  0.02060  Biso   1.000  F
  F71      1.0000 0.92070  0.48740  0.47940  Biso   1.000  F
  F72      1.0000 0.42070  0.98740  0.47940  Biso   1.000  F
  F73      1.0000 0.86040  0.37990  0.93190  Biso   1.000  F
  F74      1.0000 0.36040  0.87990  0.93190  Biso   1.000  F
  F75      1.0000 0.13960  0.37990  0.56810  Biso   1.000  F
  F76      1.0000 0.63960  0.87990  0.56810  Biso   1.000  F
  F77      1.0000 0.13960  0.62010  0.06810  Biso   1.000  F
  F78      1.0000 0.63960  0.12010  0.06810  Biso   1.000  F
  F79      1.0000 0.86040  0.62010  0.43190  Biso   1.000  F
  F80      1.0000 0.36040  0.12010  0.43190  Biso   1.000  F
  F81      1.0000 0.92950  0.50830  0.98800  Biso   1.000  F
  F82      1.0000 0.42950  0.00830  0.98800  Biso   1.000  F
  F83      1.0000 0.07050  0.50830  0.51200  Biso   1.000  F
  F84      1.0000 0.57050  0.00830  0.51200  Biso   1.000  F
  F85      1.0000 0.07050  0.49170  0.01200  Biso   1.000  F
  F86      1.0000 0.57050  0.99170  0.01200  Biso   1.000  F
  F87      1.0000 0.92950  0.49170  0.48800  Biso   1.000  F
  F88      1.0000 0.42950  0.99170  0.48800  Biso   1.000  F
  F89      1.0000 0.95890  0.40300  0.06590  Biso   1.000  F
  F90      1.0000 0.45890  0.90300  0.06590  Biso   1.000  F
  F91      1.0000 0.04110  0.40300  0.43410  Biso   1.000  F
  F92      1.0000 0.54110  0.90300  0.43410  Biso   1.000  F
  F93      1.0000 0.04110  0.59700  0.93410  Biso   1.000  F
  F94      1.0000 0.54110  0.09700  0.93410  Biso   1.000  F
  F95      1.0000 0.95890  0.59700  0.56590  Biso   1.000  F
  F96      1.0000 0.45890  0.09700  0.56590  Biso   1.000  F
  O9       1.0000 0.95691  0.16790  0.00241  Biso   1.000  O
  O10      1.0000 0.45691  0.66790  0.00241  Biso   1.000  O
  O11      1.0000 0.04309  0.16790  0.49759  Biso   1.000  O
  O12      1.0000 0.54309  0.66790  0.49759  Biso   1.000  O
  O13      1.0000 0.04309  0.83210  0.99759  Biso   1.000  O
  O14      1.0000 0.54309  0.33210  0.99759  Biso   1.000  O
  O15      1.0000 0.95691  0.83210  0.50241  Biso   1.000  O
  O16      1.0000 0.45691  0.33210  0.50241  Biso   1.000  O
  Cu1      1.0000 0.25000  0.75000  0.00000  Biso   1.000  Cu
  Cu2      1.0000 0.75000  0.25000  0.00000  Biso   1.000  Cu
  Cu3      1.0000 0.75000  0.75000  0.50000  Biso   1.000  Cu
  Cu4      1.0000 0.25000  0.25000  0.50000  Biso   1.000  Cu
  O17      1.0000 0.25605  0.91340  0.95540  Biso   1.000  O
  O18      1.0000 0.75605  0.41340  0.95540  Biso   1.000  O
  O19      1.0000 0.74395  0.91340  0.54460  Biso   1.000  O
  O20      1.0000 0.24395  0.41340  0.54460  Biso   1.000  O
  O21      1.0000 0.74395  0.08660  0.04460  Biso   1.000  O
  O22      1.0000 0.24395  0.58660  0.04460  Biso   1.000  O
  O23      1.0000 0.25605  0.08660  0.45540  Biso   1.000  O
  O24      1.0000 0.75605  0.58660  0.45540  Biso   1.000  O
  C41      1.0000 0.27280  0.14170  0.93960  Biso   1.000  C
  C42      1.0000 0.77280  0.64170  0.93960  Biso   1.000  C
  C43      1.0000 0.72720  0.14170  0.56040  Biso   1.000  C
  C44      1.0000 0.22720  0.64170  0.56040  Biso   1.000  C
  C45      1.0000 0.72720  0.85830  0.06040  Biso   1.000  C
  C46      1.0000 0.22720  0.35830  0.06040  Biso   1.000  C
  C47      1.0000 0.27280  0.85830  0.43960  Biso   1.000  C
  C48      1.0000 0.77280  0.35830  0.43960  Biso   1.000  C
  F97      1.0000 0.28700  0.10750  0.90090  Biso   1.000  F
  F98      1.0000 0.78700  0.60750  0.90090  Biso   1.000  F
  F99      1.0000 0.71300  0.10750  0.59910  Biso   1.000  F
  F100     1.0000 0.21300  0.60750  0.59910  Biso   1.000  F
  F101     1.0000 0.71300  0.89250  0.09910  Biso   1.000  F
  F102     1.0000 0.21300  0.39250  0.09910  Biso   1.000  F
  F103     1.0000 0.28700  0.89250  0.40090  Biso   1.000  F
  F104     1.0000 0.78700  0.39250  0.40090  Biso   1.000  F
  F105     1.0000 0.21880  0.15960  0.89720  Biso   1.000  F
  F106     1.0000 0.71880  0.65960  0.89720  Biso   1.000  F
  F107     1.0000 0.78120  0.15960  0.60280  Biso   1.000  F
  F108     1.0000 0.28120  0.65960  0.60280  Biso   1.000  F
  F109     1.0000 0.78120  0.84040  0.10280  Biso   1.000  F
  F110     1.0000 0.28120  0.34040  0.10280  Biso   1.000  F
  F111     1.0000 0.21880  0.84040  0.39720  Biso   1.000  F
  F112     1.0000 0.71880  0.34040  0.39720  Biso   1.000  F
  F113     1.0000 0.29370  0.25120  0.96820  Biso   1.000  F
  F114     1.0000 0.79370  0.75120  0.96820  Biso   1.000  F
  F115     1.0000 0.70630  0.25120  0.53180  Biso   1.000  F
  F116     1.0000 0.20630  0.75120  0.53180  Biso   1.000  F
  F117     1.0000 0.70630  0.74880  0.03180  Biso   1.000  F
  F118     1.0000 0.20630  0.24880  0.03180  Biso   1.000  F
  F119     1.0000 0.29370  0.74880  0.46820  Biso   1.000  F
  F120     1.0000 0.79370  0.24880  0.46820  Biso   1.000  F
  F121     1.0000 0.31610  0.15290  0.93500  Biso   1.000  F
  F122     1.0000 0.81610  0.65290  0.93500  Biso   1.000  F
  F123     1.0000 0.68390  0.15290  0.56500  Biso   1.000  F
  F124     1.0000 0.18390  0.65290  0.56500  Biso   1.000  F
  F125     1.0000 0.68390  0.84710  0.06500  Biso   1.000  F
  F126     1.0000 0.18390  0.34710  0.06500  Biso   1.000  F
  F127     1.0000 0.31610  0.84710  0.43500  Biso   1.000  F
  F128     1.0000 0.81610  0.34710  0.43500  Biso   1.000  F
  F129     1.0000 0.23660  0.13400  0.88910  Biso   1.000  F
  F130     1.0000 0.73660  0.63400  0.88910  Biso   1.000  F
  F131     1.0000 0.76340  0.13400  0.61090  Biso   1.000  F
  F132     1.0000 0.26340  0.63400  0.61090  Biso   1.000  F
  F133     1.0000 0.76340  0.86600  0.11090  Biso   1.000  F
  F134     1.0000 0.26340  0.36600  0.11090  Biso   1.000  F
  F135     1.0000 0.23660  0.86600  0.38910  Biso   1.000  F
  F136     1.0000 0.73660  0.36600  0.38910  Biso   1.000  F
  F137     1.0000 0.27670  0.26380  0.96270  Biso   1.000  F
  F138     1.0000 0.77670  0.76380  0.96270  Biso   1.000  F
  F139     1.0000 0.72330  0.26380  0.53730  Biso   1.000  F
  F140     1.0000 0.22330  0.76380  0.53730  Biso   1.000  F
  F141     1.0000 0.72330  0.73620  0.03730  Biso   1.000  F
  F142     1.0000 0.22330  0.23620  0.03730  Biso   1.000  F
  F143     1.0000 0.27670  0.73620  0.46270  Biso   1.000  F
  F144     1.0000 0.77670  0.23620  0.46270  Biso   1.000  F
  C49      1.0000 0.28260  0.01920  0.98350  Biso   1.000  C
  C50      1.0000 0.78260  0.51920  0.98350  Biso   1.000  C
  C51      1.0000 0.71740  0.01920  0.51650  Biso   1.000  C
  C52      1.0000 0.21740  0.51920  0.51650  Biso   1.000  C
  C53      1.0000 0.71740  0.98080  0.01650  Biso   1.000  C
  C54      1.0000 0.21740  0.48080  0.01650  Biso   1.000  C
  C55      1.0000 0.28260  0.98080  0.48350  Biso   1.000  C
  C56      1.0000 0.78260  0.48080  0.48350  Biso   1.000  C
  C57      1.0000 0.31870  0.03960  0.04870  Biso   1.000  C
  C58      1.0000 0.81870  0.53960  0.04870  Biso   1.000  C
  C59      1.0000 0.68130  0.03960  0.45130  Biso   1.000  C
  C60      1.0000 0.18130  0.53960  0.45130  Biso   1.000  C
  C61      1.0000 0.68130  0.96040  0.95130  Biso   1.000  C
  C62      1.0000 0.18130  0.46040  0.95130  Biso   1.000  C
  C63      1.0000 0.31870  0.96040  0.54870  Biso   1.000  C
  C64      1.0000 0.81870  0.46040  0.54870  Biso   1.000  C
  H9       1.0000 0.33400  0.11500  0.05900  Biso   1.000  H
  H10      1.0000 0.83400  0.61500  0.05900  Biso   1.000  H
  H11      1.0000 0.66600  0.11500  0.44100  Biso   1.000  H
  H12      1.0000 0.16600  0.61500  0.44100  Biso   1.000  H
  H13      1.0000 0.66600  0.88500  0.94100  Biso   1.000  H
  H14      1.0000 0.16600  0.38500  0.94100  Biso   1.000  H
  H15      1.0000 0.33400  0.88500  0.55900  Biso   1.000  H
  H16      1.0000 0.83400  0.38500  0.55900  Biso   1.000  H
  C65      1.0000 0.32901  0.94080  0.09360  Biso   1.000  C
  C66      1.0000 0.82901  0.44080  0.09360  Biso   1.000  C
  C67      1.0000 0.67099  0.94080  0.40640  Biso   1.000  C
  C68      1.0000 0.17099  0.44080  0.40640  Biso   1.000  C
  C69      1.0000 0.67099  0.05920  0.90640  Biso   1.000  C
  C70      1.0000 0.17099  0.55920  0.90640  Biso   1.000  C
  C71      1.0000 0.32901  0.05920  0.59360  Biso   1.000  C
  C72      1.0000 0.82901  0.55920  0.59360  Biso   1.000  C
  C73      1.0000 0.36840  0.98010  0.16420  Biso   1.000  C
  C74      1.0000 0.86840  0.48010  0.16420  Biso   1.000  C
  C75      1.0000 0.63160  0.98010  0.33580  Biso   1.000  C
  C76      1.0000 0.13160  0.48010  0.33580  Biso   1.000  C
  C77      1.0000 0.63160  0.01990  0.83580  Biso   1.000  C
  C78      1.0000 0.13160  0.51990  0.83580  Biso   1.000  C
  C79      1.0000 0.36840  0.01990  0.66420  Biso   1.000  C
  C80      1.0000 0.86840  0.51990  0.66420  Biso   1.000  C
  F145     1.0000 0.40320  0.06900  0.17570  Biso   1.000  F
  F146     1.0000 0.90320  0.56900  0.17570  Biso   1.000  F
  F147     1.0000 0.59680  0.06900  0.32430  Biso   1.000  F
  F148     1.0000 0.09680  0.56900  0.32430  Biso   1.000  F
  F149     1.0000 0.59680  0.93100  0.82430  Biso   1.000  F
  F150     1.0000 0.09680  0.43100  0.82430  Biso   1.000  F
  F151     1.0000 0.40320  0.93100  0.67570  Biso   1.000  F
  F152     1.0000 0.90320  0.43100  0.67570  Biso   1.000  F
  F153     1.0000 0.34300  0.01450  0.18960  Biso   1.000  F
  F154     1.0000 0.84300  0.51450  0.18960  Biso   1.000  F
  F155     1.0000 0.65700  0.01450  0.31040  Biso   1.000  F
  F156     1.0000 0.15700  0.51450  0.31040  Biso   1.000  F
  F157     1.0000 0.65700  0.98550  0.81040  Biso   1.000  F
  F158     1.0000 0.15700  0.48550  0.81040  Biso   1.000  F
  F159     1.0000 0.34300  0.98550  0.68960  Biso   1.000  F
  F160     1.0000 0.84300  0.48550  0.68960  Biso   1.000  F
  F161     1.0000 0.40640  0.87830  0.19470  Biso   1.000  F
  F162     1.0000 0.90640  0.37830  0.19470  Biso   1.000  F
  F163     1.0000 0.59360  0.87830  0.30530  Biso   1.000  F
  F164     1.0000 0.09360  0.37830  0.30530  Biso   1.000  F
  F165     1.0000 0.59360  0.12170  0.80530  Biso   1.000  F
  F166     1.0000 0.09360  0.62170  0.80530  Biso   1.000  F
  F167     1.0000 0.40640  0.12170  0.69470  Biso   1.000  F
  F168     1.0000 0.90640  0.62170  0.69470  Biso   1.000  F
  F169     1.0000 0.40520  0.92900  0.18260  Biso   1.000  F
  F170     1.0000 0.90520  0.42900  0.18260  Biso   1.000  F
  F171     1.0000 0.59480  0.92900  0.31740  Biso   1.000  F
  F172     1.0000 0.09480  0.42900  0.31740  Biso   1.000  F
  F173     1.0000 0.59480  0.07100  0.81740  Biso   1.000  F
  F174     1.0000 0.09480  0.57100  0.81740  Biso   1.000  F
  F175     1.0000 0.40520  0.07100  0.68260  Biso   1.000  F
  F176     1.0000 0.90520  0.57100  0.68260  Biso   1.000  F
  F177     1.0000 0.37920  0.10590  0.17330  Biso   1.000  F
  F178     1.0000 0.87920  0.60590  0.17330  Biso   1.000  F
  F179     1.0000 0.62080  0.10590  0.32670  Biso   1.000  F
  F180     1.0000 0.12080  0.60590  0.32670  Biso   1.000  F
  F181     1.0000 0.62080  0.89410  0.82670  Biso   1.000  F
  F182     1.0000 0.12080  0.39410  0.82670  Biso   1.000  F
  F183     1.0000 0.37920  0.89410  0.67330  Biso   1.000  F
  F184     1.0000 0.87920  0.39410  0.67330  Biso   1.000  F
  F185     1.0000 0.36440  0.91900  0.20230  Biso   1.000  F
  F186     1.0000 0.86440  0.41900  0.20230  Biso   1.000  F
  F187     1.0000 0.63560  0.91900  0.29770  Biso   1.000  F
  F188     1.0000 0.13560  0.41900  0.29770  Biso   1.000  F
  F189     1.0000 0.63560  0.08100  0.79770  Biso   1.000  F
  F190     1.0000 0.13560  0.58100  0.79770  Biso   1.000  F
  F191     1.0000 0.36440  0.08100  0.70230  Biso   1.000  F
  F192     1.0000 0.86440  0.58100  0.70230  Biso   1.000  F
  O25      1.0000 0.30884  0.82290  0.08525  Biso   1.000  O
  O26      1.0000 0.80884  0.32290  0.08525  Biso   1.000  O
  O27      1.0000 0.69116  0.82290  0.41475  Biso   1.000  O
  O28      1.0000 0.19116  0.32290  0.41475  Biso   1.000  O
  O29      1.0000 0.69116  0.17710  0.91475  Biso   1.000  O
  O30      1.0000 0.19116  0.67710  0.91475  Biso   1.000  O
  O31      1.0000 0.30884  0.17710  0.58525  Biso   1.000  O
  O32      1.0000 0.80884  0.67710  0.58525  Biso   1.000  O
  O33      1.0000 0.07059  0.12980  0.05638  Biso   1.000  O
  O34      1.0000 0.57059  0.62980  0.05638  Biso   1.000  O
  O35      1.0000 0.92941  0.12980  0.44362  Biso   1.000  O
  O36      1.0000 0.42941  0.62980  0.44362  Biso   1.000  O
  O37      1.0000 0.92941  0.87020  0.94362  Biso   1.000  O
  O38      1.0000 0.42941  0.37020  0.94362  Biso   1.000  O
  O39      1.0000 0.07059  0.87020  0.55638  Biso   1.000  O
  O40      1.0000 0.57059  0.37020  0.55638  Biso   1.000  O
  N1       1.0000 0.11431  0.09930  0.11076  Biso   1.000  N
  N2       1.0000 0.61431  0.59930  0.11076  Biso   1.000  N
  N3       1.0000 0.88569  0.09930  0.38924  Biso   1.000  N
  N4       1.0000 0.38569  0.59930  0.38924  Biso   1.000  N
  N5       1.0000 0.88569  0.90070  0.88924  Biso   1.000  N
  N6       1.0000 0.38569  0.40070  0.88924  Biso   1.000  N
  N7       1.0000 0.11431  0.90070  0.61076  Biso   1.000  N
  N8       1.0000 0.61431  0.40070  0.61076  Biso   1.000  N
  C81      1.0000 0.12768  0.16090  0.17240  Biso   1.000  C
  C82      1.0000 0.62768  0.66090  0.17240  Biso   1.000  C
  C83      1.0000 0.87232  0.16090  0.32760  Biso   1.000  C
  C84      1.0000 0.37232  0.66090  0.32760  Biso   1.000  C
  C85      1.0000 0.87232  0.83910  0.82760  Biso   1.000  C
  C86      1.0000 0.37232  0.33910  0.82760  Biso   1.000  C
  C87      1.0000 0.12768  0.83910  0.67240  Biso   1.000  C
  C88      1.0000 0.62768  0.33910  0.67240  Biso   1.000  C
  C89      1.0000 0.07810  0.15780  0.17430  Biso   1.000  C
  C90      1.0000 0.57810  0.65780  0.17430  Biso   1.000  C
  C91      1.0000 0.92190  0.15780  0.32570  Biso   1.000  C
  C92      1.0000 0.42190  0.65780  0.32570  Biso   1.000  C
  C93      1.0000 0.92190  0.84220  0.82570  Biso   1.000  C
  C94      1.0000 0.42190  0.34220  0.82570  Biso   1.000  C
  C95      1.0000 0.07810  0.84220  0.67430  Biso   1.000  C
  C96      1.0000 0.57810  0.34220  0.67430  Biso   1.000  C
  H17      1.0000 0.06300  0.08200  0.16900  Biso   1.000  H
  H18      1.0000 0.56300  0.58200  0.16900  Biso   1.000  H
  H19      1.0000 0.93700  0.08200  0.33100  Biso   1.000  H
  H20      1.0000 0.43700  0.58200  0.33100  Biso   1.000  H
  H21      1.0000 0.93700  0.91800  0.83100  Biso   1.000  H
  H22      1.0000 0.43700  0.41800  0.83100  Biso   1.000  H
  H23      1.0000 0.06300  0.91800  0.66900  Biso   1.000  H
  H24      1.0000 0.56300  0.41800  0.66900  Biso   1.000  H
  H25      1.0000 0.10000  0.73000  0.28000  Biso   1.000  H
  H26      1.0000 0.60000  0.23000  0.28000  Biso   1.000  H
  H27      1.0000 0.90000  0.73000  0.22000  Biso   1.000  H
  H28      1.0000 0.40000  0.23000  0.22000  Biso   1.000  H
  H29      1.0000 0.90000  0.27000  0.72000  Biso   1.000  H
  H30      1.0000 0.40000  0.77000  0.72000  Biso   1.000  H
  H31      1.0000 0.10000  0.27000  0.78000  Biso   1.000  H
  H32      1.0000 0.60000  0.77000  0.78000  Biso   1.000  H
  H33      1.0000 0.08620  0.18400  0.20400  Biso   1.000  H
  H34      1.0000 0.58620  0.68400  0.20400  Biso   1.000  H
  H35      1.0000 0.91380  0.18400  0.29600  Biso   1.000  H
  H36      1.0000 0.41380  0.68400  0.29600  Biso   1.000  H
  H37      1.0000 0.91380  0.81600  0.79600  Biso   1.000  H
  H38      1.0000 0.41380  0.31600  0.79600  Biso   1.000  H
  H39      1.0000 0.08620  0.81600  0.70400  Biso   1.000  H
  H40      1.0000 0.58620  0.31600  0.70400  Biso   1.000  H
  C97      1.0000 0.14110  0.31330  0.17120  Biso   1.000  C
  C98      1.0000 0.64110  0.81330  0.17120  Biso   1.000  C
  C99      1.0000 0.85890  0.31330  0.32880  Biso   1.000  C
  C100     1.0000 0.35890  0.81330  0.32880  Biso   1.000  C
  C101     1.0000 0.85890  0.68670  0.82880  Biso   1.000  C
  C102     1.0000 0.35890  0.18670  0.82880  Biso   1.000  C
  C103     1.0000 0.14110  0.68670  0.67120  Biso   1.000  C
  C104     1.0000 0.64110  0.18670  0.67120  Biso   1.000  C
  H41      1.0000 0.16680  0.32400  0.17050  Biso   1.000  H
  H42      1.0000 0.66680  0.82400  0.17050  Biso   1.000  H
  H43      1.0000 0.83320  0.32400  0.32950  Biso   1.000  H
  H44      1.0000 0.33320  0.82400  0.32950  Biso   1.000  H
  H45      1.0000 0.83320  0.67600  0.82950  Biso   1.000  H
  H46      1.0000 0.33320  0.17600  0.82950  Biso   1.000  H
  H47      1.0000 0.16680  0.67600  0.67050  Biso   1.000  H
  H48      1.0000 0.66680  0.17600  0.67050  Biso   1.000  H
  H49      1.0000 0.14380  0.36700  0.20100  Biso   1.000  H
  H50      1.0000 0.64380  0.86700  0.20100  Biso   1.000  H
  H51      1.0000 0.85620  0.36700  0.29900  Biso   1.000  H
  H52      1.0000 0.35620  0.86700  0.29900  Biso   1.000  H
  H53      1.0000 0.85620  0.63300  0.79900  Biso   1.000  H
  H54      1.0000 0.35620  0.13300  0.79900  Biso   1.000  H
  H55      1.0000 0.14380  0.63300  0.70100  Biso   1.000  H
  H56      1.0000 0.64380  0.13300  0.70100  Biso   1.000  H
  H57      1.0000 0.97600  0.02000  0.11400  Biso   1.000  H
  H58      1.0000 0.47600  0.52000  0.11400  Biso   1.000  H
  H59      1.0000 0.02400  0.02000  0.38600  Biso   1.000  H
  H60      1.0000 0.52400  0.52000  0.38600  Biso   1.000  H
  H61      1.0000 0.02400  0.98000  0.88600  Biso   1.000  H
  H62      1.0000 0.52400  0.48000  0.88600  Biso   1.000  H
  H63      1.0000 0.97600  0.98000  0.61400  Biso   1.000  H
  H64      1.0000 0.47600  0.48000  0.61400  Biso   1.000  H
  C105     1.0000 0.17500  0.06830  0.22050  Biso   1.000  C
  C106     1.0000 0.67500  0.56830  0.22050  Biso   1.000  C
  C107     1.0000 0.82500  0.06830  0.27950  Biso   1.000  C
  C108     1.0000 0.32500  0.56830  0.27950  Biso   1.000  C
  C109     1.0000 0.82500  0.93170  0.77950  Biso   1.000  C
  C110     1.0000 0.32500  0.43170  0.77950  Biso   1.000  C
  C111     1.0000 0.17500  0.93170  0.72050  Biso   1.000  C
  C112     1.0000 0.67500  0.43170  0.72050  Biso   1.000  C
  C113     1.0000 0.21740  0.14310  0.28210  Biso   1.000  C
  C114     1.0000 0.71740  0.64310  0.28210  Biso   1.000  C
  C115     1.0000 0.78260  0.14310  0.21790  Biso   1.000  C
  C116     1.0000 0.28260  0.64310  0.21790  Biso   1.000  C
  C117     1.0000 0.78260  0.85690  0.71790  Biso   1.000  C
  C118     1.0000 0.28260  0.35690  0.71790  Biso   1.000  C
  C119     1.0000 0.21740  0.85690  0.78210  Biso   1.000  C
  C120     1.0000 0.71740  0.35690  0.78210  Biso   1.000  C
  H65      1.0000 0.22500  0.21500  0.27200  Biso   1.000  H
  H66      1.0000 0.72500  0.71500  0.27200  Biso   1.000  H
  H67      1.0000 0.77500  0.21500  0.22800  Biso   1.000  H
  H68      1.0000 0.27500  0.71500  0.22800  Biso   1.000  H
  H69      1.0000 0.77500  0.78500  0.72800  Biso   1.000  H
  H70      1.0000 0.27500  0.28500  0.72800  Biso   1.000  H
  H71      1.0000 0.22500  0.78500  0.77200  Biso   1.000  H
  H72      1.0000 0.72500  0.28500  0.77200  Biso   1.000  H
  H73      1.0000 0.24080  0.08600  0.30100  Biso   1.000  H
  H74      1.0000 0.74080  0.58600  0.30100  Biso   1.000  H
  H75      1.0000 0.75920  0.08600  0.19900  Biso   1.000  H
  H76      1.0000 0.25920  0.58600  0.19900  Biso   1.000  H
  H77      1.0000 0.75920  0.91400  0.69900  Biso   1.000  H
  H78      1.0000 0.25920  0.41400  0.69900  Biso   1.000  H
  H79      1.0000 0.24080  0.91400  0.80100  Biso   1.000  H
  H80      1.0000 0.74080  0.41400  0.80100  Biso   1.000  H
  H81      1.0000 0.01500  0.26000  0.22500  Biso   1.000  H
  H82      1.0000 0.51500  0.76000  0.22500  Biso   1.000  H
  H83      1.0000 0.98500  0.26000  0.27500  Biso   1.000  H
  H84      1.0000 0.48500  0.76000  0.27500  Biso   1.000  H
  H85      1.0000 0.98500  0.74000  0.77500  Biso   1.000  H
  H86      1.0000 0.48500  0.24000  0.77500  Biso   1.000  H
  H87      1.0000 0.01500  0.74000  0.72500  Biso   1.000  H
  H88      1.0000 0.51500  0.24000  0.72500  Biso   1.000  H
  C121     1.0000 0.15770  0.93360  0.23640  Biso   1.000  C
  C122     1.0000 0.65770  0.43360  0.23640  Biso   1.000  C
  C123     1.0000 0.84230  0.93360  0.26360  Biso   1.000  C
  C124     1.0000 0.34230  0.43360  0.26360  Biso   1.000  C
  C125     1.0000 0.84230  0.06640  0.76360  Biso   1.000  C
  C126     1.0000 0.34230  0.56640  0.76360  Biso   1.000  C
  C127     1.0000 0.15770  0.06640  0.73640  Biso   1.000  C
  C128     1.0000 0.65770  0.56640  0.73640  Biso   1.000  C
  H89      1.0000 0.13590  0.87600  0.20000  Biso   1.000  H
  H90      1.0000 0.63590  0.37600  0.20000  Biso   1.000  H
  H91      1.0000 0.86410  0.87600  0.30000  Biso   1.000  H
  H92      1.0000 0.36410  0.37600  0.30000  Biso   1.000  H
  H93      1.0000 0.86410  0.12400  0.80000  Biso   1.000  H
  H94      1.0000 0.36410  0.62400  0.80000  Biso   1.000  H
  H95      1.0000 0.13590  0.12400  0.70000  Biso   1.000  H
  H96      1.0000 0.63590  0.62400  0.70000  Biso   1.000  H
  H97      1.0000 0.00000  0.49000  0.23000  Biso   1.000  H
  H98      1.0000 0.50000  0.99000  0.23000  Biso   1.000  H
  H99      1.0000 0.00000  0.49000  0.27000  Biso   1.000  H
  H100     1.0000 0.50000  0.99000  0.27000  Biso   1.000  H
  H101     1.0000 0.00000  0.51000  0.77000  Biso   1.000  H
  H102     1.0000 0.50000  0.01000  0.77000  Biso   1.000  H
  H103     1.0000 0.00000  0.51000  0.73000  Biso   1.000  H
  H104     1.0000 0.50000  0.01000  0.73000  Biso   1.000  H
  H105     1.0000 0.18180  0.88900  0.25300  Biso   1.000  H
  H106     1.0000 0.68180  0.38900  0.25300  Biso   1.000  H
  H107     1.0000 0.81820  0.88900  0.24700  Biso   1.000  H
  H108     1.0000 0.31820  0.38900  0.24700  Biso   1.000  H
  H109     1.0000 0.81820  0.11100  0.74700  Biso   1.000  H
  H110     1.0000 0.31820  0.61100  0.74700  Biso   1.000  H
  H111     1.0000 0.18180  0.11100  0.75300  Biso   1.000  H
  H112     1.0000 0.68180  0.61100  0.75300  Biso   1.000  H
  N9       1.0000 0.19554  0.02940  0.18045  Biso   1.000  N
  N10      1.0000 0.69554  0.52940  0.18045  Biso   1.000  N
  N11      1.0000 0.80446  0.02940  0.31955  Biso   1.000  N
  N12      1.0000 0.30446  0.52940  0.31955  Biso   1.000  N
  N13      1.0000 0.80446  0.97060  0.81955  Biso   1.000  N
  N14      1.0000 0.30446  0.47060  0.81955  Biso   1.000  N
  N15      1.0000 0.19554  0.97060  0.68045  Biso   1.000  N
  N16      1.0000 0.69554  0.47060  0.68045  Biso   1.000  N
  O41      1.0000 0.24128  0.97870  0.20433  Biso   1.000  O
  O42      1.0000 0.74128  0.47870  0.20433  Biso   1.000  O
  O43      1.0000 0.75872  0.97870  0.29567  Biso   1.000  O
  O44      1.0000 0.25872  0.47870  0.29567  Biso   1.000  O
  O45      1.0000 0.75872  0.02130  0.79567  Biso   1.000  O
  O46      1.0000 0.25872  0.52130  0.79567  Biso   1.000  O
  O47      1.0000 0.24128  0.02130  0.70433  Biso   1.000  O
  O48      1.0000 0.74128  0.52130  0.70433  Biso   1.000  O
  C129     1.0000 0.15678  0.03850  0.11740  Biso   1.000  C
  C130     1.0000 0.65678  0.53850  0.11740  Biso   1.000  C
  C131     1.0000 0.84322  0.03850  0.38260  Biso   1.000  C
  C132     1.0000 0.34322  0.53850  0.38260  Biso   1.000  C
  C133     1.0000 0.84322  0.96150  0.88260  Biso   1.000  C
  C134     1.0000 0.34322  0.46150  0.88260  Biso   1.000  C
  C135     1.0000 0.15678  0.96150  0.61740  Biso   1.000  C
  C136     1.0000 0.65678  0.46150  0.61740  Biso   1.000  C
  C137     1.0000 0.16112  0.99020  0.06660  Biso   1.000  C
  C138     1.0000 0.66112  0.49020  0.06660  Biso   1.000  C
  C139     1.0000 0.83888  0.99020  0.43340  Biso   1.000  C
  C140     1.0000 0.33888  0.49020  0.43340  Biso   1.000  C
  C141     1.0000 0.83888  0.00980  0.93340  Biso   1.000  C
  C142     1.0000 0.33888  0.50980  0.93340  Biso   1.000  C
  C143     1.0000 0.16112  0.00980  0.56660  Biso   1.000  C
  C144     1.0000 0.66112  0.50980  0.56660  Biso   1.000  C
  C145     1.0000 0.20070  0.90990  0.07050  Biso   1.000  C
  C146     1.0000 0.70070  0.40990  0.07050  Biso   1.000  C
  C147     1.0000 0.79930  0.90990  0.42950  Biso   1.000  C
  C148     1.0000 0.29930  0.40990  0.42950  Biso   1.000  C
  C149     1.0000 0.79930  0.09010  0.92950  Biso   1.000  C
  C150     1.0000 0.29930  0.59010  0.92950  Biso   1.000  C
  C151     1.0000 0.20070  0.09010  0.57050  Biso   1.000  C
  C152     1.0000 0.70070  0.59010  0.57050  Biso   1.000  C
  H113     1.0000 0.23170  0.87100  0.10410  Biso   1.000  H
  H114     1.0000 0.73170  0.37100  0.10410  Biso   1.000  H
  H115     1.0000 0.76830  0.87100  0.39590  Biso   1.000  H
  H116     1.0000 0.26830  0.37100  0.39590  Biso   1.000  H
  H117     1.0000 0.76830  0.12900  0.89590  Biso   1.000  H
  H118     1.0000 0.26830  0.62900  0.89590  Biso   1.000  H
  H119     1.0000 0.23170  0.12900  0.60410  Biso   1.000  H
  H120     1.0000 0.73170  0.62900  0.60410  Biso   1.000  H
  N17      1.0000 0.19188  0.88660  0.01364  Biso   1.000  N
  N18      1.0000 0.69188  0.38660  0.01364  Biso   1.000  N
  N19      1.0000 0.80812  0.88660  0.48636  Biso   1.000  N
  N20      1.0000 0.30812  0.38660  0.48636  Biso   1.000  N
  N21      1.0000 0.80812  0.11340  0.98636  Biso   1.000  N
  N22      1.0000 0.30812  0.61340  0.98636  Biso   1.000  N
  N23      1.0000 0.19188  0.11340  0.51364  Biso   1.000  N
  N24      1.0000 0.69188  0.61340  0.51364  Biso   1.000  N
  N25      1.0000 0.14550  0.95650  0.97143  Biso   1.000  N
  N26      1.0000 0.64550  0.45650  0.97143  Biso   1.000  N
  N27      1.0000 0.85450  0.95650  0.52857  Biso   1.000  N
  N28      1.0000 0.35450  0.45650  0.52857  Biso   1.000  N
  N29      1.0000 0.85450  0.04350  0.02857  Biso   1.000  N
  N30      1.0000 0.35450  0.54350  0.02857  Biso   1.000  N
  N31      1.0000 0.14550  0.04350  0.47143  Biso   1.000  N
  N32      1.0000 0.64550  0.54350  0.47143  Biso   1.000  N
  C153     1.0000 0.12290  0.95950  0.90320  Biso   1.000  C
  C154     1.0000 0.62290  0.45950  0.90320  Biso   1.000  C
  C155     1.0000 0.87710  0.95950  0.59680  Biso   1.000  C
  C156     1.0000 0.37710  0.45950  0.59680  Biso   1.000  C
  C157     1.0000 0.87710  0.04050  0.09680  Biso   1.000  C
  C158     1.0000 0.37710  0.54050  0.09680  Biso   1.000  C
  C159     1.0000 0.12290  0.04050  0.40320  Biso   1.000  C
  C160     1.0000 0.62290  0.54050  0.40320  Biso   1.000  C
  H121     1.0000 0.10690  0.06200  0.86700  Biso   1.000  H
  H122     1.0000 0.60690  0.56200  0.86700  Biso   1.000  H
  H123     1.0000 0.89310  0.06200  0.63300  Biso   1.000  H
  H124     1.0000 0.39310  0.56200  0.63300  Biso   1.000  H
  H125     1.0000 0.89310  0.93800  0.13300  Biso   1.000  H
  H126     1.0000 0.39310  0.43800  0.13300  Biso   1.000  H
  H127     1.0000 0.10690  0.93800  0.36700  Biso   1.000  H
  H128     1.0000 0.60690  0.43800  0.36700  Biso   1.000  H
  H129     1.0000 0.14310  0.93900  0.89600  Biso   1.000  H
  H130     1.0000 0.64310  0.43900  0.89600  Biso   1.000  H
  H131     1.0000 0.85690  0.93900  0.60400  Biso   1.000  H
  H132     1.0000 0.35690  0.43900  0.60400  Biso   1.000  H
  H133     1.0000 0.85690  0.06100  0.10400  Biso   1.000  H
  H134     1.0000 0.35690  0.56100  0.10400  Biso   1.000  H
  H135     1.0000 0.14310  0.06100  0.39600  Biso   1.000  H
  H136     1.0000 0.64310  0.56100  0.39600  Biso   1.000  H
  C161     1.0000 0.07150  0.90400  0.86460  Biso   1.000  C
  C162     1.0000 0.57150  0.40400  0.86460  Biso   1.000  C
  C163     1.0000 0.92850  0.90400  0.63540  Biso   1.000  C
  C164     1.0000 0.42850  0.40400  0.63540  Biso   1.000  C
  C165     1.0000 0.92850  0.09600  0.13540  Biso   1.000  C
  C166     1.0000 0.42850  0.59600  0.13540  Biso   1.000  C
  C167     1.0000 0.07150  0.09600  0.36460  Biso   1.000  C
  C168     1.0000 0.57150  0.59600  0.36460  Biso   1.000  C
  H137     1.0000 0.05980  0.90730  0.82050  Biso   1.000  H
  H138     1.0000 0.55980  0.40730  0.82050  Biso   1.000  H
  H139     1.0000 0.94020  0.90730  0.67950  Biso   1.000  H
  H140     1.0000 0.44020  0.40730  0.67950  Biso   1.000  H
  H141     1.0000 0.94020  0.09270  0.17950  Biso   1.000  H
  H142     1.0000 0.44020  0.59270  0.17950  Biso   1.000  H
  H143     1.0000 0.05980  0.09270  0.32050  Biso   1.000  H
  H144     1.0000 0.55980  0.59270  0.32050  Biso   1.000  H
  H145     1.0000 0.04760  0.95800  0.87000  Biso   1.000  H
  H146     1.0000 0.54760  0.45800  0.87000  Biso   1.000  H
  H147     1.0000 0.95240  0.95800  0.63000  Biso   1.000  H
  H148     1.0000 0.45240  0.45800  0.63000  Biso   1.000  H
  H149     1.0000 0.95240  0.04200  0.13000  Biso   1.000  H
  H150     1.0000 0.45240  0.54200  0.13000  Biso   1.000  H
  H151     1.0000 0.04760  0.04200  0.37000  Biso   1.000  H
  H152     1.0000 0.54760  0.54200  0.37000  Biso   1.000  H
  H153     1.0000 0.07160  0.80930  0.87680  Biso   1.000  H
  H154     1.0000 0.57160  0.30930  0.87680  Biso   1.000  H
  H155     1.0000 0.92840  0.80930  0.62320  Biso   1.000  H
  H156     1.0000 0.42840  0.30930  0.62320  Biso   1.000  H
  H157     1.0000 0.92840  0.19070  0.12320  Biso   1.000  H
  H158     1.0000 0.42840  0.69070  0.12320  Biso   1.000  H
  H159     1.0000 0.07160  0.19070  0.37680  Biso   1.000  H
  H160     1.0000 0.57160  0.69070  0.37680  Biso   1.000  H
  C169     1.0000 0.12620  0.01900  0.00150  Biso   1.000  C
  C170     1.0000 0.62620  0.51900  0.00150  Biso   1.000  C
  C171     1.0000 0.87380  0.01900  0.49850  Biso   1.000  C
  C172     1.0000 0.37380  0.51900  0.49850  Biso   1.000  C
  C173     1.0000 0.87380  0.98100  0.99850  Biso   1.000  C
  C174     1.0000 0.37380  0.48100  0.99850  Biso   1.000  C
  C175     1.0000 0.12620  0.98100  0.50150  Biso   1.000  C
  C176     1.0000 0.62620  0.48100  0.50150  Biso   1.000  C
  H161     1.0000 0.09500  0.07600  0.97800  Biso   1.000  H
  H162     1.0000 0.59500  0.57600  0.97800  Biso   1.000  H
  H163     1.0000 0.90500  0.07600  0.52200  Biso   1.000  H
  H164     1.0000 0.40500  0.57600  0.52200  Biso   1.000  H
  H165     1.0000 0.90500  0.92400  0.02200  Biso   1.000  H
  H166     1.0000 0.40500  0.42400  0.02200  Biso   1.000  H
  H167     1.0000 0.09500  0.92400  0.47800  Biso   1.000  H
  H168     1.0000 0.59500  0.42400  0.47800  Biso   1.000  H
