data_image0
_cell_length_a       30.344
_cell_length_b       9.5799
_cell_length_c       25.056
_cell_angle_alpha    90
_cell_angle_beta     123.442
_cell_angle_gamma    90

_symmetry_space_group_name_H-M    "P 1"
_symmetry_int_tables_number       1

loop_
  _symmetry_equiv_pos_as_xyz
  'x, y, z'

loop_
  _atom_site_label
  _atom_site_occupancy
  _atom_site_fract_x
  _atom_site_fract_y
  _atom_site_fract_z
  _atom_site_thermal_displace_type
  _atom_site_B_iso_or_equiv
  _atom_site_type_symbol
  Cu1      1.0000 0.00000  0.00000  0.00000  Biso   1.000  Cu
  Cu2      1.0000 0.50000  0.50000  0.00000  Biso   1.000  Cu
  Cu3      1.0000 0.00000  0.00000  0.50000  Biso   1.000  Cu
  Cu4      1.0000 0.50000  0.50000  0.50000  Biso   1.000  Cu
  O1       1.0000 0.99495  0.09830  0.92450  Biso   1.000  O
  O2       1.0000 0.49495  0.59830  0.92450  Biso   1.000  O
  O3       1.0000 0.00505  0.09830  0.57550  Biso   1.000  O
  O4       1.0000 0.50505  0.59830  0.57550  Biso   1.000  O
  O5       1.0000 0.00505  0.90170  0.07550  Biso   1.000  O
  O6       1.0000 0.50505  0.40170  0.07550  Biso   1.000  O
  O7       1.0000 0.99495  0.90170  0.42450  Biso   1.000  O
  O8       1.0000 0.49495  0.40170  0.42450  Biso   1.000  O
  C1       1.0000 0.98950  0.27600  0.85770  Biso   1.000  C
  C2       1.0000 0.48950  0.77600  0.85770  Biso   1.000  C
  C3       1.0000 0.01050  0.27600  0.64230  Biso   1.000  C
  C4       1.0000 0.51050  0.77600  0.64230  Biso   1.000  C
  C5       1.0000 0.01050  0.72400  0.14230  Biso   1.000  C
  C6       1.0000 0.51050  0.22400  0.14230  Biso   1.000  C
  C7       1.0000 0.98950  0.72400  0.35770  Biso   1.000  C
  C8       1.0000 0.48950  0.22400  0.35770  Biso   1.000  C
  F1       1.0000 0.95520  0.39500  0.82800  Biso   1.000  F
  F2       1.0000 0.45520  0.89500  0.82800  Biso   1.000  F
  F3       1.0000 0.04480  0.39500  0.67200  Biso   1.000  F
  F4       1.0000 0.54480  0.89500  0.67200  Biso   1.000  F
  F5       1.0000 0.04480  0.60500  0.17200  Biso   1.000  F
  F6       1.0000 0.54480  0.10500  0.17200  Biso   1.000  F
  F7       1.0000 0.95520  0.60500  0.32800  Biso   1.000  F
  F8       1.0000 0.45520  0.10500  0.32800  Biso   1.000  F
  F9       1.0000 0.97600  0.20900  0.81700  Biso   1.000  F
  F10      1.0000 0.47600  0.70900  0.81700  Biso   1.000  F
  F11      1.0000 0.02400  0.20900  0.68300  Biso   1.000  F
  F12      1.0000 0.52400  0.70900  0.68300  Biso   1.000  F
  F13      1.0000 0.02400  0.79100  0.18300  Biso   1.000  F
  F14      1.0000 0.52400  0.29100  0.18300  Biso   1.000  F
  F15      1.0000 0.97600  0.79100  0.31700  Biso   1.000  F
  F16      1.0000 0.47600  0.29100  0.31700  Biso   1.000  F
  F17      1.0000 0.03350  0.31400  0.88100  Biso   1.000  F
  F18      1.0000 0.53350  0.81400  0.88100  Biso   1.000  F
  F19      1.0000 0.96650  0.31400  0.61900  Biso   1.000  F
  F20      1.0000 0.46650  0.81400  0.61900  Biso   1.000  F
  F21      1.0000 0.96650  0.68600  0.11900  Biso   1.000  F
  F22      1.0000 0.46650  0.18600  0.11900  Biso   1.000  F
  F23      1.0000 0.03350  0.68600  0.38100  Biso   1.000  F
  F24      1.0000 0.53350  0.18600  0.38100  Biso   1.000  F
  F25      1.0000 0.96550  0.17200  0.80300  Biso   1.000  F
  F26      1.0000 0.46550  0.67200  0.80300  Biso   1.000  F
  F27      1.0000 0.03450  0.17200  0.69700  Biso   1.000  F
  F28      1.0000 0.53450  0.67200  0.69700  Biso   1.000  F
  F29      1.0000 0.03450  0.82800  0.19700  Biso   1.000  F
  F30      1.0000 0.53450  0.32800  0.19700  Biso   1.000  F
  F31      1.0000 0.96550  0.82800  0.30300  Biso   1.000  F
  F32      1.0000 0.46550  0.32800  0.30300  Biso   1.000  F
  F33      1.0000 0.04140  0.28400  0.88130  Biso   1.000  F
  F34      1.0000 0.54140  0.78400  0.88130  Biso   1.000  F
  F35      1.0000 0.95860  0.28400  0.61870  Biso   1.000  F
  F36      1.0000 0.45860  0.78400  0.61870  Biso   1.000  F
  F37      1.0000 0.95860  0.71600  0.11870  Biso   1.000  F
  F38      1.0000 0.45860  0.21600  0.11870  Biso   1.000  F
  F39      1.0000 0.04140  0.71600  0.38130  Biso   1.000  F
  F40      1.0000 0.54140  0.21600  0.38130  Biso   1.000  F
  F41      1.0000 0.97690  0.39100  0.83800  Biso   1.000  F
  F42      1.0000 0.47690  0.89100  0.83800  Biso   1.000  F
  F43      1.0000 0.02310  0.39100  0.66200  Biso   1.000  F
  F44      1.0000 0.52310  0.89100  0.66200  Biso   1.000  F
  F45      1.0000 0.02310  0.60900  0.16200  Biso   1.000  F
  F46      1.0000 0.52310  0.10900  0.16200  Biso   1.000  F
  F47      1.0000 0.97690  0.60900  0.33800  Biso   1.000  F
  F48      1.0000 0.47690  0.10900  0.33800  Biso   1.000  F
  C9       1.0000 0.97970  0.22070  0.90820  Biso   1.000  C
  C10      1.0000 0.47970  0.72070  0.90820  Biso   1.000  C
  C11      1.0000 0.02030  0.22070  0.59180  Biso   1.000  C
  C12      1.0000 0.52030  0.72070  0.59180  Biso   1.000  C
  C13      1.0000 0.02030  0.77930  0.09180  Biso   1.000  C
  C14      1.0000 0.52030  0.27930  0.09180  Biso   1.000  C
  C15      1.0000 0.97970  0.77930  0.40820  Biso   1.000  C
  C16      1.0000 0.47970  0.27930  0.40820  Biso   1.000  C
  C17      1.0000 0.95620  0.30650  0.92950  Biso   1.000  C
  C18      1.0000 0.45620  0.80650  0.92950  Biso   1.000  C
  C19      1.0000 0.04380  0.30650  0.57050  Biso   1.000  C
  C20      1.0000 0.54380  0.80650  0.57050  Biso   1.000  C
  C21      1.0000 0.04380  0.69350  0.07050  Biso   1.000  C
  C22      1.0000 0.54380  0.19350  0.07050  Biso   1.000  C
  C23      1.0000 0.95620  0.69350  0.42950  Biso   1.000  C
  C24      1.0000 0.45620  0.19350  0.42950  Biso   1.000  C
  H1       1.0000 0.94900  0.39800  0.91300  Biso   1.000  H
  H2       1.0000 0.44900  0.89800  0.91300  Biso   1.000  H
  H3       1.0000 0.05100  0.39800  0.58700  Biso   1.000  H
  H4       1.0000 0.55100  0.89800  0.58700  Biso   1.000  H
  H5       1.0000 0.05100  0.60200  0.08700  Biso   1.000  H
  H6       1.0000 0.55100  0.10200  0.08700  Biso   1.000  H
  H7       1.0000 0.94900  0.60200  0.41300  Biso   1.000  H
  H8       1.0000 0.44900  0.10200  0.41300  Biso   1.000  H
  C25      1.0000 0.94930  0.26700  0.97780  Biso   1.000  C
  C26      1.0000 0.44930  0.76700  0.97780  Biso   1.000  C
  C27      1.0000 0.05070  0.26700  0.52220  Biso   1.000  C
  C28      1.0000 0.55070  0.76700  0.52220  Biso   1.000  C
  C29      1.0000 0.05070  0.73300  0.02220  Biso   1.000  C
  C30      1.0000 0.55070  0.23300  0.02220  Biso   1.000  C
  C31      1.0000 0.94930  0.73300  0.47780  Biso   1.000  C
  C32      1.0000 0.44930  0.23300  0.47780  Biso   1.000  C
  C33      1.0000 0.92360  0.37530  0.99730  Biso   1.000  C
  C34      1.0000 0.42360  0.87530  0.99730  Biso   1.000  C
  C35      1.0000 0.07640  0.37530  0.50270  Biso   1.000  C
  C36      1.0000 0.57640  0.87530  0.50270  Biso   1.000  C
  C37      1.0000 0.07640  0.62470  0.00270  Biso   1.000  C
  C38      1.0000 0.57640  0.12470  0.00270  Biso   1.000  C
  C39      1.0000 0.92360  0.62470  0.49730  Biso   1.000  C
  C40      1.0000 0.42360  0.12470  0.49730  Biso   1.000  C
  F49      1.0000 0.88730  0.33600  0.99840  Biso   1.000  F
  F50      1.0000 0.38730  0.83600  0.99840  Biso   1.000  F
  F51      1.0000 0.11270  0.33600  0.50160  Biso   1.000  F
  F52      1.0000 0.61270  0.83600  0.50160  Biso   1.000  F
  F53      1.0000 0.11270  0.66400  0.00160  Biso   1.000  F
  F54      1.0000 0.61270  0.16400  0.00160  Biso   1.000  F
  F55      1.0000 0.88730  0.66400  0.49840  Biso   1.000  F
  F56      1.0000 0.38730  0.16400  0.49840  Biso   1.000  F
  F57      1.0000 0.92250  0.34200  0.04250  Biso   1.000  F
  F58      1.0000 0.42250  0.84200  0.04250  Biso   1.000  F
  F59      1.0000 0.07750  0.34200  0.45750  Biso   1.000  F
  F60      1.0000 0.57750  0.84200  0.45750  Biso   1.000  F
  F61      1.0000 0.07750  0.65800  0.95750  Biso   1.000  F
  F62      1.0000 0.57750  0.15800  0.95750  Biso   1.000  F
  F63      1.0000 0.92250  0.65800  0.54250  Biso   1.000  F
  F64      1.0000 0.42250  0.15800  0.54250  Biso   1.000  F
  F65      1.0000 0.92180  0.50200  0.97800  Biso   1.000  F
  F66      1.0000 0.42180  0.00200  0.97800  Biso   1.000  F
  F67      1.0000 0.07820  0.50200  0.52200  Biso   1.000  F
  F68      1.0000 0.57820  0.00200  0.52200  Biso   1.000  F
  F69      1.0000 0.07820  0.49800  0.02200  Biso   1.000  F
  F70      1.0000 0.57820  0.99800  0.02200  Biso   1.000  F
  F71      1.0000 0.92180  0.49800  0.47800  Biso   1.000  F
  F72      1.0000 0.42180  0.99800  0.47800  Biso   1.000  F
  F73      1.0000 0.86770  0.37500  0.94340  Biso   1.000  F
  F74      1.0000 0.36770  0.87500  0.94340  Biso   1.000  F
  F75      1.0000 0.13230  0.37500  0.55660  Biso   1.000  F
  F76      1.0000 0.63230  0.87500  0.55660  Biso   1.000  F
  F77      1.0000 0.13230  0.62500  0.05660  Biso   1.000  F
  F78      1.0000 0.63230  0.12500  0.05660  Biso   1.000  F
  F79      1.0000 0.86770  0.62500  0.44340  Biso   1.000  F
  F80      1.0000 0.36770  0.12500  0.44340  Biso   1.000  F
  F81      1.0000 0.93620  0.49800  0.99900  Biso   1.000  F
  F82      1.0000 0.43620  0.99800  0.99900  Biso   1.000  F
  F83      1.0000 0.06380  0.49800  0.50100  Biso   1.000  F
  F84      1.0000 0.56380  0.99800  0.50100  Biso   1.000  F
  F85      1.0000 0.06380  0.50200  0.00100  Biso   1.000  F
  F86      1.0000 0.56380  0.00200  0.00100  Biso   1.000  F
  F87      1.0000 0.93620  0.50200  0.49900  Biso   1.000  F
  F88      1.0000 0.43620  0.00200  0.49900  Biso   1.000  F
  F89      1.0000 0.96430  0.39800  0.06840  Biso   1.000  F
  F90      1.0000 0.46430  0.89800  0.06840  Biso   1.000  F
  F91      1.0000 0.03570  0.39800  0.43160  Biso   1.000  F
  F92      1.0000 0.53570  0.89800  0.43160  Biso   1.000  F
  F93      1.0000 0.03570  0.60200  0.93160  Biso   1.000  F
  F94      1.0000 0.53570  0.10200  0.93160  Biso   1.000  F
  F95      1.0000 0.96430  0.60200  0.56840  Biso   1.000  F
  F96      1.0000 0.46430  0.10200  0.56840  Biso   1.000  F
  O9       1.0000 0.96124  0.15450  0.00660  Biso   1.000  O
  O10      1.0000 0.46124  0.65450  0.00660  Biso   1.000  O
  O11      1.0000 0.03876  0.15450  0.49340  Biso   1.000  O
  O12      1.0000 0.53876  0.65450  0.49340  Biso   1.000  O
  O13      1.0000 0.03876  0.84550  0.99340  Biso   1.000  O
  O14      1.0000 0.53876  0.34550  0.99340  Biso   1.000  O
  O15      1.0000 0.96124  0.84550  0.50660  Biso   1.000  O
  O16      1.0000 0.46124  0.34550  0.50660  Biso   1.000  O
  Co1      1.0000 0.25000  0.75000  0.00000  Biso   1.000  Co
  Co2      1.0000 0.75000  0.25000  0.00000  Biso   1.000  Co
  Co3      1.0000 0.75000  0.75000  0.50000  Biso   1.000  Co
  Co4      1.0000 0.25000  0.25000  0.50000  Biso   1.000  Co
  O17      1.0000 0.25700  0.91360  0.95520  Biso   1.000  O
  O18      1.0000 0.75700  0.41360  0.95520  Biso   1.000  O
  O19      1.0000 0.74300  0.91360  0.54480  Biso   1.000  O
  O20      1.0000 0.24300  0.41360  0.54480  Biso   1.000  O
  O21      1.0000 0.74300  0.08640  0.04480  Biso   1.000  O
  O22      1.0000 0.24300  0.58640  0.04480  Biso   1.000  O
  O23      1.0000 0.25700  0.08640  0.45520  Biso   1.000  O
  O24      1.0000 0.75700  0.58640  0.45520  Biso   1.000  O
  C41      1.0000 0.27590  0.13980  0.93840  Biso   1.000  C
  C42      1.0000 0.77590  0.63980  0.93840  Biso   1.000  C
  C43      1.0000 0.72410  0.13980  0.56160  Biso   1.000  C
  C44      1.0000 0.22410  0.63980  0.56160  Biso   1.000  C
  C45      1.0000 0.72410  0.86020  0.06160  Biso   1.000  C
  C46      1.0000 0.22410  0.36020  0.06160  Biso   1.000  C
  C47      1.0000 0.27590  0.86020  0.43840  Biso   1.000  C
  C48      1.0000 0.77590  0.36020  0.43840  Biso   1.000  C
  F97      1.0000 0.28990  0.09600  0.90160  Biso   1.000  F
  F98      1.0000 0.78990  0.59600  0.90160  Biso   1.000  F
  F99      1.0000 0.71010  0.09600  0.59840  Biso   1.000  F
  F100     1.0000 0.21010  0.59600  0.59840  Biso   1.000  F
  F101     1.0000 0.71010  0.90400  0.09840  Biso   1.000  F
  F102     1.0000 0.21010  0.40400  0.09840  Biso   1.000  F
  F103     1.0000 0.28990  0.90400  0.40160  Biso   1.000  F
  F104     1.0000 0.78990  0.40400  0.40160  Biso   1.000  F
  F105     1.0000 0.22220  0.15900  0.89650  Biso   1.000  F
  F106     1.0000 0.72220  0.65900  0.89650  Biso   1.000  F
  F107     1.0000 0.77780  0.15900  0.60350  Biso   1.000  F
  F108     1.0000 0.27780  0.65900  0.60350  Biso   1.000  F
  F109     1.0000 0.77780  0.84100  0.10350  Biso   1.000  F
  F110     1.0000 0.27780  0.34100  0.10350  Biso   1.000  F
  F111     1.0000 0.22220  0.84100  0.39650  Biso   1.000  F
  F112     1.0000 0.72220  0.34100  0.39650  Biso   1.000  F
  F113     1.0000 0.29700  0.25200  0.96580  Biso   1.000  F
  F114     1.0000 0.79700  0.75200  0.96580  Biso   1.000  F
  F115     1.0000 0.70300  0.25200  0.53420  Biso   1.000  F
  F116     1.0000 0.20300  0.75200  0.53420  Biso   1.000  F
  F117     1.0000 0.70300  0.74800  0.03420  Biso   1.000  F
  F118     1.0000 0.20300  0.24800  0.03420  Biso   1.000  F
  F119     1.0000 0.29700  0.74800  0.46580  Biso   1.000  F
  F120     1.0000 0.79700  0.24800  0.46580  Biso   1.000  F
  F121     1.0000 0.31790  0.15500  0.93600  Biso   1.000  F
  F122     1.0000 0.81790  0.65500  0.93600  Biso   1.000  F
  F123     1.0000 0.68210  0.15500  0.56400  Biso   1.000  F
  F124     1.0000 0.18210  0.65500  0.56400  Biso   1.000  F
  F125     1.0000 0.68210  0.84500  0.06400  Biso   1.000  F
  F126     1.0000 0.18210  0.34500  0.06400  Biso   1.000  F
  F127     1.0000 0.31790  0.84500  0.43600  Biso   1.000  F
  F128     1.0000 0.81790  0.34500  0.43600  Biso   1.000  F
  F129     1.0000 0.23900  0.13400  0.88600  Biso   1.000  F
  F130     1.0000 0.73900  0.63400  0.88600  Biso   1.000  F
  F131     1.0000 0.76100  0.13400  0.61400  Biso   1.000  F
  F132     1.0000 0.26100  0.63400  0.61400  Biso   1.000  F
  F133     1.0000 0.76100  0.86600  0.11400  Biso   1.000  F
  F134     1.0000 0.26100  0.36600  0.11400  Biso   1.000  F
  F135     1.0000 0.23900  0.86600  0.38600  Biso   1.000  F
  F136     1.0000 0.73900  0.36600  0.38600  Biso   1.000  F
  F137     1.0000 0.27600  0.26100  0.96160  Biso   1.000  F
  F138     1.0000 0.77600  0.76100  0.96160  Biso   1.000  F
  F139     1.0000 0.72400  0.26100  0.53840  Biso   1.000  F
  F140     1.0000 0.22400  0.76100  0.53840  Biso   1.000  F
  F141     1.0000 0.72400  0.73900  0.03840  Biso   1.000  F
  F142     1.0000 0.22400  0.23900  0.03840  Biso   1.000  F
  F143     1.0000 0.27600  0.73900  0.46160  Biso   1.000  F
  F144     1.0000 0.77600  0.23900  0.46160  Biso   1.000  F
  C49      1.0000 0.28430  0.01850  0.98390  Biso   1.000  C
  C50      1.0000 0.78430  0.51850  0.98390  Biso   1.000  C
  C51      1.0000 0.71570  0.01850  0.51610  Biso   1.000  C
  C52      1.0000 0.21570  0.51850  0.51610  Biso   1.000  C
  C53      1.0000 0.71570  0.98150  0.01610  Biso   1.000  C
  C54      1.0000 0.21570  0.48150  0.01610  Biso   1.000  C
  C55      1.0000 0.28430  0.98150  0.48390  Biso   1.000  C
  C56      1.0000 0.78430  0.48150  0.48390  Biso   1.000  C
  C57      1.0000 0.31950  0.04030  0.04900  Biso   1.000  C
  C58      1.0000 0.81950  0.54030  0.04900  Biso   1.000  C
  C59      1.0000 0.68050  0.04030  0.45100  Biso   1.000  C
  C60      1.0000 0.18050  0.54030  0.45100  Biso   1.000  C
  C61      1.0000 0.68050  0.95970  0.95100  Biso   1.000  C
  C62      1.0000 0.18050  0.45970  0.95100  Biso   1.000  C
  C63      1.0000 0.31950  0.95970  0.54900  Biso   1.000  C
  C64      1.0000 0.81950  0.45970  0.54900  Biso   1.000  C
  H9       1.0000 0.33300  0.12000  0.06700  Biso   1.000  H
  H10      1.0000 0.83300  0.62000  0.06700  Biso   1.000  H
  H11      1.0000 0.66700  0.12000  0.43300  Biso   1.000  H
  H12      1.0000 0.16700  0.62000  0.43300  Biso   1.000  H
  H13      1.0000 0.66700  0.88000  0.93300  Biso   1.000  H
  H14      1.0000 0.16700  0.38000  0.93300  Biso   1.000  H
  H15      1.0000 0.33300  0.88000  0.56700  Biso   1.000  H
  H16      1.0000 0.83300  0.38000  0.56700  Biso   1.000  H
  C65      1.0000 0.32850  0.94420  0.09430  Biso   1.000  C
  C66      1.0000 0.82850  0.44420  0.09430  Biso   1.000  C
  C67      1.0000 0.67150  0.94420  0.40570  Biso   1.000  C
  C68      1.0000 0.17150  0.44420  0.40570  Biso   1.000  C
  C69      1.0000 0.67150  0.05580  0.90570  Biso   1.000  C
  C70      1.0000 0.17150  0.55580  0.90570  Biso   1.000  C
  C71      1.0000 0.32850  0.05580  0.59430  Biso   1.000  C
  C72      1.0000 0.82850  0.55580  0.59430  Biso   1.000  C
  C73      1.0000 0.36760  0.98360  0.16380  Biso   1.000  C
  C74      1.0000 0.86760  0.48360  0.16380  Biso   1.000  C
  C75      1.0000 0.63240  0.98360  0.33620  Biso   1.000  C
  C76      1.0000 0.13240  0.48360  0.33620  Biso   1.000  C
  C77      1.0000 0.63240  0.01640  0.83620  Biso   1.000  C
  C78      1.0000 0.13240  0.51640  0.83620  Biso   1.000  C
  C79      1.0000 0.36760  0.01640  0.66380  Biso   1.000  C
  C80      1.0000 0.86760  0.51640  0.66380  Biso   1.000  C
  F145     1.0000 0.39670  0.08300  0.16990  Biso   1.000  F
  F146     1.0000 0.89670  0.58300  0.16990  Biso   1.000  F
  F147     1.0000 0.60330  0.08300  0.33010  Biso   1.000  F
  F148     1.0000 0.10330  0.58300  0.33010  Biso   1.000  F
  F149     1.0000 0.60330  0.91700  0.83010  Biso   1.000  F
  F150     1.0000 0.10330  0.41700  0.83010  Biso   1.000  F
  F151     1.0000 0.39670  0.91700  0.66990  Biso   1.000  F
  F152     1.0000 0.89670  0.41700  0.66990  Biso   1.000  F
  F153     1.0000 0.34180  0.02000  0.19030  Biso   1.000  F
  F154     1.0000 0.84180  0.52000  0.19030  Biso   1.000  F
  F155     1.0000 0.65820  0.02000  0.30970  Biso   1.000  F
  F156     1.0000 0.15820  0.52000  0.30970  Biso   1.000  F
  F157     1.0000 0.65820  0.98000  0.80970  Biso   1.000  F
  F158     1.0000 0.15820  0.48000  0.80970  Biso   1.000  F
  F159     1.0000 0.34180  0.98000  0.69030  Biso   1.000  F
  F160     1.0000 0.84180  0.48000  0.69030  Biso   1.000  F
  F161     1.0000 0.39880  0.88100  0.19970  Biso   1.000  F
  F162     1.0000 0.89880  0.38100  0.19970  Biso   1.000  F
  F163     1.0000 0.60120  0.88100  0.30030  Biso   1.000  F
  F164     1.0000 0.10120  0.38100  0.30030  Biso   1.000  F
  F165     1.0000 0.60120  0.11900  0.80030  Biso   1.000  F
  F166     1.0000 0.10120  0.61900  0.80030  Biso   1.000  F
  F167     1.0000 0.39880  0.11900  0.69970  Biso   1.000  F
  F168     1.0000 0.89880  0.61900  0.69970  Biso   1.000  F
  F169     1.0000 0.41330  0.93400  0.17800  Biso   1.000  F
  F170     1.0000 0.91330  0.43400  0.17800  Biso   1.000  F
  F171     1.0000 0.58670  0.93400  0.32200  Biso   1.000  F
  F172     1.0000 0.08670  0.43400  0.32200  Biso   1.000  F
  F173     1.0000 0.58670  0.06600  0.82200  Biso   1.000  F
  F174     1.0000 0.08670  0.56600  0.82200  Biso   1.000  F
  F175     1.0000 0.41330  0.06600  0.67800  Biso   1.000  F
  F176     1.0000 0.91330  0.56600  0.67800  Biso   1.000  F
  F177     1.0000 0.37700  0.11100  0.17620  Biso   1.000  F
  F178     1.0000 0.87700  0.61100  0.17620  Biso   1.000  F
  F179     1.0000 0.62300  0.11100  0.32380  Biso   1.000  F
  F180     1.0000 0.12300  0.61100  0.32380  Biso   1.000  F
  F181     1.0000 0.62300  0.88900  0.82380  Biso   1.000  F
  F182     1.0000 0.12300  0.38900  0.82380  Biso   1.000  F
  F183     1.0000 0.37700  0.88900  0.67620  Biso   1.000  F
  F184     1.0000 0.87700  0.38900  0.67620  Biso   1.000  F
  F185     1.0000 0.35900  0.93100  0.20090  Biso   1.000  F
  F186     1.0000 0.85900  0.43100  0.20090  Biso   1.000  F
  F187     1.0000 0.64100  0.93100  0.29910  Biso   1.000  F
  F188     1.0000 0.14100  0.43100  0.29910  Biso   1.000  F
  F189     1.0000 0.64100  0.06900  0.79910  Biso   1.000  F
  F190     1.0000 0.14100  0.56900  0.79910  Biso   1.000  F
  F191     1.0000 0.35900  0.06900  0.70090  Biso   1.000  F
  F192     1.0000 0.85900  0.56900  0.70090  Biso   1.000  F
  O25      1.0000 0.30822  0.82520  0.08560  Biso   1.000  O
  O26      1.0000 0.80822  0.32520  0.08560  Biso   1.000  O
  O27      1.0000 0.69178  0.82520  0.41440  Biso   1.000  O
  O28      1.0000 0.19178  0.32520  0.41440  Biso   1.000  O
  O29      1.0000 0.69178  0.17480  0.91440  Biso   1.000  O
  O30      1.0000 0.19178  0.67480  0.91440  Biso   1.000  O
  O31      1.0000 0.30822  0.17480  0.58560  Biso   1.000  O
  O32      1.0000 0.80822  0.67480  0.58560  Biso   1.000  O
  O33      1.0000 0.07160  0.13290  0.05510  Biso   1.000  O
  O34      1.0000 0.57160  0.63290  0.05510  Biso   1.000  O
  O35      1.0000 0.92840  0.13290  0.44490  Biso   1.000  O
  O36      1.0000 0.42840  0.63290  0.44490  Biso   1.000  O
  O37      1.0000 0.92840  0.86710  0.94490  Biso   1.000  O
  O38      1.0000 0.42840  0.36710  0.94490  Biso   1.000  O
  O39      1.0000 0.07160  0.86710  0.55510  Biso   1.000  O
  O40      1.0000 0.57160  0.36710  0.55510  Biso   1.000  O
  N1       1.0000 0.11420  0.10330  0.10910  Biso   1.000  N
  N2       1.0000 0.61420  0.60330  0.10910  Biso   1.000  N
  N3       1.0000 0.88580  0.10330  0.39090  Biso   1.000  N
  N4       1.0000 0.38580  0.60330  0.39090  Biso   1.000  N
  N5       1.0000 0.88580  0.89670  0.89090  Biso   1.000  N
  N6       1.0000 0.38580  0.39670  0.89090  Biso   1.000  N
  N7       1.0000 0.11420  0.89670  0.60910  Biso   1.000  N
  N8       1.0000 0.61420  0.39670  0.60910  Biso   1.000  N
  C81      1.0000 0.12690  0.16410  0.17130  Biso   1.000  C
  C82      1.0000 0.62690  0.66410  0.17130  Biso   1.000  C
  C83      1.0000 0.87310  0.16410  0.32870  Biso   1.000  C
  C84      1.0000 0.37310  0.66410  0.32870  Biso   1.000  C
  C85      1.0000 0.87310  0.83590  0.82870  Biso   1.000  C
  C86      1.0000 0.37310  0.33590  0.82870  Biso   1.000  C
  C87      1.0000 0.12690  0.83590  0.67130  Biso   1.000  C
  C88      1.0000 0.62690  0.33590  0.67130  Biso   1.000  C
  C89      1.0000 0.07760  0.16420  0.17260  Biso   1.000  C
  C90      1.0000 0.57760  0.66420  0.17260  Biso   1.000  C
  C91      1.0000 0.92240  0.16420  0.32740  Biso   1.000  C
  C92      1.0000 0.42240  0.66420  0.32740  Biso   1.000  C
  C93      1.0000 0.92240  0.83580  0.82740  Biso   1.000  C
  C94      1.0000 0.42240  0.33580  0.82740  Biso   1.000  C
  C95      1.0000 0.07760  0.83580  0.67260  Biso   1.000  C
  C96      1.0000 0.57760  0.33580  0.67260  Biso   1.000  C
  H17      1.0000 0.06100  0.09200  0.16800  Biso   1.000  H
  H18      1.0000 0.56100  0.59200  0.16800  Biso   1.000  H
  H19      1.0000 0.93900  0.09200  0.33200  Biso   1.000  H
  H20      1.0000 0.43900  0.59200  0.33200  Biso   1.000  H
  H21      1.0000 0.93900  0.90800  0.83200  Biso   1.000  H
  H22      1.0000 0.43900  0.40800  0.83200  Biso   1.000  H
  H23      1.0000 0.06100  0.90800  0.66800  Biso   1.000  H
  H24      1.0000 0.56100  0.40800  0.66800  Biso   1.000  H
  H25      1.0000 0.96400  0.81200  0.16100  Biso   1.000  H
  H26      1.0000 0.46400  0.31200  0.16100  Biso   1.000  H
  H27      1.0000 0.03600  0.81200  0.33900  Biso   1.000  H
  H28      1.0000 0.53600  0.31200  0.33900  Biso   1.000  H
  H29      1.0000 0.03600  0.18800  0.83900  Biso   1.000  H
  H30      1.0000 0.53600  0.68800  0.83900  Biso   1.000  H
  H31      1.0000 0.96400  0.18800  0.66100  Biso   1.000  H
  H32      1.0000 0.46400  0.68800  0.66100  Biso   1.000  H
  H33      1.0000 0.08680  0.19600  0.21200  Biso   1.000  H
  H34      1.0000 0.58680  0.69600  0.21200  Biso   1.000  H
  H35      1.0000 0.91320  0.19600  0.28800  Biso   1.000  H
  H36      1.0000 0.41320  0.69600  0.28800  Biso   1.000  H
  H37      1.0000 0.91320  0.80400  0.78800  Biso   1.000  H
  H38      1.0000 0.41320  0.30400  0.78800  Biso   1.000  H
  H39      1.0000 0.08680  0.80400  0.71200  Biso   1.000  H
  H40      1.0000 0.58680  0.30400  0.71200  Biso   1.000  H
  C97      1.0000 0.14090  0.31720  0.16910  Biso   1.000  C
  C98      1.0000 0.64090  0.81720  0.16910  Biso   1.000  C
  C99      1.0000 0.85910  0.31720  0.33090  Biso   1.000  C
  C100     1.0000 0.35910  0.81720  0.33090  Biso   1.000  C
  C101     1.0000 0.85910  0.68280  0.83090  Biso   1.000  C
  C102     1.0000 0.35910  0.18280  0.83090  Biso   1.000  C
  C103     1.0000 0.14090  0.68280  0.66910  Biso   1.000  C
  C104     1.0000 0.64090  0.18280  0.66910  Biso   1.000  C
  H41      1.0000 0.16700  0.32900  0.16800  Biso   1.000  H
  H42      1.0000 0.66700  0.82900  0.16800  Biso   1.000  H
  H43      1.0000 0.83300  0.32900  0.33200  Biso   1.000  H
  H44      1.0000 0.33300  0.82900  0.33200  Biso   1.000  H
  H45      1.0000 0.83300  0.67100  0.83200  Biso   1.000  H
  H46      1.0000 0.33300  0.17100  0.83200  Biso   1.000  H
  H47      1.0000 0.16700  0.67100  0.66800  Biso   1.000  H
  H48      1.0000 0.66700  0.17100  0.66800  Biso   1.000  H
  H49      1.0000 0.14800  0.36800  0.20200  Biso   1.000  H
  H50      1.0000 0.64800  0.86800  0.20200  Biso   1.000  H
  H51      1.0000 0.85200  0.36800  0.29800  Biso   1.000  H
  H52      1.0000 0.35200  0.86800  0.29800  Biso   1.000  H
  H53      1.0000 0.85200  0.63200  0.79800  Biso   1.000  H
  H54      1.0000 0.35200  0.13200  0.79800  Biso   1.000  H
  H55      1.0000 0.14800  0.63200  0.70200  Biso   1.000  H
  H56      1.0000 0.64800  0.13200  0.70200  Biso   1.000  H
  H57      1.0000 0.09900  0.05100  0.87400  Biso   1.000  H
  H58      1.0000 0.59900  0.55100  0.87400  Biso   1.000  H
  H59      1.0000 0.90100  0.05100  0.62600  Biso   1.000  H
  H60      1.0000 0.40100  0.55100  0.62600  Biso   1.000  H
  H61      1.0000 0.90100  0.94900  0.12600  Biso   1.000  H
  H62      1.0000 0.40100  0.44900  0.12600  Biso   1.000  H
  H63      1.0000 0.09900  0.94900  0.37400  Biso   1.000  H
  H64      1.0000 0.59900  0.44900  0.37400  Biso   1.000  H
  C105     1.0000 0.17340  0.07200  0.21910  Biso   1.000  C
  C106     1.0000 0.67340  0.57200  0.21910  Biso   1.000  C
  C107     1.0000 0.82660  0.07200  0.28090  Biso   1.000  C
  C108     1.0000 0.32660  0.57200  0.28090  Biso   1.000  C
  C109     1.0000 0.82660  0.92800  0.78090  Biso   1.000  C
  C110     1.0000 0.32660  0.42800  0.78090  Biso   1.000  C
  C111     1.0000 0.17340  0.92800  0.71910  Biso   1.000  C
  C112     1.0000 0.67340  0.42800  0.71910  Biso   1.000  C
  C113     1.0000 0.21480  0.14280  0.28110  Biso   1.000  C
  C114     1.0000 0.71480  0.64280  0.28110  Biso   1.000  C
  C115     1.0000 0.78520  0.14280  0.21890  Biso   1.000  C
  C116     1.0000 0.28520  0.64280  0.21890  Biso   1.000  C
  C117     1.0000 0.78520  0.85720  0.71890  Biso   1.000  C
  C118     1.0000 0.28520  0.35720  0.71890  Biso   1.000  C
  C119     1.0000 0.21480  0.85720  0.78110  Biso   1.000  C
  C120     1.0000 0.71480  0.35720  0.78110  Biso   1.000  C
  H65      1.0000 0.22400  0.20600  0.26800  Biso   1.000  H
  H66      1.0000 0.72400  0.70600  0.26800  Biso   1.000  H
  H67      1.0000 0.77600  0.20600  0.23200  Biso   1.000  H
  H68      1.0000 0.27600  0.70600  0.23200  Biso   1.000  H
  H69      1.0000 0.77600  0.79400  0.73200  Biso   1.000  H
  H70      1.0000 0.27600  0.29400  0.73200  Biso   1.000  H
  H71      1.0000 0.22400  0.79400  0.76800  Biso   1.000  H
  H72      1.0000 0.72400  0.29400  0.76800  Biso   1.000  H
  H73      1.0000 0.23800  0.09200  0.30200  Biso   1.000  H
  H74      1.0000 0.73800  0.59200  0.30200  Biso   1.000  H
  H75      1.0000 0.76200  0.09200  0.19800  Biso   1.000  H
  H76      1.0000 0.26200  0.59200  0.19800  Biso   1.000  H
  H77      1.0000 0.76200  0.90800  0.69800  Biso   1.000  H
  H78      1.0000 0.26200  0.40800  0.69800  Biso   1.000  H
  H79      1.0000 0.23800  0.90800  0.80200  Biso   1.000  H
  H80      1.0000 0.73800  0.40800  0.80200  Biso   1.000  H
  H81      1.0000 0.04000  0.58000  0.24000  Biso   1.000  H
  H82      1.0000 0.54000  0.08000  0.24000  Biso   1.000  H
  H83      1.0000 0.96000  0.58000  0.26000  Biso   1.000  H
  H84      1.0000 0.46000  0.08000  0.26000  Biso   1.000  H
  H85      1.0000 0.96000  0.42000  0.76000  Biso   1.000  H
  H86      1.0000 0.46000  0.92000  0.76000  Biso   1.000  H
  H87      1.0000 0.04000  0.42000  0.74000  Biso   1.000  H
  H88      1.0000 0.54000  0.92000  0.74000  Biso   1.000  H
  C121     1.0000 0.15500  0.93620  0.23540  Biso   1.000  C
  C122     1.0000 0.65500  0.43620  0.23540  Biso   1.000  C
  C123     1.0000 0.84500  0.93620  0.26460  Biso   1.000  C
  C124     1.0000 0.34500  0.43620  0.26460  Biso   1.000  C
  C125     1.0000 0.84500  0.06380  0.76460  Biso   1.000  C
  C126     1.0000 0.34500  0.56380  0.76460  Biso   1.000  C
  C127     1.0000 0.15500  0.06380  0.73540  Biso   1.000  C
  C128     1.0000 0.65500  0.56380  0.73540  Biso   1.000  C
  H89      1.0000 0.12500  0.90300  0.19400  Biso   1.000  H
  H90      1.0000 0.62500  0.40300  0.19400  Biso   1.000  H
  H91      1.0000 0.87500  0.90300  0.30600  Biso   1.000  H
  H92      1.0000 0.37500  0.40300  0.30600  Biso   1.000  H
  H93      1.0000 0.87500  0.09700  0.80600  Biso   1.000  H
  H94      1.0000 0.37500  0.59700  0.80600  Biso   1.000  H
  H95      1.0000 0.12500  0.09700  0.69400  Biso   1.000  H
  H96      1.0000 0.62500  0.59700  0.69400  Biso   1.000  H
  H97      1.0000 0.00000  0.91000  0.59300  Biso   1.000  H
  H98      1.0000 0.50000  0.41000  0.59300  Biso   1.000  H
  H99      1.0000 0.00000  0.91000  0.90700  Biso   1.000  H
  H100     1.0000 0.50000  0.41000  0.90700  Biso   1.000  H
  H101     1.0000 0.00000  0.09000  0.40700  Biso   1.000  H
  H102     1.0000 0.50000  0.59000  0.40700  Biso   1.000  H
  H103     1.0000 0.00000  0.09000  0.09300  Biso   1.000  H
  H104     1.0000 0.50000  0.59000  0.09300  Biso   1.000  H
  H105     1.0000 0.18300  0.89500  0.25900  Biso   1.000  H
  H106     1.0000 0.68300  0.39500  0.25900  Biso   1.000  H
  H107     1.0000 0.81700  0.89500  0.24100  Biso   1.000  H
  H108     1.0000 0.31700  0.39500  0.24100  Biso   1.000  H
  H109     1.0000 0.81700  0.10500  0.74100  Biso   1.000  H
  H110     1.0000 0.31700  0.60500  0.74100  Biso   1.000  H
  H111     1.0000 0.18300  0.10500  0.75900  Biso   1.000  H
  H112     1.0000 0.68300  0.60500  0.75900  Biso   1.000  H
  N9       1.0000 0.19400  0.02730  0.17900  Biso   1.000  N
  N10      1.0000 0.69400  0.52730  0.17900  Biso   1.000  N
  N11      1.0000 0.80600  0.02730  0.32100  Biso   1.000  N
  N12      1.0000 0.30600  0.52730  0.32100  Biso   1.000  N
  N13      1.0000 0.80600  0.97270  0.82100  Biso   1.000  N
  N14      1.0000 0.30600  0.47270  0.82100  Biso   1.000  N
  N15      1.0000 0.19400  0.97270  0.67900  Biso   1.000  N
  N16      1.0000 0.69400  0.47270  0.67900  Biso   1.000  N
  O41      1.0000 0.23970  0.97480  0.20310  Biso   1.000  O
  O42      1.0000 0.73970  0.47480  0.20310  Biso   1.000  O
  O43      1.0000 0.76030  0.97480  0.29690  Biso   1.000  O
  O44      1.0000 0.26030  0.47480  0.29690  Biso   1.000  O
  O45      1.0000 0.76030  0.02520  0.79690  Biso   1.000  O
  O46      1.0000 0.26030  0.52520  0.79690  Biso   1.000  O
  O47      1.0000 0.23970  0.02520  0.70310  Biso   1.000  O
  O48      1.0000 0.73970  0.52520  0.70310  Biso   1.000  O
  C129     1.0000 0.15610  0.03720  0.11560  Biso   1.000  C
  C130     1.0000 0.65610  0.53720  0.11560  Biso   1.000  C
  C131     1.0000 0.84390  0.03720  0.38440  Biso   1.000  C
  C132     1.0000 0.34390  0.53720  0.38440  Biso   1.000  C
  C133     1.0000 0.84390  0.96280  0.88440  Biso   1.000  C
  C134     1.0000 0.34390  0.46280  0.88440  Biso   1.000  C
  C135     1.0000 0.15610  0.96280  0.61560  Biso   1.000  C
  C136     1.0000 0.65610  0.46280  0.61560  Biso   1.000  C
  C137     1.0000 0.16130  0.98820  0.06590  Biso   1.000  C
  C138     1.0000 0.66130  0.48820  0.06590  Biso   1.000  C
  C139     1.0000 0.83870  0.98820  0.43410  Biso   1.000  C
  C140     1.0000 0.33870  0.48820  0.43410  Biso   1.000  C
  C141     1.0000 0.83870  0.01180  0.93410  Biso   1.000  C
  C142     1.0000 0.33870  0.51180  0.93410  Biso   1.000  C
  C143     1.0000 0.16130  0.01180  0.56590  Biso   1.000  C
  C144     1.0000 0.66130  0.51180  0.56590  Biso   1.000  C
  C145     1.0000 0.20150  0.90540  0.07000  Biso   1.000  C
  C146     1.0000 0.70150  0.40540  0.07000  Biso   1.000  C
  C147     1.0000 0.79850  0.90540  0.43000  Biso   1.000  C
  C148     1.0000 0.29850  0.40540  0.43000  Biso   1.000  C
  C149     1.0000 0.79850  0.09460  0.93000  Biso   1.000  C
  C150     1.0000 0.29850  0.59460  0.93000  Biso   1.000  C
  C151     1.0000 0.20150  0.09460  0.57000  Biso   1.000  C
  C152     1.0000 0.70150  0.59460  0.57000  Biso   1.000  C
  H113     1.0000 0.23100  0.87200  0.10900  Biso   1.000  H
  H114     1.0000 0.73100  0.37200  0.10900  Biso   1.000  H
  H115     1.0000 0.76900  0.87200  0.39100  Biso   1.000  H
  H116     1.0000 0.26900  0.37200  0.39100  Biso   1.000  H
  H117     1.0000 0.76900  0.12800  0.89100  Biso   1.000  H
  H118     1.0000 0.26900  0.62800  0.89100  Biso   1.000  H
  H119     1.0000 0.23100  0.12800  0.60900  Biso   1.000  H
  H120     1.0000 0.73100  0.62800  0.60900  Biso   1.000  H
  N17      1.0000 0.19360  0.88420  0.01400  Biso   1.000  N
  N18      1.0000 0.69360  0.38420  0.01400  Biso   1.000  N
  N19      1.0000 0.80640  0.88420  0.48600  Biso   1.000  N
  N20      1.0000 0.30640  0.38420  0.48600  Biso   1.000  N
  N21      1.0000 0.80640  0.11580  0.98600  Biso   1.000  N
  N22      1.0000 0.30640  0.61580  0.98600  Biso   1.000  N
  N23      1.0000 0.19360  0.11580  0.51400  Biso   1.000  N
  N24      1.0000 0.69360  0.61580  0.51400  Biso   1.000  N
  N25      1.0000 0.14740  0.95290  0.97210  Biso   1.000  N
  N26      1.0000 0.64740  0.45290  0.97210  Biso   1.000  N
  N27      1.0000 0.85260  0.95290  0.52790  Biso   1.000  N
  N28      1.0000 0.35260  0.45290  0.52790  Biso   1.000  N
  N29      1.0000 0.85260  0.04710  0.02790  Biso   1.000  N
  N30      1.0000 0.35260  0.54710  0.02790  Biso   1.000  N
  N31      1.0000 0.14740  0.04710  0.47210  Biso   1.000  N
  N32      1.0000 0.64740  0.54710  0.47210  Biso   1.000  N
  C153     1.0000 0.12580  0.95340  0.90450  Biso   1.000  C
  C154     1.0000 0.62580  0.45340  0.90450  Biso   1.000  C
  C155     1.0000 0.87420  0.95340  0.59550  Biso   1.000  C
  C156     1.0000 0.37420  0.45340  0.59550  Biso   1.000  C
  C157     1.0000 0.87420  0.04660  0.09550  Biso   1.000  C
  C158     1.0000 0.37420  0.54660  0.09550  Biso   1.000  C
  C159     1.0000 0.12580  0.04660  0.40450  Biso   1.000  C
  C160     1.0000 0.62580  0.54660  0.40450  Biso   1.000  C
  H121     1.0000 0.08800  0.02000  0.83700  Biso   1.000  H
  H122     1.0000 0.58800  0.52000  0.83700  Biso   1.000  H
  H123     1.0000 0.91200  0.02000  0.66300  Biso   1.000  H
  H124     1.0000 0.41200  0.52000  0.66300  Biso   1.000  H
  H125     1.0000 0.91200  0.98000  0.16300  Biso   1.000  H
  H126     1.0000 0.41200  0.48000  0.16300  Biso   1.000  H
  H127     1.0000 0.08800  0.98000  0.33700  Biso   1.000  H
  H128     1.0000 0.58800  0.48000  0.33700  Biso   1.000  H
  H129     1.0000 0.15200  0.93700  0.90100  Biso   1.000  H
  H130     1.0000 0.65200  0.43700  0.90100  Biso   1.000  H
  H131     1.0000 0.84800  0.93700  0.59900  Biso   1.000  H
  H132     1.0000 0.34800  0.43700  0.59900  Biso   1.000  H
  H133     1.0000 0.84800  0.06300  0.09900  Biso   1.000  H
  H134     1.0000 0.34800  0.56300  0.09900  Biso   1.000  H
  H135     1.0000 0.15200  0.06300  0.40100  Biso   1.000  H
  H136     1.0000 0.65200  0.56300  0.40100  Biso   1.000  H
  C161     1.0000 0.07290  0.89900  0.86440  Biso   1.000  C
  C162     1.0000 0.57290  0.39900  0.86440  Biso   1.000  C
  C163     1.0000 0.92710  0.89900  0.63560  Biso   1.000  C
  C164     1.0000 0.42710  0.39900  0.63560  Biso   1.000  C
  C165     1.0000 0.92710  0.10100  0.13560  Biso   1.000  C
  C166     1.0000 0.42710  0.60100  0.13560  Biso   1.000  C
  C167     1.0000 0.07290  0.10100  0.36440  Biso   1.000  C
  C168     1.0000 0.57290  0.60100  0.36440  Biso   1.000  C
  H137     1.0000 0.06200  0.90330  0.82050  Biso   1.000  H
  H138     1.0000 0.56200  0.40330  0.82050  Biso   1.000  H
  H139     1.0000 0.93800  0.90330  0.67950  Biso   1.000  H
  H140     1.0000 0.43800  0.40330  0.67950  Biso   1.000  H
  H141     1.0000 0.93800  0.09670  0.17950  Biso   1.000  H
  H142     1.0000 0.43800  0.59670  0.17950  Biso   1.000  H
  H143     1.0000 0.06200  0.09670  0.32050  Biso   1.000  H
  H144     1.0000 0.56200  0.59670  0.32050  Biso   1.000  H
  H145     1.0000 0.04940  0.95450  0.87000  Biso   1.000  H
  H146     1.0000 0.54940  0.45450  0.87000  Biso   1.000  H
  H147     1.0000 0.95060  0.95450  0.63000  Biso   1.000  H
  H148     1.0000 0.45060  0.45450  0.63000  Biso   1.000  H
  H149     1.0000 0.95060  0.04550  0.13000  Biso   1.000  H
  H150     1.0000 0.45060  0.54550  0.13000  Biso   1.000  H
  H151     1.0000 0.04940  0.04550  0.37000  Biso   1.000  H
  H152     1.0000 0.54940  0.54550  0.37000  Biso   1.000  H
  H153     1.0000 0.07220  0.80430  0.87600  Biso   1.000  H
  H154     1.0000 0.57220  0.30430  0.87600  Biso   1.000  H
  H155     1.0000 0.92780  0.80430  0.62400  Biso   1.000  H
  H156     1.0000 0.42780  0.30430  0.62400  Biso   1.000  H
  H157     1.0000 0.92780  0.19570  0.12400  Biso   1.000  H
  H158     1.0000 0.42780  0.69570  0.12400  Biso   1.000  H
  H159     1.0000 0.07220  0.19570  0.37600  Biso   1.000  H
  H160     1.0000 0.57220  0.69570  0.37600  Biso   1.000  H
  C169     1.0000 0.12700  0.01740  0.00110  Biso   1.000  C
  C170     1.0000 0.62700  0.51740  0.00110  Biso   1.000  C
  C171     1.0000 0.87300  0.01740  0.49890  Biso   1.000  C
  C172     1.0000 0.37300  0.51740  0.49890  Biso   1.000  C
  C173     1.0000 0.87300  0.98260  0.99890  Biso   1.000  C
  C174     1.0000 0.37300  0.48260  0.99890  Biso   1.000  C
  C175     1.0000 0.12700  0.98260  0.50110  Biso   1.000  C
  C176     1.0000 0.62700  0.48260  0.50110  Biso   1.000  C
  H161     1.0000 0.13200  0.05000  0.88300  Biso   1.000  H
  H162     1.0000 0.63200  0.55000  0.88300  Biso   1.000  H
  H163     1.0000 0.86800  0.05000  0.61700  Biso   1.000  H
  H164     1.0000 0.36800  0.55000  0.61700  Biso   1.000  H
  H165     1.0000 0.86800  0.95000  0.11700  Biso   1.000  H
  H166     1.0000 0.36800  0.45000  0.11700  Biso   1.000  H
  H167     1.0000 0.13200  0.95000  0.38300  Biso   1.000  H
  H168     1.0000 0.63200  0.45000  0.38300  Biso   1.000  H
