data_image0
_cell_length_a       30.068
_cell_length_b       9.5939
_cell_length_c       24.875
_cell_angle_alpha    90
_cell_angle_beta     123.891
_cell_angle_gamma    90

_symmetry_space_group_name_H-M    "P 1"
_symmetry_int_tables_number       1

loop_
  _symmetry_equiv_pos_as_xyz
  'x, y, z'

loop_
  _atom_site_label
  _atom_site_occupancy
  _atom_site_fract_x
  _atom_site_fract_y
  _atom_site_fract_z
  _atom_site_thermal_displace_type
  _atom_site_B_iso_or_equiv
  _atom_site_type_symbol
  Cu1      1.0000 0.25000  0.75000  0.00000  Biso   1.000  Cu
  Cu2      1.0000 0.75000  0.25000  0.00000  Biso   1.000  Cu
  Cu3      1.0000 0.75000  0.75000  0.50000  Biso   1.000  Cu
  Cu4      1.0000 0.25000  0.25000  0.50000  Biso   1.000  Cu
  Cu5      1.0000 0.00000  0.00000  0.00000  Biso   1.000  Cu
  Cu6      1.0000 0.50000  0.50000  0.00000  Biso   1.000  Cu
  Cu7      1.0000 0.00000  0.00000  0.50000  Biso   1.000  Cu
  Cu8      1.0000 0.50000  0.50000  0.50000  Biso   1.000  Cu
  O1       1.0000 0.31438  0.83310  0.08934  Biso   1.000  O
  O2       1.0000 0.81438  0.33310  0.08934  Biso   1.000  O
  O3       1.0000 0.68562  0.83310  0.41066  Biso   1.000  O
  O4       1.0000 0.18562  0.33310  0.41066  Biso   1.000  O
  O5       1.0000 0.68562  0.16690  0.91066  Biso   1.000  O
  O6       1.0000 0.18562  0.66690  0.91066  Biso   1.000  O
  O7       1.0000 0.31438  0.16690  0.58934  Biso   1.000  O
  O8       1.0000 0.81438  0.66690  0.58934  Biso   1.000  O
  C1       1.0000 0.37370  0.99350  0.16900  Biso   1.000  C
  C2       1.0000 0.87370  0.49350  0.16900  Biso   1.000  C
  C3       1.0000 0.62630  0.99350  0.33100  Biso   1.000  C
  C4       1.0000 0.12630  0.49350  0.33100  Biso   1.000  C
  C5       1.0000 0.62630  0.00650  0.83100  Biso   1.000  C
  C6       1.0000 0.12630  0.50650  0.83100  Biso   1.000  C
  C7       1.0000 0.37370  0.00650  0.66900  Biso   1.000  C
  C8       1.0000 0.87370  0.50650  0.66900  Biso   1.000  C
  F1       1.0000 0.40310  0.89390  0.20490  Biso   1.000  F
  F2       1.0000 0.90310  0.39390  0.20490  Biso   1.000  F
  F3       1.0000 0.59690  0.89390  0.29510  Biso   1.000  F
  F4       1.0000 0.09690  0.39390  0.29510  Biso   1.000  F
  F5       1.0000 0.59690  0.10610  0.79510  Biso   1.000  F
  F6       1.0000 0.09690  0.60610  0.79510  Biso   1.000  F
  F7       1.0000 0.40310  0.10610  0.70490  Biso   1.000  F
  F8       1.0000 0.90310  0.60610  0.70490  Biso   1.000  F
  F9       1.0000 0.34520  0.02700  0.19510  Biso   1.000  F
  F10      1.0000 0.84520  0.52700  0.19510  Biso   1.000  F
  F11      1.0000 0.65480  0.02700  0.30490  Biso   1.000  F
  F12      1.0000 0.15480  0.52700  0.30490  Biso   1.000  F
  F13      1.0000 0.65480  0.97300  0.80490  Biso   1.000  F
  F14      1.0000 0.15480  0.47300  0.80490  Biso   1.000  F
  F15      1.0000 0.34520  0.97300  0.69510  Biso   1.000  F
  F16      1.0000 0.84520  0.47300  0.69510  Biso   1.000  F
  F17      1.0000 0.40420  0.09700  0.17980  Biso   1.000  F
  F18      1.0000 0.90420  0.59700  0.17980  Biso   1.000  F
  F19      1.0000 0.59580  0.09700  0.32020  Biso   1.000  F
  F20      1.0000 0.09580  0.59700  0.32020  Biso   1.000  F
  F21      1.0000 0.59580  0.90300  0.82020  Biso   1.000  F
  F22      1.0000 0.09580  0.40300  0.82020  Biso   1.000  F
  F23      1.0000 0.40420  0.90300  0.67980  Biso   1.000  F
  F24      1.0000 0.90420  0.40300  0.67980  Biso   1.000  F
  F25      1.0000 0.42080  0.92800  0.18850  Biso   1.000  F
  F26      1.0000 0.92080  0.42800  0.18850  Biso   1.000  F
  F27      1.0000 0.57920  0.92800  0.31150  Biso   1.000  F
  F28      1.0000 0.07920  0.42800  0.31150  Biso   1.000  F
  F29      1.0000 0.57920  0.07200  0.81150  Biso   1.000  F
  F30      1.0000 0.07920  0.57200  0.81150  Biso   1.000  F
  F31      1.0000 0.42080  0.07200  0.68850  Biso   1.000  F
  F32      1.0000 0.92080  0.57200  0.68850  Biso   1.000  F
  F33      1.0000 0.35680  0.97100  0.20260  Biso   1.000  F
  F34      1.0000 0.85680  0.47100  0.20260  Biso   1.000  F
  F35      1.0000 0.64320  0.97100  0.29740  Biso   1.000  F
  F36      1.0000 0.14320  0.47100  0.29740  Biso   1.000  F
  F37      1.0000 0.64320  0.02900  0.79740  Biso   1.000  F
  F38      1.0000 0.14320  0.52900  0.79740  Biso   1.000  F
  F39      1.0000 0.35680  0.02900  0.70260  Biso   1.000  F
  F40      1.0000 0.85680  0.52900  0.70260  Biso   1.000  F
  F41      1.0000 0.38840  0.12800  0.17640  Biso   1.000  F
  F42      1.0000 0.88840  0.62800  0.17640  Biso   1.000  F
  F43      1.0000 0.61160  0.12800  0.32360  Biso   1.000  F
  F44      1.0000 0.11160  0.62800  0.32360  Biso   1.000  F
  F45      1.0000 0.61160  0.87200  0.82360  Biso   1.000  F
  F46      1.0000 0.11160  0.37200  0.82360  Biso   1.000  F
  F47      1.0000 0.38840  0.87200  0.67640  Biso   1.000  F
  F48      1.0000 0.88840  0.37200  0.67640  Biso   1.000  F
  C9       1.0000 0.33290  0.95290  0.09700  Biso   1.000  C
  C10      1.0000 0.83290  0.45290  0.09700  Biso   1.000  C
  C11      1.0000 0.66710  0.95290  0.40300  Biso   1.000  C
  C12      1.0000 0.16710  0.45290  0.40300  Biso   1.000  C
  C13      1.0000 0.66710  0.04710  0.90300  Biso   1.000  C
  C14      1.0000 0.16710  0.54710  0.90300  Biso   1.000  C
  C15      1.0000 0.33290  0.04710  0.59700  Biso   1.000  C
  C16      1.0000 0.83290  0.54710  0.59700  Biso   1.000  C
  C17      1.0000 0.32150  0.05260  0.05110  Biso   1.000  C
  C18      1.0000 0.82150  0.55260  0.05110  Biso   1.000  C
  C19      1.0000 0.67850  0.05260  0.44890  Biso   1.000  C
  C20      1.0000 0.17850  0.55260  0.44890  Biso   1.000  C
  C21      1.0000 0.67850  0.94740  0.94890  Biso   1.000  C
  C22      1.0000 0.17850  0.44740  0.94890  Biso   1.000  C
  C23      1.0000 0.32150  0.94740  0.55110  Biso   1.000  C
  C24      1.0000 0.82150  0.44740  0.55110  Biso   1.000  C
  H1       1.0000 0.32500  0.09700  0.05500  Biso   1.000  H
  H2       1.0000 0.82500  0.59700  0.05500  Biso   1.000  H
  H3       1.0000 0.67500  0.09700  0.44500  Biso   1.000  H
  H4       1.0000 0.17500  0.59700  0.44500  Biso   1.000  H
  H5       1.0000 0.67500  0.90300  0.94500  Biso   1.000  H
  H6       1.0000 0.17500  0.40300  0.94500  Biso   1.000  H
  H7       1.0000 0.32500  0.90300  0.55500  Biso   1.000  H
  H8       1.0000 0.82500  0.40300  0.55500  Biso   1.000  H
  C25      1.0000 0.28420  0.03370  0.98480  Biso   1.000  C
  C26      1.0000 0.78420  0.53370  0.98480  Biso   1.000  C
  C27      1.0000 0.71580  0.03370  0.51520  Biso   1.000  C
  C28      1.0000 0.21580  0.53370  0.51520  Biso   1.000  C
  C29      1.0000 0.71580  0.96630  0.01520  Biso   1.000  C
  C30      1.0000 0.21580  0.46630  0.01520  Biso   1.000  C
  C31      1.0000 0.28420  0.96630  0.48480  Biso   1.000  C
  C32      1.0000 0.78420  0.46630  0.48480  Biso   1.000  C
  C33      1.0000 0.27260  0.16060  0.93990  Biso   1.000  C
  C34      1.0000 0.77260  0.66060  0.93990  Biso   1.000  C
  C35      1.0000 0.72740  0.16060  0.56010  Biso   1.000  C
  C36      1.0000 0.22740  0.66060  0.56010  Biso   1.000  C
  C37      1.0000 0.72740  0.83940  0.06010  Biso   1.000  C
  C38      1.0000 0.22740  0.33940  0.06010  Biso   1.000  C
  C39      1.0000 0.27260  0.83940  0.43990  Biso   1.000  C
  C40      1.0000 0.77260  0.33940  0.43990  Biso   1.000  C
  F49      1.0000 0.28489  0.28220  0.97110  Biso   1.000  F
  F50      1.0000 0.78489  0.78220  0.97110  Biso   1.000  F
  F51      1.0000 0.71511  0.28220  0.52890  Biso   1.000  F
  F52      1.0000 0.21511  0.78220  0.52890  Biso   1.000  F
  F53      1.0000 0.71511  0.71780  0.02890  Biso   1.000  F
  F54      1.0000 0.21511  0.21780  0.02890  Biso   1.000  F
  F55      1.0000 0.28489  0.71780  0.47110  Biso   1.000  F
  F56      1.0000 0.78489  0.21780  0.47110  Biso   1.000  F
  F57      1.0000 0.22020  0.16760  0.89320  Biso   1.000  F
  F58      1.0000 0.72020  0.66760  0.89320  Biso   1.000  F
  F59      1.0000 0.77980  0.16760  0.60680  Biso   1.000  F
  F60      1.0000 0.27980  0.66760  0.60680  Biso   1.000  F
  F61      1.0000 0.77980  0.83240  0.10680  Biso   1.000  F
  F62      1.0000 0.27980  0.33240  0.10680  Biso   1.000  F
  F63      1.0000 0.22020  0.83240  0.39320  Biso   1.000  F
  F64      1.0000 0.72020  0.33240  0.39320  Biso   1.000  F
  F65      1.0000 0.29830  0.15110  0.91090  Biso   1.000  F
  F66      1.0000 0.79830  0.65110  0.91090  Biso   1.000  F
  F67      1.0000 0.70170  0.15110  0.58910  Biso   1.000  F
  F68      1.0000 0.20170  0.65110  0.58910  Biso   1.000  F
  F69      1.0000 0.70170  0.84890  0.08910  Biso   1.000  F
  F70      1.0000 0.20170  0.34890  0.08910  Biso   1.000  F
  F71      1.0000 0.29830  0.84890  0.41090  Biso   1.000  F
  F72      1.0000 0.79830  0.34890  0.41090  Biso   1.000  F
  O9       1.0000 0.25839  0.92710  0.95547  Biso   1.000  O
  O10      1.0000 0.75839  0.42710  0.95547  Biso   1.000  O
  O11      1.0000 0.74161  0.92710  0.54453  Biso   1.000  O
  O12      1.0000 0.24161  0.42710  0.54453  Biso   1.000  O
  O13      1.0000 0.74161  0.07290  0.04453  Biso   1.000  O
  O14      1.0000 0.24161  0.57290  0.04453  Biso   1.000  O
  O15      1.0000 0.25839  0.07290  0.45547  Biso   1.000  O
  O16      1.0000 0.75839  0.57290  0.45547  Biso   1.000  O
  O17      1.0000 0.04570  0.82520  0.00110  Biso   1.000  O
  O18      1.0000 0.54570  0.32520  0.00110  Biso   1.000  O
  O19      1.0000 0.95430  0.82520  0.49890  Biso   1.000  O
  O20      1.0000 0.45430  0.32520  0.49890  Biso   1.000  O
  O21      1.0000 0.95430  0.17480  0.99890  Biso   1.000  O
  O22      1.0000 0.45430  0.67480  0.99890  Biso   1.000  O
  O23      1.0000 0.04570  0.17480  0.50110  Biso   1.000  O
  O24      1.0000 0.54570  0.67480  0.50110  Biso   1.000  O
  C41      1.0000 0.08560  0.60890  0.01380  Biso   1.000  C
  C42      1.0000 0.58560  0.10890  0.01380  Biso   1.000  C
  C43      1.0000 0.91440  0.60890  0.48620  Biso   1.000  C
  C44      1.0000 0.41440  0.10890  0.48620  Biso   1.000  C
  C45      1.0000 0.91440  0.39110  0.98620  Biso   1.000  C
  C46      1.0000 0.41440  0.89110  0.98620  Biso   1.000  C
  C47      1.0000 0.08560  0.39110  0.51380  Biso   1.000  C
  C48      1.0000 0.58560  0.89110  0.51380  Biso   1.000  C
  F73      1.0000 0.12480  0.64800  0.01790  Biso   1.000  F
  F74      1.0000 0.62480  0.14800  0.01790  Biso   1.000  F
  F75      1.0000 0.87520  0.64800  0.48210  Biso   1.000  F
  F76      1.0000 0.37520  0.14800  0.48210  Biso   1.000  F
  F77      1.0000 0.87520  0.35200  0.98210  Biso   1.000  F
  F78      1.0000 0.37520  0.85200  0.98210  Biso   1.000  F
  F79      1.0000 0.12480  0.35200  0.51790  Biso   1.000  F
  F80      1.0000 0.62480  0.85200  0.51790  Biso   1.000  F
  F81      1.0000 0.07230  0.49700  0.01940  Biso   1.000  F
  F82      1.0000 0.57230  0.99700  0.01940  Biso   1.000  F
  F83      1.0000 0.92770  0.49700  0.48060  Biso   1.000  F
  F84      1.0000 0.42770  0.99700  0.48060  Biso   1.000  F
  F85      1.0000 0.92770  0.50300  0.98060  Biso   1.000  F
  F86      1.0000 0.42770  0.00300  0.98060  Biso   1.000  F
  F87      1.0000 0.07230  0.50300  0.51940  Biso   1.000  F
  F88      1.0000 0.57230  0.00300  0.51940  Biso   1.000  F
  F89      1.0000 0.08310  0.46000  0.02410  Biso   1.000  F
  F90      1.0000 0.58310  0.96000  0.02410  Biso   1.000  F
  F91      1.0000 0.91690  0.46000  0.47590  Biso   1.000  F
  F92      1.0000 0.41690  0.96000  0.47590  Biso   1.000  F
  F93      1.0000 0.91690  0.54000  0.97590  Biso   1.000  F
  F94      1.0000 0.41690  0.04000  0.97590  Biso   1.000  F
  F95      1.0000 0.08310  0.54000  0.52410  Biso   1.000  F
  F96      1.0000 0.58310  0.04000  0.52410  Biso   1.000  F
  F97      1.0000 0.14310  0.61640  0.07620  Biso   1.000  F
  F98      1.0000 0.64310  0.11640  0.07620  Biso   1.000  F
  F99      1.0000 0.85690  0.61640  0.42380  Biso   1.000  F
  F100     1.0000 0.35690  0.11640  0.42380  Biso   1.000  F
  F101     1.0000 0.85690  0.38360  0.92380  Biso   1.000  F
  F102     1.0000 0.35690  0.88360  0.92380  Biso   1.000  F
  F103     1.0000 0.14310  0.38360  0.57620  Biso   1.000  F
  F104     1.0000 0.64310  0.88360  0.57620  Biso   1.000  F
  F105     1.0000 0.09430  0.63870  0.97650  Biso   1.000  F
  F106     1.0000 0.59430  0.13870  0.97650  Biso   1.000  F
  F107     1.0000 0.90570  0.63870  0.52350  Biso   1.000  F
  F108     1.0000 0.40570  0.13870  0.52350  Biso   1.000  F
  F109     1.0000 0.90570  0.36130  0.02350  Biso   1.000  F
  F110     1.0000 0.40570  0.86130  0.02350  Biso   1.000  F
  F111     1.0000 0.09430  0.36130  0.47650  Biso   1.000  F
  F112     1.0000 0.59430  0.86130  0.47650  Biso   1.000  F
  F113     1.0000 0.05090  0.59650  0.93910  Biso   1.000  F
  F114     1.0000 0.55090  0.09650  0.93910  Biso   1.000  F
  F115     1.0000 0.94910  0.59650  0.56090  Biso   1.000  F
  F116     1.0000 0.44910  0.09650  0.56090  Biso   1.000  F
  F117     1.0000 0.94910  0.40350  0.06090  Biso   1.000  F
  F118     1.0000 0.44910  0.90350  0.06090  Biso   1.000  F
  F119     1.0000 0.05090  0.40350  0.43910  Biso   1.000  F
  F120     1.0000 0.55090  0.90350  0.43910  Biso   1.000  F
  C49      1.0000 0.05530  0.71290  0.03090  Biso   1.000  C
  C50      1.0000 0.55530  0.21290  0.03090  Biso   1.000  C
  C51      1.0000 0.94470  0.71290  0.46910  Biso   1.000  C
  C52      1.0000 0.44470  0.21290  0.46910  Biso   1.000  C
  C53      1.0000 0.94470  0.28710  0.96910  Biso   1.000  C
  C54      1.0000 0.44470  0.78710  0.96910  Biso   1.000  C
  C55      1.0000 0.05530  0.28710  0.53090  Biso   1.000  C
  C56      1.0000 0.55530  0.78710  0.53090  Biso   1.000  C
  C57      1.0000 0.04430  0.67660  0.07600  Biso   1.000  C
  C58      1.0000 0.54430  0.17660  0.07600  Biso   1.000  C
  C59      1.0000 0.95570  0.67660  0.42400  Biso   1.000  C
  C60      1.0000 0.45570  0.17660  0.42400  Biso   1.000  C
  C61      1.0000 0.95570  0.32340  0.92400  Biso   1.000  C
  C62      1.0000 0.45570  0.82340  0.92400  Biso   1.000  C
  C63      1.0000 0.04430  0.32340  0.57600  Biso   1.000  C
  C64      1.0000 0.54430  0.82340  0.57600  Biso   1.000  C
  H9       1.0000 0.04500  0.60600  0.08200  Biso   1.000  H
  H10      1.0000 0.54500  0.10600  0.08200  Biso   1.000  H
  H11      1.0000 0.95500  0.60600  0.41800  Biso   1.000  H
  H12      1.0000 0.45500  0.10600  0.41800  Biso   1.000  H
  H13      1.0000 0.95500  0.39400  0.91800  Biso   1.000  H
  H14      1.0000 0.45500  0.89400  0.91800  Biso   1.000  H
  H15      1.0000 0.04500  0.39400  0.58200  Biso   1.000  H
  H16      1.0000 0.54500  0.89400  0.58200  Biso   1.000  H
  C65      1.0000 0.01890  0.76350  0.09490  Biso   1.000  C
  C66      1.0000 0.51890  0.26350  0.09490  Biso   1.000  C
  C67      1.0000 0.98110  0.76350  0.40510  Biso   1.000  C
  C68      1.0000 0.48110  0.26350  0.40510  Biso   1.000  C
  C69      1.0000 0.98110  0.23650  0.90510  Biso   1.000  C
  C70      1.0000 0.48110  0.73650  0.90510  Biso   1.000  C
  C71      1.0000 0.01890  0.23650  0.59490  Biso   1.000  C
  C72      1.0000 0.51890  0.73650  0.59490  Biso   1.000  C
  C73      1.0000 0.00480  0.70910  0.14230  Biso   1.000  C
  C74      1.0000 0.50480  0.20910  0.14230  Biso   1.000  C
  C75      1.0000 0.99520  0.70910  0.35770  Biso   1.000  C
  C76      1.0000 0.49520  0.20910  0.35770  Biso   1.000  C
  C77      1.0000 0.99520  0.29090  0.85770  Biso   1.000  C
  C78      1.0000 0.49520  0.79090  0.85770  Biso   1.000  C
  C79      1.0000 0.00480  0.29090  0.64230  Biso   1.000  C
  C80      1.0000 0.50480  0.79090  0.64230  Biso   1.000  C
  F121     1.0000 0.95200  0.71120  0.11390  Biso   1.000  F
  F122     1.0000 0.45200  0.21120  0.11390  Biso   1.000  F
  F123     1.0000 0.04800  0.71120  0.38610  Biso   1.000  F
  F124     1.0000 0.54800  0.21120  0.38610  Biso   1.000  F
  F125     1.0000 0.04800  0.28880  0.88610  Biso   1.000  F
  F126     1.0000 0.54800  0.78880  0.88610  Biso   1.000  F
  F127     1.0000 0.95200  0.28880  0.61390  Biso   1.000  F
  F128     1.0000 0.45200  0.78880  0.61390  Biso   1.000  F
  F129     1.0000 0.02200  0.58100  0.16320  Biso   1.000  F
  F130     1.0000 0.52200  0.08100  0.16320  Biso   1.000  F
  F131     1.0000 0.97800  0.58100  0.33680  Biso   1.000  F
  F132     1.0000 0.47800  0.08100  0.33680  Biso   1.000  F
  F133     1.0000 0.97800  0.41900  0.83680  Biso   1.000  F
  F134     1.0000 0.47800  0.91900  0.83680  Biso   1.000  F
  F135     1.0000 0.02200  0.41900  0.66320  Biso   1.000  F
  F136     1.0000 0.52200  0.91900  0.66320  Biso   1.000  F
  F137     1.0000 0.02630  0.79070  0.19440  Biso   1.000  F
  F138     1.0000 0.52630  0.29070  0.19440  Biso   1.000  F
  F139     1.0000 0.97370  0.79070  0.30560  Biso   1.000  F
  F140     1.0000 0.47370  0.29070  0.30560  Biso   1.000  F
  F141     1.0000 0.97370  0.20930  0.80560  Biso   1.000  F
  F142     1.0000 0.47370  0.70930  0.80560  Biso   1.000  F
  F143     1.0000 0.02630  0.20930  0.69440  Biso   1.000  F
  F144     1.0000 0.52630  0.70930  0.69440  Biso   1.000  F
  O25      1.0000 0.00487  0.88840  0.07824  Biso   1.000  O
  O26      1.0000 0.50487  0.38840  0.07824  Biso   1.000  O
  O27      1.0000 0.99513  0.88840  0.42176  Biso   1.000  O
  O28      1.0000 0.49513  0.38840  0.42176  Biso   1.000  O
  O29      1.0000 0.99513  0.11160  0.92176  Biso   1.000  O
  O30      1.0000 0.49513  0.61160  0.92176  Biso   1.000  O
  O31      1.0000 0.00487  0.11160  0.57824  Biso   1.000  O
  O32      1.0000 0.50487  0.61160  0.57824  Biso   1.000  O
  O33      1.0000 0.07028  0.12680  0.05822  Biso   1.000  O
  O34      1.0000 0.57028  0.62680  0.05822  Biso   1.000  O
  O35      1.0000 0.92972  0.12680  0.44178  Biso   1.000  O
  O36      1.0000 0.42972  0.62680  0.44178  Biso   1.000  O
  O37      1.0000 0.92972  0.87320  0.94178  Biso   1.000  O
  O38      1.0000 0.42972  0.37320  0.94178  Biso   1.000  O
  O39      1.0000 0.07028  0.87320  0.55822  Biso   1.000  O
  O40      1.0000 0.57028  0.37320  0.55822  Biso   1.000  O
  N1       1.0000 0.11417  0.09240  0.11390  Biso   1.000  N
  N2       1.0000 0.61417  0.59240  0.11390  Biso   1.000  N
  N3       1.0000 0.88583  0.09240  0.38610  Biso   1.000  N
  N4       1.0000 0.38583  0.59240  0.38610  Biso   1.000  N
  N5       1.0000 0.88583  0.90760  0.88610  Biso   1.000  N
  N6       1.0000 0.38583  0.40760  0.88610  Biso   1.000  N
  N7       1.0000 0.11417  0.90760  0.61390  Biso   1.000  N
  N8       1.0000 0.61417  0.40760  0.61390  Biso   1.000  N
  C81      1.0000 0.12650  0.15230  0.17670  Biso   1.000  C
  C82      1.0000 0.62650  0.65230  0.17670  Biso   1.000  C
  C83      1.0000 0.87350  0.15230  0.32330  Biso   1.000  C
  C84      1.0000 0.37350  0.65230  0.32330  Biso   1.000  C
  C85      1.0000 0.87350  0.84770  0.82330  Biso   1.000  C
  C86      1.0000 0.37350  0.34770  0.82330  Biso   1.000  C
  C87      1.0000 0.12650  0.84770  0.67670  Biso   1.000  C
  C88      1.0000 0.62650  0.34770  0.67670  Biso   1.000  C
  C89      1.0000 0.14430  0.30300  0.17760  Biso   1.000  C
  C90      1.0000 0.64430  0.80300  0.17760  Biso   1.000  C
  C91      1.0000 0.85570  0.30300  0.32240  Biso   1.000  C
  C92      1.0000 0.35570  0.80300  0.32240  Biso   1.000  C
  C93      1.0000 0.85570  0.69700  0.82240  Biso   1.000  C
  C94      1.0000 0.35570  0.19700  0.82240  Biso   1.000  C
  C95      1.0000 0.14430  0.69700  0.67760  Biso   1.000  C
  C96      1.0000 0.64430  0.19700  0.67760  Biso   1.000  C
  H17      1.0000 0.11200  0.34300  0.13700  Biso   1.000  H
  H18      1.0000 0.61200  0.84300  0.13700  Biso   1.000  H
  H19      1.0000 0.88800  0.34300  0.36300  Biso   1.000  H
  H20      1.0000 0.38800  0.84300  0.36300  Biso   1.000  H
  H21      1.0000 0.88800  0.65700  0.86300  Biso   1.000  H
  H22      1.0000 0.38800  0.15700  0.86300  Biso   1.000  H
  H23      1.0000 0.11200  0.65700  0.63700  Biso   1.000  H
  H24      1.0000 0.61200  0.15700  0.63700  Biso   1.000  H
  H25      1.0000 0.18300  0.30100  0.17700  Biso   1.000  H
  H26      1.0000 0.68300  0.80100  0.17700  Biso   1.000  H
  H27      1.0000 0.81700  0.30100  0.32300  Biso   1.000  H
  H28      1.0000 0.31700  0.80100  0.32300  Biso   1.000  H
  H29      1.0000 0.81700  0.69900  0.82300  Biso   1.000  H
  H30      1.0000 0.31700  0.19900  0.82300  Biso   1.000  H
  H31      1.0000 0.18300  0.69900  0.67700  Biso   1.000  H
  H32      1.0000 0.68300  0.19900  0.67700  Biso   1.000  H
  H33      1.0000 0.15100  0.33300  0.20600  Biso   1.000  H
  H34      1.0000 0.65100  0.83300  0.20600  Biso   1.000  H
  H35      1.0000 0.84900  0.33300  0.29400  Biso   1.000  H
  H36      1.0000 0.34900  0.83300  0.29400  Biso   1.000  H
  H37      1.0000 0.84900  0.66700  0.79400  Biso   1.000  H
  H38      1.0000 0.34900  0.16700  0.79400  Biso   1.000  H
  H39      1.0000 0.15100  0.66700  0.70600  Biso   1.000  H
  H40      1.0000 0.65100  0.16700  0.70600  Biso   1.000  H
  C97      1.0000 0.07770  0.14690  0.18010  Biso   1.000  C
  C98      1.0000 0.57770  0.64690  0.18010  Biso   1.000  C
  C99      1.0000 0.92230  0.14690  0.31990  Biso   1.000  C
  C100     1.0000 0.42230  0.64690  0.31990  Biso   1.000  C
  C101     1.0000 0.92230  0.85310  0.81990  Biso   1.000  C
  C102     1.0000 0.42230  0.35310  0.81990  Biso   1.000  C
  C103     1.0000 0.07770  0.85310  0.68010  Biso   1.000  C
  C104     1.0000 0.57770  0.35310  0.68010  Biso   1.000  C
  H41      1.0000 0.06000  0.20300  0.15500  Biso   1.000  H
  H42      1.0000 0.56000  0.70300  0.15500  Biso   1.000  H
  H43      1.0000 0.94000  0.20300  0.34500  Biso   1.000  H
  H44      1.0000 0.44000  0.70300  0.34500  Biso   1.000  H
  H45      1.0000 0.94000  0.79700  0.84500  Biso   1.000  H
  H46      1.0000 0.44000  0.29700  0.84500  Biso   1.000  H
  H47      1.0000 0.06000  0.79700  0.65500  Biso   1.000  H
  H48      1.0000 0.56000  0.29700  0.65500  Biso   1.000  H
  H49      1.0000 0.09700  0.19800  0.22300  Biso   1.000  H
  H50      1.0000 0.59700  0.69800  0.22300  Biso   1.000  H
  H51      1.0000 0.90300  0.19800  0.27700  Biso   1.000  H
  H52      1.0000 0.40300  0.69800  0.27700  Biso   1.000  H
  H53      1.0000 0.90300  0.80200  0.77700  Biso   1.000  H
  H54      1.0000 0.40300  0.30200  0.77700  Biso   1.000  H
  H55      1.0000 0.09700  0.80200  0.72300  Biso   1.000  H
  H56      1.0000 0.59700  0.30200  0.72300  Biso   1.000  H
  H57      1.0000 0.06700  0.05900  0.17500  Biso   1.000  H
  H58      1.0000 0.56700  0.55900  0.17500  Biso   1.000  H
  H59      1.0000 0.93300  0.05900  0.32500  Biso   1.000  H
  H60      1.0000 0.43300  0.55900  0.32500  Biso   1.000  H
  H61      1.0000 0.93300  0.94100  0.82500  Biso   1.000  H
  H62      1.0000 0.43300  0.44100  0.82500  Biso   1.000  H
  H63      1.0000 0.06700  0.94100  0.67500  Biso   1.000  H
  H64      1.0000 0.56700  0.44100  0.67500  Biso   1.000  H
  C105     1.0000 0.17350  0.05400  0.22520  Biso   1.000  C
  C106     1.0000 0.67350  0.55400  0.22520  Biso   1.000  C
  C107     1.0000 0.82650  0.05400  0.27480  Biso   1.000  C
  C108     1.0000 0.32650  0.55400  0.27480  Biso   1.000  C
  C109     1.0000 0.82650  0.94600  0.77480  Biso   1.000  C
  C110     1.0000 0.32650  0.44600  0.77480  Biso   1.000  C
  C111     1.0000 0.17350  0.94600  0.72520  Biso   1.000  C
  C112     1.0000 0.67350  0.44600  0.72520  Biso   1.000  C
  C113     1.0000 0.21840  0.12270  0.28870  Biso   1.000  C
  C114     1.0000 0.71840  0.62270  0.28870  Biso   1.000  C
  C115     1.0000 0.78160  0.12270  0.21130  Biso   1.000  C
  C116     1.0000 0.28160  0.62270  0.21130  Biso   1.000  C
  C117     1.0000 0.78160  0.87730  0.71130  Biso   1.000  C
  C118     1.0000 0.28160  0.37730  0.71130  Biso   1.000  C
  C119     1.0000 0.21840  0.87730  0.78870  Biso   1.000  C
  C120     1.0000 0.71840  0.37730  0.78870  Biso   1.000  C
  H65      1.0000 0.23500  0.20800  0.27600  Biso   1.000  H
  H66      1.0000 0.73500  0.70800  0.27600  Biso   1.000  H
  H67      1.0000 0.76500  0.20800  0.22400  Biso   1.000  H
  H68      1.0000 0.26500  0.70800  0.22400  Biso   1.000  H
  H69      1.0000 0.76500  0.79200  0.72400  Biso   1.000  H
  H70      1.0000 0.26500  0.29200  0.72400  Biso   1.000  H
  H71      1.0000 0.23500  0.79200  0.77600  Biso   1.000  H
  H72      1.0000 0.73500  0.29200  0.77600  Biso   1.000  H
  H73      1.0000 0.25300  0.04500  0.31900  Biso   1.000  H
  H74      1.0000 0.75300  0.54500  0.31900  Biso   1.000  H
  H75      1.0000 0.74700  0.04500  0.18100  Biso   1.000  H
  H76      1.0000 0.24700  0.54500  0.18100  Biso   1.000  H
  H77      1.0000 0.74700  0.95500  0.68100  Biso   1.000  H
  H78      1.0000 0.24700  0.45500  0.68100  Biso   1.000  H
  H79      1.0000 0.25300  0.95500  0.81900  Biso   1.000  H
  H80      1.0000 0.75300  0.45500  0.81900  Biso   1.000  H
  H81      1.0000 0.20600  0.13800  0.31300  Biso   1.000  H
  H82      1.0000 0.70600  0.63800  0.31300  Biso   1.000  H
  H83      1.0000 0.79400  0.13800  0.18700  Biso   1.000  H
  H84      1.0000 0.29400  0.63800  0.18700  Biso   1.000  H
  H85      1.0000 0.79400  0.86200  0.68700  Biso   1.000  H
  H86      1.0000 0.29400  0.36200  0.68700  Biso   1.000  H
  H87      1.0000 0.20600  0.86200  0.81300  Biso   1.000  H
  H88      1.0000 0.70600  0.36200  0.81300  Biso   1.000  H
  C121     1.0000 0.15400  0.91860  0.23860  Biso   1.000  C
  C122     1.0000 0.65400  0.41860  0.23860  Biso   1.000  C
  C123     1.0000 0.84600  0.91860  0.26140  Biso   1.000  C
  C124     1.0000 0.34600  0.41860  0.26140  Biso   1.000  C
  C125     1.0000 0.84600  0.08140  0.76140  Biso   1.000  C
  C126     1.0000 0.34600  0.58140  0.76140  Biso   1.000  C
  C127     1.0000 0.15400  0.08140  0.73860  Biso   1.000  C
  C128     1.0000 0.65400  0.58140  0.73860  Biso   1.000  C
  H89      1.0000 0.17900  0.87400  0.25100  Biso   1.000  H
  H90      1.0000 0.67900  0.37400  0.25100  Biso   1.000  H
  H91      1.0000 0.82100  0.87400  0.24900  Biso   1.000  H
  H92      1.0000 0.32100  0.37400  0.24900  Biso   1.000  H
  H93      1.0000 0.82100  0.12600  0.74900  Biso   1.000  H
  H94      1.0000 0.32100  0.62600  0.74900  Biso   1.000  H
  H95      1.0000 0.17900  0.12600  0.75100  Biso   1.000  H
  H96      1.0000 0.67900  0.62600  0.75100  Biso   1.000  H
  H97      1.0000 0.12200  0.88400  0.19900  Biso   1.000  H
  H98      1.0000 0.62200  0.38400  0.19900  Biso   1.000  H
  H99      1.0000 0.87800  0.88400  0.30100  Biso   1.000  H
  H100     1.0000 0.37800  0.38400  0.30100  Biso   1.000  H
  H101     1.0000 0.87800  0.11600  0.80100  Biso   1.000  H
  H102     1.0000 0.37800  0.61600  0.80100  Biso   1.000  H
  H103     1.0000 0.12200  0.11600  0.69900  Biso   1.000  H
  H104     1.0000 0.62200  0.61600  0.69900  Biso   1.000  H
  H105     1.0000 0.14100  0.94000  0.27100  Biso   1.000  H
  H106     1.0000 0.64100  0.44000  0.27100  Biso   1.000  H
  H107     1.0000 0.85900  0.94000  0.22900  Biso   1.000  H
  H108     1.0000 0.35900  0.44000  0.22900  Biso   1.000  H
  H109     1.0000 0.85900  0.06000  0.72900  Biso   1.000  H
  H110     1.0000 0.35900  0.56000  0.72900  Biso   1.000  H
  H111     1.0000 0.14100  0.06000  0.77100  Biso   1.000  H
  H112     1.0000 0.64100  0.56000  0.77100  Biso   1.000  H
  N9       1.0000 0.19510  0.01490  0.18490  Biso   1.000  N
  N10      1.0000 0.69510  0.51490  0.18490  Biso   1.000  N
  N11      1.0000 0.80490  0.01490  0.31510  Biso   1.000  N
  N12      1.0000 0.30490  0.51490  0.31510  Biso   1.000  N
  N13      1.0000 0.80490  0.98510  0.81510  Biso   1.000  N
  N14      1.0000 0.30490  0.48510  0.81510  Biso   1.000  N
  N15      1.0000 0.19510  0.98510  0.68490  Biso   1.000  N
  N16      1.0000 0.69510  0.48510  0.68490  Biso   1.000  N
  O41      1.0000 0.24062  0.95950  0.20900  Biso   1.000  O
  O42      1.0000 0.74062  0.45950  0.20900  Biso   1.000  O
  O43      1.0000 0.75938  0.95950  0.29100  Biso   1.000  O
  O44      1.0000 0.25938  0.45950  0.29100  Biso   1.000  O
  O45      1.0000 0.75938  0.04050  0.79100  Biso   1.000  O
  O46      1.0000 0.25938  0.54050  0.79100  Biso   1.000  O
  O47      1.0000 0.24062  0.04050  0.70900  Biso   1.000  O
  O48      1.0000 0.74062  0.54050  0.70900  Biso   1.000  O
  C129     1.0000 0.15690  0.02900  0.12020  Biso   1.000  C
  C130     1.0000 0.65690  0.52900  0.12020  Biso   1.000  C
  C131     1.0000 0.84310  0.02900  0.37980  Biso   1.000  C
  C132     1.0000 0.34310  0.52900  0.37980  Biso   1.000  C
  C133     1.0000 0.84310  0.97100  0.87980  Biso   1.000  C
  C134     1.0000 0.34310  0.47100  0.87980  Biso   1.000  C
  C135     1.0000 0.15690  0.97100  0.62020  Biso   1.000  C
  C136     1.0000 0.65690  0.47100  0.62020  Biso   1.000  C
  C137     1.0000 0.16170  0.98410  0.06880  Biso   1.000  C
  C138     1.0000 0.66170  0.48410  0.06880  Biso   1.000  C
  C139     1.0000 0.83830  0.98410  0.43120  Biso   1.000  C
  C140     1.0000 0.33830  0.48410  0.43120  Biso   1.000  C
  C141     1.0000 0.83830  0.01590  0.93120  Biso   1.000  C
  C142     1.0000 0.33830  0.51590  0.93120  Biso   1.000  C
  C143     1.0000 0.16170  0.01590  0.56880  Biso   1.000  C
  C144     1.0000 0.66170  0.51590  0.56880  Biso   1.000  C
  C145     1.0000 0.20180  0.90380  0.07260  Biso   1.000  C
  C146     1.0000 0.70180  0.40380  0.07260  Biso   1.000  C
  C147     1.0000 0.79820  0.90380  0.42740  Biso   1.000  C
  C148     1.0000 0.29820  0.40380  0.42740  Biso   1.000  C
  C149     1.0000 0.79820  0.09620  0.92740  Biso   1.000  C
  C150     1.0000 0.29820  0.59620  0.92740  Biso   1.000  C
  C151     1.0000 0.20180  0.09620  0.57260  Biso   1.000  C
  C152     1.0000 0.70180  0.59620  0.57260  Biso   1.000  C
  H113     1.0000 0.22300  0.87000  0.09900  Biso   1.000  H
  H114     1.0000 0.72300  0.37000  0.09900  Biso   1.000  H
  H115     1.0000 0.77700  0.87000  0.40100  Biso   1.000  H
  H116     1.0000 0.27700  0.37000  0.40100  Biso   1.000  H
  H117     1.0000 0.77700  0.13000  0.90100  Biso   1.000  H
  H118     1.0000 0.27700  0.63000  0.90100  Biso   1.000  H
  H119     1.0000 0.22300  0.13000  0.59900  Biso   1.000  H
  H120     1.0000 0.72300  0.63000  0.59900  Biso   1.000  H
  N17      1.0000 0.19406  0.88300  0.01550  Biso   1.000  N
  N18      1.0000 0.69406  0.38300  0.01550  Biso   1.000  N
  N19      1.0000 0.80594  0.88300  0.48450  Biso   1.000  N
  N20      1.0000 0.30594  0.38300  0.48450  Biso   1.000  N
  N21      1.0000 0.80594  0.11700  0.98450  Biso   1.000  N
  N22      1.0000 0.30594  0.61700  0.98450  Biso   1.000  N
  N23      1.0000 0.19406  0.11700  0.51550  Biso   1.000  N
  N24      1.0000 0.69406  0.61700  0.51550  Biso   1.000  N
  N25      1.0000 0.14719  0.95430  0.97290  Biso   1.000  N
  N26      1.0000 0.64719  0.45430  0.97290  Biso   1.000  N
  N27      1.0000 0.85281  0.95430  0.52710  Biso   1.000  N
  N28      1.0000 0.35281  0.45430  0.52710  Biso   1.000  N
  N29      1.0000 0.85281  0.04570  0.02710  Biso   1.000  N
  N30      1.0000 0.35281  0.54570  0.02710  Biso   1.000  N
  N31      1.0000 0.14719  0.04570  0.47290  Biso   1.000  N
  N32      1.0000 0.64719  0.54570  0.47290  Biso   1.000  N
  C153     1.0000 0.12490  0.96100  0.90300  Biso   1.000  C
  C154     1.0000 0.62490  0.46100  0.90300  Biso   1.000  C
  C155     1.0000 0.87510  0.96100  0.59700  Biso   1.000  C
  C156     1.0000 0.37510  0.46100  0.59700  Biso   1.000  C
  C157     1.0000 0.87510  0.03900  0.09700  Biso   1.000  C
  C158     1.0000 0.37510  0.53900  0.09700  Biso   1.000  C
  C159     1.0000 0.12490  0.03900  0.40300  Biso   1.000  C
  C160     1.0000 0.62490  0.53900  0.40300  Biso   1.000  C
  H121     1.0000 0.14900  0.92300  0.89700  Biso   1.000  H
  H122     1.0000 0.64900  0.42300  0.89700  Biso   1.000  H
  H123     1.0000 0.85100  0.92300  0.60300  Biso   1.000  H
  H124     1.0000 0.35100  0.42300  0.60300  Biso   1.000  H
  H125     1.0000 0.85100  0.07700  0.10300  Biso   1.000  H
  H126     1.0000 0.35100  0.57700  0.10300  Biso   1.000  H
  H127     1.0000 0.14900  0.07700  0.39700  Biso   1.000  H
  H128     1.0000 0.64900  0.57700  0.39700  Biso   1.000  H
  H129     1.0000 0.10800  0.06800  0.88500  Biso   1.000  H
  H130     1.0000 0.60800  0.56800  0.88500  Biso   1.000  H
  H131     1.0000 0.89200  0.06800  0.61500  Biso   1.000  H
  H132     1.0000 0.39200  0.56800  0.61500  Biso   1.000  H
  H133     1.0000 0.89200  0.93200  0.11500  Biso   1.000  H
  H134     1.0000 0.39200  0.43200  0.11500  Biso   1.000  H
  H135     1.0000 0.10800  0.93200  0.38500  Biso   1.000  H
  H136     1.0000 0.60800  0.43200  0.38500  Biso   1.000  H
  C161     1.0000 0.07050  0.89490  0.86280  Biso   1.000  C
  C162     1.0000 0.57050  0.39490  0.86280  Biso   1.000  C
  C163     1.0000 0.92950  0.89490  0.63720  Biso   1.000  C
  C164     1.0000 0.42950  0.39490  0.63720  Biso   1.000  C
  C165     1.0000 0.92950  0.10510  0.13720  Biso   1.000  C
  C166     1.0000 0.42950  0.60510  0.13720  Biso   1.000  C
  C167     1.0000 0.07050  0.10510  0.36280  Biso   1.000  C
  C168     1.0000 0.57050  0.60510  0.36280  Biso   1.000  C
  H137     1.0000 0.04000  0.89600  0.81000  Biso   1.000  H
  H138     1.0000 0.54000  0.39600  0.81000  Biso   1.000  H
  H139     1.0000 0.96000  0.89600  0.69000  Biso   1.000  H
  H140     1.0000 0.46000  0.39600  0.69000  Biso   1.000  H
  H141     1.0000 0.96000  0.10400  0.19000  Biso   1.000  H
  H142     1.0000 0.46000  0.60400  0.19000  Biso   1.000  H
  H143     1.0000 0.04000  0.10400  0.31000  Biso   1.000  H
  H144     1.0000 0.54000  0.60400  0.31000  Biso   1.000  H
  H145     1.0000 0.04800  0.94800  0.86700  Biso   1.000  H
  H146     1.0000 0.54800  0.44800  0.86700  Biso   1.000  H
  H147     1.0000 0.95200  0.94800  0.63300  Biso   1.000  H
  H148     1.0000 0.45200  0.44800  0.63300  Biso   1.000  H
  H149     1.0000 0.95200  0.05200  0.13300  Biso   1.000  H
  H150     1.0000 0.45200  0.55200  0.13300  Biso   1.000  H
  H151     1.0000 0.04800  0.05200  0.36700  Biso   1.000  H
  H152     1.0000 0.54800  0.55200  0.36700  Biso   1.000  H
  H153     1.0000 0.07300  0.77500  0.87700  Biso   1.000  H
  H154     1.0000 0.57300  0.27500  0.87700  Biso   1.000  H
  H155     1.0000 0.92700  0.77500  0.62300  Biso   1.000  H
  H156     1.0000 0.42700  0.27500  0.62300  Biso   1.000  H
  H157     1.0000 0.92700  0.22500  0.12300  Biso   1.000  H
  H158     1.0000 0.42700  0.72500  0.12300  Biso   1.000  H
  H159     1.0000 0.07300  0.22500  0.37700  Biso   1.000  H
  H160     1.0000 0.57300  0.72500  0.37700  Biso   1.000  H
  C169     1.0000 0.12700  0.01310  0.00320  Biso   1.000  C
  C170     1.0000 0.62700  0.51310  0.00320  Biso   1.000  C
  C171     1.0000 0.87300  0.01310  0.49680  Biso   1.000  C
  C172     1.0000 0.37300  0.51310  0.49680  Biso   1.000  C
  C173     1.0000 0.87300  0.98690  0.99680  Biso   1.000  C
  C174     1.0000 0.37300  0.48690  0.99680  Biso   1.000  C
  C175     1.0000 0.12700  0.98690  0.50320  Biso   1.000  C
  C176     1.0000 0.62700  0.48690  0.50320  Biso   1.000  C
  H161     1.0000 0.09900  0.05600  0.98100  Biso   1.000  H
  H162     1.0000 0.59900  0.55600  0.98100  Biso   1.000  H
  H163     1.0000 0.90100  0.05600  0.51900  Biso   1.000  H
  H164     1.0000 0.40100  0.55600  0.51900  Biso   1.000  H
  H165     1.0000 0.90100  0.94400  0.01900  Biso   1.000  H
  H166     1.0000 0.40100  0.44400  0.01900  Biso   1.000  H
  H167     1.0000 0.09900  0.94400  0.48100  Biso   1.000  H
  H168     1.0000 0.59900  0.44400  0.48100  Biso   1.000  H
