data_image0
_cell_length_a       30.496
_cell_length_b       9.5559
_cell_length_c       25.1771
_cell_angle_alpha    90
_cell_angle_beta     123.849
_cell_angle_gamma    90

_symmetry_space_group_name_H-M    "P 1"
_symmetry_int_tables_number       1

loop_
  _symmetry_equiv_pos_as_xyz
  'x, y, z'

loop_
  _atom_site_label
  _atom_site_occupancy
  _atom_site_fract_x
  _atom_site_fract_y
  _atom_site_fract_z
  _atom_site_thermal_displace_type
  _atom_site_B_iso_or_equiv
  _atom_site_type_symbol
  Cu1      1.0000 0.00000  0.00000  0.00000  Biso   1.000  Cu
  Cu2      1.0000 0.50000  0.50000  0.00000  Biso   1.000  Cu
  Cu3      1.0000 0.00000  0.00000  0.50000  Biso   1.000  Cu
  Cu4      1.0000 0.50000  0.50000  0.50000  Biso   1.000  Cu
  O1       1.0000 0.99401  0.09740  0.92446  Biso   1.000  O
  O2       1.0000 0.49401  0.59740  0.92446  Biso   1.000  O
  O3       1.0000 0.00599  0.09740  0.57554  Biso   1.000  O
  O4       1.0000 0.50599  0.59740  0.57554  Biso   1.000  O
  O5       1.0000 0.00599  0.90260  0.07554  Biso   1.000  O
  O6       1.0000 0.50599  0.40260  0.07554  Biso   1.000  O
  O7       1.0000 0.99401  0.90260  0.42446  Biso   1.000  O
  O8       1.0000 0.49401  0.40260  0.42446  Biso   1.000  O
  C1       1.0000 0.98560  0.27730  0.85630  Biso   1.000  C
  C2       1.0000 0.48560  0.77730  0.85630  Biso   1.000  C
  C3       1.0000 0.01440  0.27730  0.64370  Biso   1.000  C
  C4       1.0000 0.51440  0.77730  0.64370  Biso   1.000  C
  C5       1.0000 0.01440  0.72270  0.14370  Biso   1.000  C
  C6       1.0000 0.51440  0.22270  0.14370  Biso   1.000  C
  C7       1.0000 0.98560  0.72270  0.35630  Biso   1.000  C
  C8       1.0000 0.48560  0.22270  0.35630  Biso   1.000  C
  F1       1.0000 0.95520  0.39600  0.82650  Biso   1.000  F
  F2       1.0000 0.45520  0.89600  0.82650  Biso   1.000  F
  F3       1.0000 0.04480  0.39600  0.67350  Biso   1.000  F
  F4       1.0000 0.54480  0.89600  0.67350  Biso   1.000  F
  F5       1.0000 0.04480  0.60400  0.17350  Biso   1.000  F
  F6       1.0000 0.54480  0.10400  0.17350  Biso   1.000  F
  F7       1.0000 0.95520  0.60400  0.32650  Biso   1.000  F
  F8       1.0000 0.45520  0.10400  0.32650  Biso   1.000  F
  F9       1.0000 0.96400  0.19700  0.81100  Biso   1.000  F
  F10      1.0000 0.46400  0.69700  0.81100  Biso   1.000  F
  F11      1.0000 0.03600  0.19700  0.68900  Biso   1.000  F
  F12      1.0000 0.53600  0.69700  0.68900  Biso   1.000  F
  F13      1.0000 0.03600  0.80300  0.18900  Biso   1.000  F
  F14      1.0000 0.53600  0.30300  0.18900  Biso   1.000  F
  F15      1.0000 0.96400  0.80300  0.31100  Biso   1.000  F
  F16      1.0000 0.46400  0.30300  0.31100  Biso   1.000  F
  F17      1.0000 0.03770  0.30000  0.88950  Biso   1.000  F
  F18      1.0000 0.53770  0.80000  0.88950  Biso   1.000  F
  F19      1.0000 0.96230  0.30000  0.61050  Biso   1.000  F
  F20      1.0000 0.46230  0.80000  0.61050  Biso   1.000  F
  F21      1.0000 0.96230  0.70000  0.11050  Biso   1.000  F
  F22      1.0000 0.46230  0.20000  0.11050  Biso   1.000  F
  F23      1.0000 0.03770  0.70000  0.38950  Biso   1.000  F
  F24      1.0000 0.53770  0.20000  0.38950  Biso   1.000  F
  F25      1.0000 0.97200  0.18700  0.80800  Biso   1.000  F
  F26      1.0000 0.47200  0.68700  0.80800  Biso   1.000  F
  F27      1.0000 0.02800  0.18700  0.69200  Biso   1.000  F
  F28      1.0000 0.52800  0.68700  0.69200  Biso   1.000  F
  F29      1.0000 0.02800  0.81300  0.19200  Biso   1.000  F
  F30      1.0000 0.52800  0.31300  0.19200  Biso   1.000  F
  F31      1.0000 0.97200  0.81300  0.30800  Biso   1.000  F
  F32      1.0000 0.47200  0.31300  0.30800  Biso   1.000  F
  F33      1.0000 0.03540  0.28000  0.87060  Biso   1.000  F
  F34      1.0000 0.53540  0.78000  0.87060  Biso   1.000  F
  F35      1.0000 0.96460  0.28000  0.62940  Biso   1.000  F
  F36      1.0000 0.46460  0.78000  0.62940  Biso   1.000  F
  F37      1.0000 0.96460  0.72000  0.12940  Biso   1.000  F
  F38      1.0000 0.46460  0.22000  0.12940  Biso   1.000  F
  F39      1.0000 0.03540  0.72000  0.37060  Biso   1.000  F
  F40      1.0000 0.53540  0.22000  0.37060  Biso   1.000  F
  F41      1.0000 0.97790  0.39900  0.84460  Biso   1.000  F
  F42      1.0000 0.47790  0.89900  0.84460  Biso   1.000  F
  F43      1.0000 0.02210  0.39900  0.65540  Biso   1.000  F
  F44      1.0000 0.52210  0.89900  0.65540  Biso   1.000  F
  F45      1.0000 0.02210  0.60100  0.15540  Biso   1.000  F
  F46      1.0000 0.52210  0.10100  0.15540  Biso   1.000  F
  F47      1.0000 0.97790  0.60100  0.34460  Biso   1.000  F
  F48      1.0000 0.47790  0.10100  0.34460  Biso   1.000  F
  C9       1.0000 0.97810  0.21960  0.90760  Biso   1.000  C
  C10      1.0000 0.47810  0.71960  0.90760  Biso   1.000  C
  C11      1.0000 0.02190  0.21960  0.59240  Biso   1.000  C
  C12      1.0000 0.52190  0.71960  0.59240  Biso   1.000  C
  C13      1.0000 0.02190  0.78040  0.09240  Biso   1.000  C
  C14      1.0000 0.52190  0.28040  0.09240  Biso   1.000  C
  C15      1.0000 0.97810  0.78040  0.40760  Biso   1.000  C
  C16      1.0000 0.47810  0.28040  0.40760  Biso   1.000  C
  C17      1.0000 0.95590  0.30740  0.92980  Biso   1.000  C
  C18      1.0000 0.45590  0.80740  0.92980  Biso   1.000  C
  C19      1.0000 0.04410  0.30740  0.57020  Biso   1.000  C
  C20      1.0000 0.54410  0.80740  0.57020  Biso   1.000  C
  C21      1.0000 0.04410  0.69260  0.07020  Biso   1.000  C
  C22      1.0000 0.54410  0.19260  0.07020  Biso   1.000  C
  C23      1.0000 0.95590  0.69260  0.42980  Biso   1.000  C
  C24      1.0000 0.45590  0.19260  0.42980  Biso   1.000  C
  H1       1.0000 0.94430  0.39600  0.90800  Biso   1.000  H
  H2       1.0000 0.44430  0.89600  0.90800  Biso   1.000  H
  H3       1.0000 0.05570  0.39600  0.59200  Biso   1.000  H
  H4       1.0000 0.55570  0.89600  0.59200  Biso   1.000  H
  H5       1.0000 0.05570  0.60400  0.09200  Biso   1.000  H
  H6       1.0000 0.55570  0.10400  0.09200  Biso   1.000  H
  H7       1.0000 0.94430  0.60400  0.40800  Biso   1.000  H
  H8       1.0000 0.44430  0.10400  0.40800  Biso   1.000  H
  C25      1.0000 0.94930  0.26830  0.97760  Biso   1.000  C
  C26      1.0000 0.44930  0.76830  0.97760  Biso   1.000  C
  C27      1.0000 0.05070  0.26830  0.52240  Biso   1.000  C
  C28      1.0000 0.55070  0.76830  0.52240  Biso   1.000  C
  C29      1.0000 0.05070  0.73170  0.02240  Biso   1.000  C
  C30      1.0000 0.55070  0.23170  0.02240  Biso   1.000  C
  C31      1.0000 0.94930  0.73170  0.47760  Biso   1.000  C
  C32      1.0000 0.44930  0.23170  0.47760  Biso   1.000  C
  C33      1.0000 0.92430  0.37290  0.99970  Biso   1.000  C
  C34      1.0000 0.42430  0.87290  0.99970  Biso   1.000  C
  C35      1.0000 0.07570  0.37290  0.50030  Biso   1.000  C
  C36      1.0000 0.57570  0.87290  0.50030  Biso   1.000  C
  C37      1.0000 0.07570  0.62710  0.00030  Biso   1.000  C
  C38      1.0000 0.57570  0.12710  0.00030  Biso   1.000  C
  C39      1.0000 0.92430  0.62710  0.49970  Biso   1.000  C
  C40      1.0000 0.42430  0.12710  0.49970  Biso   1.000  C
  F49      1.0000 0.88620  0.33610  0.99720  Biso   1.000  F
  F50      1.0000 0.38620  0.83610  0.99720  Biso   1.000  F
  F51      1.0000 0.11380  0.33610  0.50280  Biso   1.000  F
  F52      1.0000 0.61380  0.83610  0.50280  Biso   1.000  F
  F53      1.0000 0.11380  0.66390  0.00280  Biso   1.000  F
  F54      1.0000 0.61380  0.16390  0.00280  Biso   1.000  F
  F55      1.0000 0.88620  0.66390  0.49720  Biso   1.000  F
  F56      1.0000 0.38620  0.16390  0.49720  Biso   1.000  F
  F57      1.0000 0.92110  0.33500  0.04280  Biso   1.000  F
  F58      1.0000 0.42110  0.83500  0.04280  Biso   1.000  F
  F59      1.0000 0.07890  0.33500  0.45720  Biso   1.000  F
  F60      1.0000 0.57890  0.83500  0.45720  Biso   1.000  F
  F61      1.0000 0.07890  0.66500  0.95720  Biso   1.000  F
  F62      1.0000 0.57890  0.16500  0.95720  Biso   1.000  F
  F63      1.0000 0.92110  0.66500  0.54280  Biso   1.000  F
  F64      1.0000 0.42110  0.16500  0.54280  Biso   1.000  F
  F65      1.0000 0.92300  0.50200  0.98220  Biso   1.000  F
  F66      1.0000 0.42300  0.00200  0.98220  Biso   1.000  F
  F67      1.0000 0.07700  0.50200  0.51780  Biso   1.000  F
  F68      1.0000 0.57700  0.00200  0.51780  Biso   1.000  F
  F69      1.0000 0.07700  0.49800  0.01780  Biso   1.000  F
  F70      1.0000 0.57700  0.99800  0.01780  Biso   1.000  F
  F71      1.0000 0.92300  0.49800  0.48220  Biso   1.000  F
  F72      1.0000 0.42300  0.99800  0.48220  Biso   1.000  F
  F73      1.0000 0.86760  0.37410  0.94480  Biso   1.000  F
  F74      1.0000 0.36760  0.87410  0.94480  Biso   1.000  F
  F75      1.0000 0.13240  0.37410  0.55520  Biso   1.000  F
  F76      1.0000 0.63240  0.87410  0.55520  Biso   1.000  F
  F77      1.0000 0.13240  0.62590  0.05520  Biso   1.000  F
  F78      1.0000 0.63240  0.12590  0.05520  Biso   1.000  F
  F79      1.0000 0.86760  0.62590  0.44480  Biso   1.000  F
  F80      1.0000 0.36760  0.12590  0.44480  Biso   1.000  F
  F81      1.0000 0.93500  0.49710  0.99420  Biso   1.000  F
  F82      1.0000 0.43500  0.99710  0.99420  Biso   1.000  F
  F83      1.0000 0.06500  0.49710  0.50580  Biso   1.000  F
  F84      1.0000 0.56500  0.99710  0.50580  Biso   1.000  F
  F85      1.0000 0.06500  0.50290  0.00580  Biso   1.000  F
  F86      1.0000 0.56500  0.00290  0.00580  Biso   1.000  F
  F87      1.0000 0.93500  0.50290  0.49420  Biso   1.000  F
  F88      1.0000 0.43500  0.00290  0.49420  Biso   1.000  F
  F89      1.0000 0.96420  0.39380  0.06790  Biso   1.000  F
  F90      1.0000 0.46420  0.89380  0.06790  Biso   1.000  F
  F91      1.0000 0.03580  0.39380  0.43210  Biso   1.000  F
  F92      1.0000 0.53580  0.89380  0.43210  Biso   1.000  F
  F93      1.0000 0.03580  0.60620  0.93210  Biso   1.000  F
  F94      1.0000 0.53580  0.10620  0.93210  Biso   1.000  F
  F95      1.0000 0.96420  0.60620  0.56790  Biso   1.000  F
  F96      1.0000 0.46420  0.10620  0.56790  Biso   1.000  F
  O9       1.0000 0.96142  0.15530  0.00734  Biso   1.000  O
  O10      1.0000 0.46142  0.65530  0.00734  Biso   1.000  O
  O11      1.0000 0.03858  0.15530  0.49266  Biso   1.000  O
  O12      1.0000 0.53858  0.65530  0.49266  Biso   1.000  O
  O13      1.0000 0.03858  0.84470  0.99266  Biso   1.000  O
  O14      1.0000 0.53858  0.34470  0.99266  Biso   1.000  O
  O15      1.0000 0.96142  0.84470  0.50734  Biso   1.000  O
  O16      1.0000 0.46142  0.34470  0.50734  Biso   1.000  O
  Co1      1.0000 0.25000  0.75000  0.00000  Biso   1.000  Co
  Co2      1.0000 0.75000  0.25000  0.00000  Biso   1.000  Co
  Co3      1.0000 0.75000  0.75000  0.50000  Biso   1.000  Co
  Co4      1.0000 0.25000  0.25000  0.50000  Biso   1.000  Co
  O17      1.0000 0.25637  0.91180  0.95532  Biso   1.000  O
  O18      1.0000 0.75637  0.41180  0.95532  Biso   1.000  O
  O19      1.0000 0.74363  0.91180  0.54468  Biso   1.000  O
  O20      1.0000 0.24363  0.41180  0.54468  Biso   1.000  O
  O21      1.0000 0.74363  0.08820  0.04468  Biso   1.000  O
  O22      1.0000 0.24363  0.58820  0.04468  Biso   1.000  O
  O23      1.0000 0.25637  0.08820  0.45532  Biso   1.000  O
  O24      1.0000 0.75637  0.58820  0.45532  Biso   1.000  O
  C41      1.0000 0.27380  0.13860  0.93780  Biso   1.000  C
  C42      1.0000 0.77380  0.63860  0.93780  Biso   1.000  C
  C43      1.0000 0.72620  0.13860  0.56220  Biso   1.000  C
  C44      1.0000 0.22620  0.63860  0.56220  Biso   1.000  C
  C45      1.0000 0.72620  0.86140  0.06220  Biso   1.000  C
  C46      1.0000 0.22620  0.36140  0.06220  Biso   1.000  C
  C47      1.0000 0.27380  0.86140  0.43780  Biso   1.000  C
  C48      1.0000 0.77380  0.36140  0.43780  Biso   1.000  C
  F97      1.0000 0.28740  0.10540  0.90120  Biso   1.000  F
  F98      1.0000 0.78740  0.60540  0.90120  Biso   1.000  F
  F99      1.0000 0.71260  0.10540  0.59880  Biso   1.000  F
  F100     1.0000 0.21260  0.60540  0.59880  Biso   1.000  F
  F101     1.0000 0.71260  0.89460  0.09880  Biso   1.000  F
  F102     1.0000 0.21260  0.39460  0.09880  Biso   1.000  F
  F103     1.0000 0.28740  0.89460  0.40120  Biso   1.000  F
  F104     1.0000 0.78740  0.39460  0.40120  Biso   1.000  F
  F105     1.0000 0.22010  0.15780  0.89630  Biso   1.000  F
  F106     1.0000 0.72010  0.65780  0.89630  Biso   1.000  F
  F107     1.0000 0.77990  0.15780  0.60370  Biso   1.000  F
  F108     1.0000 0.27990  0.65780  0.60370  Biso   1.000  F
  F109     1.0000 0.77990  0.84220  0.10370  Biso   1.000  F
  F110     1.0000 0.27990  0.34220  0.10370  Biso   1.000  F
  F111     1.0000 0.22010  0.84220  0.39630  Biso   1.000  F
  F112     1.0000 0.72010  0.34220  0.39630  Biso   1.000  F
  F113     1.0000 0.29320  0.25250  0.96540  Biso   1.000  F
  F114     1.0000 0.79320  0.75250  0.96540  Biso   1.000  F
  F115     1.0000 0.70680  0.25250  0.53460  Biso   1.000  F
  F116     1.0000 0.20680  0.75250  0.53460  Biso   1.000  F
  F117     1.0000 0.70680  0.74750  0.03460  Biso   1.000  F
  F118     1.0000 0.20680  0.24750  0.03460  Biso   1.000  F
  F119     1.0000 0.29320  0.74750  0.46540  Biso   1.000  F
  F120     1.0000 0.79320  0.24750  0.46540  Biso   1.000  F
  F121     1.0000 0.32150  0.15750  0.94050  Biso   1.000  F
  F122     1.0000 0.82150  0.65750  0.94050  Biso   1.000  F
  F123     1.0000 0.67850  0.15750  0.55950  Biso   1.000  F
  F124     1.0000 0.17850  0.65750  0.55950  Biso   1.000  F
  F125     1.0000 0.67850  0.84250  0.05950  Biso   1.000  F
  F126     1.0000 0.17850  0.34250  0.05950  Biso   1.000  F
  F127     1.0000 0.32150  0.84250  0.44050  Biso   1.000  F
  F128     1.0000 0.82150  0.34250  0.44050  Biso   1.000  F
  F129     1.0000 0.24230  0.12000  0.88390  Biso   1.000  F
  F130     1.0000 0.74230  0.62000  0.88390  Biso   1.000  F
  F131     1.0000 0.75770  0.12000  0.61610  Biso   1.000  F
  F132     1.0000 0.25770  0.62000  0.61610  Biso   1.000  F
  F133     1.0000 0.75770  0.88000  0.11610  Biso   1.000  F
  F134     1.0000 0.25770  0.38000  0.11610  Biso   1.000  F
  F135     1.0000 0.24230  0.88000  0.38390  Biso   1.000  F
  F136     1.0000 0.74230  0.38000  0.38390  Biso   1.000  F
  F137     1.0000 0.27400  0.25810  0.96000  Biso   1.000  F
  F138     1.0000 0.77400  0.75810  0.96000  Biso   1.000  F
  F139     1.0000 0.72600  0.25810  0.54000  Biso   1.000  F
  F140     1.0000 0.22600  0.75810  0.54000  Biso   1.000  F
  F141     1.0000 0.72600  0.74190  0.04000  Biso   1.000  F
  F142     1.0000 0.22600  0.24190  0.04000  Biso   1.000  F
  F143     1.0000 0.27400  0.74190  0.46000  Biso   1.000  F
  F144     1.0000 0.77400  0.24190  0.46000  Biso   1.000  F
  C49      1.0000 0.28310  0.01740  0.98320  Biso   1.000  C
  C50      1.0000 0.78310  0.51740  0.98320  Biso   1.000  C
  C51      1.0000 0.71690  0.01740  0.51680  Biso   1.000  C
  C52      1.0000 0.21690  0.51740  0.51680  Biso   1.000  C
  C53      1.0000 0.71690  0.98260  0.01680  Biso   1.000  C
  C54      1.0000 0.21690  0.48260  0.01680  Biso   1.000  C
  C55      1.0000 0.28310  0.98260  0.48320  Biso   1.000  C
  C56      1.0000 0.78310  0.48260  0.48320  Biso   1.000  C
  C57      1.0000 0.31880  0.03820  0.04780  Biso   1.000  C
  C58      1.0000 0.81880  0.53820  0.04780  Biso   1.000  C
  C59      1.0000 0.68120  0.03820  0.45220  Biso   1.000  C
  C60      1.0000 0.18120  0.53820  0.45220  Biso   1.000  C
  C61      1.0000 0.68120  0.96180  0.95220  Biso   1.000  C
  C62      1.0000 0.18120  0.46180  0.95220  Biso   1.000  C
  C63      1.0000 0.31880  0.96180  0.54780  Biso   1.000  C
  C64      1.0000 0.81880  0.46180  0.54780  Biso   1.000  C
  H9       1.0000 0.33210  0.11600  0.06080  Biso   1.000  H
  H10      1.0000 0.83210  0.61600  0.06080  Biso   1.000  H
  H11      1.0000 0.66790  0.11600  0.43920  Biso   1.000  H
  H12      1.0000 0.16790  0.61600  0.43920  Biso   1.000  H
  H13      1.0000 0.66790  0.88400  0.93920  Biso   1.000  H
  H14      1.0000 0.16790  0.38400  0.93920  Biso   1.000  H
  H15      1.0000 0.33210  0.88400  0.56080  Biso   1.000  H
  H16      1.0000 0.83210  0.38400  0.56080  Biso   1.000  H
  C65      1.0000 0.32839  0.94230  0.09350  Biso   1.000  C
  C66      1.0000 0.82839  0.44230  0.09350  Biso   1.000  C
  C67      1.0000 0.67161  0.94230  0.40650  Biso   1.000  C
  C68      1.0000 0.17161  0.44230  0.40650  Biso   1.000  C
  C69      1.0000 0.67161  0.05770  0.90650  Biso   1.000  C
  C70      1.0000 0.17161  0.55770  0.90650  Biso   1.000  C
  C71      1.0000 0.32839  0.05770  0.59350  Biso   1.000  C
  C72      1.0000 0.82839  0.55770  0.59350  Biso   1.000  C
  C73      1.0000 0.36770  0.97940  0.16340  Biso   1.000  C
  C74      1.0000 0.86770  0.47940  0.16340  Biso   1.000  C
  C75      1.0000 0.63230  0.97940  0.33660  Biso   1.000  C
  C76      1.0000 0.13230  0.47940  0.33660  Biso   1.000  C
  C77      1.0000 0.63230  0.02060  0.83660  Biso   1.000  C
  C78      1.0000 0.13230  0.52060  0.83660  Biso   1.000  C
  C79      1.0000 0.36770  0.02060  0.66340  Biso   1.000  C
  C80      1.0000 0.86770  0.52060  0.66340  Biso   1.000  C
  F145     1.0000 0.39490  0.08500  0.17000  Biso   1.000  F
  F146     1.0000 0.89490  0.58500  0.17000  Biso   1.000  F
  F147     1.0000 0.60510  0.08500  0.33000  Biso   1.000  F
  F148     1.0000 0.10510  0.58500  0.33000  Biso   1.000  F
  F149     1.0000 0.60510  0.91500  0.83000  Biso   1.000  F
  F150     1.0000 0.10510  0.41500  0.83000  Biso   1.000  F
  F151     1.0000 0.39490  0.91500  0.67000  Biso   1.000  F
  F152     1.0000 0.89490  0.41500  0.67000  Biso   1.000  F
  F153     1.0000 0.34130  0.01300  0.18920  Biso   1.000  F
  F154     1.0000 0.84130  0.51300  0.18920  Biso   1.000  F
  F155     1.0000 0.65870  0.01300  0.31080  Biso   1.000  F
  F156     1.0000 0.15870  0.51300  0.31080  Biso   1.000  F
  F157     1.0000 0.65870  0.98700  0.81080  Biso   1.000  F
  F158     1.0000 0.15870  0.48700  0.81080  Biso   1.000  F
  F159     1.0000 0.34130  0.98700  0.68920  Biso   1.000  F
  F160     1.0000 0.84130  0.48700  0.68920  Biso   1.000  F
  F161     1.0000 0.39790  0.87800  0.19650  Biso   1.000  F
  F162     1.0000 0.89790  0.37800  0.19650  Biso   1.000  F
  F163     1.0000 0.60210  0.87800  0.30350  Biso   1.000  F
  F164     1.0000 0.10210  0.37800  0.30350  Biso   1.000  F
  F165     1.0000 0.60210  0.12200  0.80350  Biso   1.000  F
  F166     1.0000 0.10210  0.62200  0.80350  Biso   1.000  F
  F167     1.0000 0.39790  0.12200  0.69650  Biso   1.000  F
  F168     1.0000 0.89790  0.62200  0.69650  Biso   1.000  F
  F169     1.0000 0.41460  0.93000  0.17900  Biso   1.000  F
  F170     1.0000 0.91460  0.43000  0.17900  Biso   1.000  F
  F171     1.0000 0.58540  0.93000  0.32100  Biso   1.000  F
  F172     1.0000 0.08540  0.43000  0.32100  Biso   1.000  F
  F173     1.0000 0.58540  0.07000  0.82100  Biso   1.000  F
  F174     1.0000 0.08540  0.57000  0.82100  Biso   1.000  F
  F175     1.0000 0.41460  0.07000  0.67900  Biso   1.000  F
  F176     1.0000 0.91460  0.57000  0.67900  Biso   1.000  F
  F177     1.0000 0.37390  0.10990  0.17580  Biso   1.000  F
  F178     1.0000 0.87390  0.60990  0.17580  Biso   1.000  F
  F179     1.0000 0.62610  0.10990  0.32420  Biso   1.000  F
  F180     1.0000 0.12610  0.60990  0.32420  Biso   1.000  F
  F181     1.0000 0.62610  0.89010  0.82420  Biso   1.000  F
  F182     1.0000 0.12610  0.39010  0.82420  Biso   1.000  F
  F183     1.0000 0.37390  0.89010  0.67580  Biso   1.000  F
  F184     1.0000 0.87390  0.39010  0.67580  Biso   1.000  F
  F185     1.0000 0.36290  0.92200  0.20240  Biso   1.000  F
  F186     1.0000 0.86290  0.42200  0.20240  Biso   1.000  F
  F187     1.0000 0.63710  0.92200  0.29760  Biso   1.000  F
  F188     1.0000 0.13710  0.42200  0.29760  Biso   1.000  F
  F189     1.0000 0.63710  0.07800  0.79760  Biso   1.000  F
  F190     1.0000 0.13710  0.57800  0.79760  Biso   1.000  F
  F191     1.0000 0.36290  0.07800  0.70240  Biso   1.000  F
  F192     1.0000 0.86290  0.57800  0.70240  Biso   1.000  F
  O25      1.0000 0.30767  0.82470  0.08491  Biso   1.000  O
  O26      1.0000 0.80767  0.32470  0.08491  Biso   1.000  O
  O27      1.0000 0.69233  0.82470  0.41509  Biso   1.000  O
  O28      1.0000 0.19233  0.32470  0.41509  Biso   1.000  O
  O29      1.0000 0.69233  0.17530  0.91509  Biso   1.000  O
  O30      1.0000 0.19233  0.67530  0.91509  Biso   1.000  O
  O31      1.0000 0.30767  0.17530  0.58491  Biso   1.000  O
  O32      1.0000 0.80767  0.67530  0.58491  Biso   1.000  O
  O33      1.0000 0.07156  0.13590  0.05487  Biso   1.000  O
  O34      1.0000 0.57156  0.63590  0.05487  Biso   1.000  O
  O35      1.0000 0.92844  0.13590  0.44513  Biso   1.000  O
  O36      1.0000 0.42844  0.63590  0.44513  Biso   1.000  O
  O37      1.0000 0.92844  0.86410  0.94513  Biso   1.000  O
  O38      1.0000 0.42844  0.36410  0.94513  Biso   1.000  O
  O39      1.0000 0.07156  0.86410  0.55487  Biso   1.000  O
  O40      1.0000 0.57156  0.36410  0.55487  Biso   1.000  O
  N1       1.0000 0.11481  0.10590  0.10941  Biso   1.000  N
  N2       1.0000 0.61481  0.60590  0.10941  Biso   1.000  N
  N3       1.0000 0.88519  0.10590  0.39059  Biso   1.000  N
  N4       1.0000 0.38519  0.60590  0.39059  Biso   1.000  N
  N5       1.0000 0.88519  0.89410  0.89059  Biso   1.000  N
  N6       1.0000 0.38519  0.39410  0.89059  Biso   1.000  N
  N7       1.0000 0.11481  0.89410  0.60941  Biso   1.000  N
  N8       1.0000 0.61481  0.39410  0.60941  Biso   1.000  N
  C81      1.0000 0.12800  0.16780  0.17140  Biso   1.000  C
  C82      1.0000 0.62800  0.66780  0.17140  Biso   1.000  C
  C83      1.0000 0.87200  0.16780  0.32860  Biso   1.000  C
  C84      1.0000 0.37200  0.66780  0.32860  Biso   1.000  C
  C85      1.0000 0.87200  0.83220  0.82860  Biso   1.000  C
  C86      1.0000 0.37200  0.33220  0.82860  Biso   1.000  C
  C87      1.0000 0.12800  0.83220  0.67140  Biso   1.000  C
  C88      1.0000 0.62800  0.33220  0.67140  Biso   1.000  C
  C89      1.0000 0.07880  0.16480  0.17320  Biso   1.000  C
  C90      1.0000 0.57880  0.66480  0.17320  Biso   1.000  C
  C91      1.0000 0.92120  0.16480  0.32680  Biso   1.000  C
  C92      1.0000 0.42120  0.66480  0.32680  Biso   1.000  C
  C93      1.0000 0.92120  0.83520  0.82680  Biso   1.000  C
  C94      1.0000 0.42120  0.33520  0.82680  Biso   1.000  C
  C95      1.0000 0.07880  0.83520  0.67320  Biso   1.000  C
  C96      1.0000 0.57880  0.33520  0.67320  Biso   1.000  C
  H17      1.0000 0.06400  0.07900  0.16700  Biso   1.000  H
  H18      1.0000 0.56400  0.57900  0.16700  Biso   1.000  H
  H19      1.0000 0.93600  0.07900  0.33300  Biso   1.000  H
  H20      1.0000 0.43600  0.57900  0.33300  Biso   1.000  H
  H21      1.0000 0.93600  0.92100  0.83300  Biso   1.000  H
  H22      1.0000 0.43600  0.42100  0.83300  Biso   1.000  H
  H23      1.0000 0.06400  0.92100  0.66700  Biso   1.000  H
  H24      1.0000 0.56400  0.42100  0.66700  Biso   1.000  H
  H25      1.0000 0.95700  0.86000  0.16800  Biso   1.000  H
  H26      1.0000 0.45700  0.36000  0.16800  Biso   1.000  H
  H27      1.0000 0.04300  0.86000  0.33200  Biso   1.000  H
  H28      1.0000 0.54300  0.36000  0.33200  Biso   1.000  H
  H29      1.0000 0.04300  0.14000  0.83200  Biso   1.000  H
  H30      1.0000 0.54300  0.64000  0.83200  Biso   1.000  H
  H31      1.0000 0.95700  0.14000  0.66800  Biso   1.000  H
  H32      1.0000 0.45700  0.64000  0.66800  Biso   1.000  H
  H33      1.0000 0.08900  0.19300  0.20900  Biso   1.000  H
  H34      1.0000 0.58900  0.69300  0.20900  Biso   1.000  H
  H35      1.0000 0.91100  0.19300  0.29100  Biso   1.000  H
  H36      1.0000 0.41100  0.69300  0.29100  Biso   1.000  H
  H37      1.0000 0.91100  0.80700  0.79100  Biso   1.000  H
  H38      1.0000 0.41100  0.30700  0.79100  Biso   1.000  H
  H39      1.0000 0.08900  0.80700  0.70900  Biso   1.000  H
  H40      1.0000 0.58900  0.30700  0.70900  Biso   1.000  H
  C97      1.0000 0.14220  0.32120  0.16920  Biso   1.000  C
  C98      1.0000 0.64220  0.82120  0.16920  Biso   1.000  C
  C99      1.0000 0.85780  0.32120  0.33080  Biso   1.000  C
  C100     1.0000 0.35780  0.82120  0.33080  Biso   1.000  C
  C101     1.0000 0.85780  0.67880  0.83080  Biso   1.000  C
  C102     1.0000 0.35780  0.17880  0.83080  Biso   1.000  C
  C103     1.0000 0.14220  0.67880  0.66920  Biso   1.000  C
  C104     1.0000 0.64220  0.17880  0.66920  Biso   1.000  C
  H41      1.0000 0.16780  0.32300  0.17100  Biso   1.000  H
  H42      1.0000 0.66780  0.82300  0.17100  Biso   1.000  H
  H43      1.0000 0.83220  0.32300  0.32900  Biso   1.000  H
  H44      1.0000 0.33220  0.82300  0.32900  Biso   1.000  H
  H45      1.0000 0.83220  0.67700  0.82900  Biso   1.000  H
  H46      1.0000 0.33220  0.17700  0.82900  Biso   1.000  H
  H47      1.0000 0.16780  0.67700  0.67100  Biso   1.000  H
  H48      1.0000 0.66780  0.17700  0.67100  Biso   1.000  H
  H49      1.0000 0.14690  0.36200  0.20070  Biso   1.000  H
  H50      1.0000 0.64690  0.86200  0.20070  Biso   1.000  H
  H51      1.0000 0.85310  0.36200  0.29930  Biso   1.000  H
  H52      1.0000 0.35310  0.86200  0.29930  Biso   1.000  H
  H53      1.0000 0.85310  0.63800  0.79930  Biso   1.000  H
  H54      1.0000 0.35310  0.13800  0.79930  Biso   1.000  H
  H55      1.0000 0.14690  0.63800  0.70070  Biso   1.000  H
  H56      1.0000 0.64690  0.13800  0.70070  Biso   1.000  H
  H57      1.0000 0.88200  0.90000  0.11800  Biso   1.000  H
  H58      1.0000 0.38200  0.40000  0.11800  Biso   1.000  H
  H59      1.0000 0.11800  0.90000  0.38200  Biso   1.000  H
  H60      1.0000 0.61800  0.40000  0.38200  Biso   1.000  H
  H61      1.0000 0.11800  0.10000  0.88200  Biso   1.000  H
  H62      1.0000 0.61800  0.60000  0.88200  Biso   1.000  H
  H63      1.0000 0.88200  0.10000  0.61800  Biso   1.000  H
  H64      1.0000 0.38200  0.60000  0.61800  Biso   1.000  H
  C105     1.0000 0.17410  0.07380  0.21880  Biso   1.000  C
  C106     1.0000 0.67410  0.57380  0.21880  Biso   1.000  C
  C107     1.0000 0.82590  0.07380  0.28120  Biso   1.000  C
  C108     1.0000 0.32590  0.57380  0.28120  Biso   1.000  C
  C109     1.0000 0.82590  0.92620  0.78120  Biso   1.000  C
  C110     1.0000 0.32590  0.42620  0.78120  Biso   1.000  C
  C111     1.0000 0.17410  0.92620  0.71880  Biso   1.000  C
  C112     1.0000 0.67410  0.42620  0.71880  Biso   1.000  C
  C113     1.0000 0.21610  0.14720  0.28030  Biso   1.000  C
  C114     1.0000 0.71610  0.64720  0.28030  Biso   1.000  C
  C115     1.0000 0.78390  0.14720  0.21970  Biso   1.000  C
  C116     1.0000 0.28390  0.64720  0.21970  Biso   1.000  C
  C117     1.0000 0.78390  0.85280  0.71970  Biso   1.000  C
  C118     1.0000 0.28390  0.35280  0.71970  Biso   1.000  C
  C119     1.0000 0.21610  0.85280  0.78030  Biso   1.000  C
  C120     1.0000 0.71610  0.35280  0.78030  Biso   1.000  C
  H65      1.0000 0.22970  0.22900  0.27200  Biso   1.000  H
  H66      1.0000 0.72970  0.72900  0.27200  Biso   1.000  H
  H67      1.0000 0.77030  0.22900  0.22800  Biso   1.000  H
  H68      1.0000 0.27030  0.72900  0.22800  Biso   1.000  H
  H69      1.0000 0.77030  0.77100  0.72800  Biso   1.000  H
  H70      1.0000 0.27030  0.27100  0.72800  Biso   1.000  H
  H71      1.0000 0.22970  0.77100  0.77200  Biso   1.000  H
  H72      1.0000 0.72970  0.27100  0.77200  Biso   1.000  H
  H73      1.0000 0.23900  0.10000  0.30000  Biso   1.000  H
  H74      1.0000 0.73900  0.60000  0.30000  Biso   1.000  H
  H75      1.0000 0.76100  0.10000  0.20000  Biso   1.000  H
  H76      1.0000 0.26100  0.60000  0.20000  Biso   1.000  H
  H77      1.0000 0.76100  0.90000  0.70000  Biso   1.000  H
  H78      1.0000 0.26100  0.40000  0.70000  Biso   1.000  H
  H79      1.0000 0.23900  0.90000  0.80000  Biso   1.000  H
  H80      1.0000 0.73900  0.40000  0.80000  Biso   1.000  H
  H81      1.0000 0.02000  0.44000  0.28000  Biso   1.000  H
  H82      1.0000 0.52000  0.94000  0.28000  Biso   1.000  H
  H83      1.0000 0.98000  0.44000  0.22000  Biso   1.000  H
  H84      1.0000 0.48000  0.94000  0.22000  Biso   1.000  H
  H85      1.0000 0.98000  0.56000  0.72000  Biso   1.000  H
  H86      1.0000 0.48000  0.06000  0.72000  Biso   1.000  H
  H87      1.0000 0.02000  0.56000  0.78000  Biso   1.000  H
  H88      1.0000 0.52000  0.06000  0.78000  Biso   1.000  H
  C121     1.0000 0.15660  0.94090  0.23520  Biso   1.000  C
  C122     1.0000 0.65660  0.44090  0.23520  Biso   1.000  C
  C123     1.0000 0.84340  0.94090  0.26480  Biso   1.000  C
  C124     1.0000 0.34340  0.44090  0.26480  Biso   1.000  C
  C125     1.0000 0.84340  0.05910  0.76480  Biso   1.000  C
  C126     1.0000 0.34340  0.55910  0.76480  Biso   1.000  C
  C127     1.0000 0.15660  0.05910  0.73520  Biso   1.000  C
  C128     1.0000 0.65660  0.55910  0.73520  Biso   1.000  C
  H89      1.0000 0.13400  0.88800  0.19900  Biso   1.000  H
  H90      1.0000 0.63400  0.38800  0.19900  Biso   1.000  H
  H91      1.0000 0.86600  0.88800  0.30100  Biso   1.000  H
  H92      1.0000 0.36600  0.38800  0.30100  Biso   1.000  H
  H93      1.0000 0.86600  0.11200  0.80100  Biso   1.000  H
  H94      1.0000 0.36600  0.61200  0.80100  Biso   1.000  H
  H95      1.0000 0.13400  0.11200  0.69900  Biso   1.000  H
  H96      1.0000 0.63400  0.61200  0.69900  Biso   1.000  H
  H97      1.0000 0.90700  0.56100  0.17700  Biso   1.000  H
  H98      1.0000 0.40700  0.06100  0.17700  Biso   1.000  H
  H99      1.0000 0.09300  0.56100  0.32300  Biso   1.000  H
  H100     1.0000 0.59300  0.06100  0.32300  Biso   1.000  H
  H101     1.0000 0.09300  0.43900  0.82300  Biso   1.000  H
  H102     1.0000 0.59300  0.93900  0.82300  Biso   1.000  H
  H103     1.0000 0.90700  0.43900  0.67700  Biso   1.000  H
  H104     1.0000 0.40700  0.93900  0.67700  Biso   1.000  H
  H105     1.0000 0.18160  0.89200  0.25000  Biso   1.000  H
  H106     1.0000 0.68160  0.39200  0.25000  Biso   1.000  H
  H107     1.0000 0.81840  0.89200  0.25000  Biso   1.000  H
  H108     1.0000 0.31840  0.39200  0.25000  Biso   1.000  H
  H109     1.0000 0.81840  0.10800  0.75000  Biso   1.000  H
  H110     1.0000 0.31840  0.60800  0.75000  Biso   1.000  H
  H111     1.0000 0.18160  0.10800  0.75000  Biso   1.000  H
  H112     1.0000 0.68160  0.60800  0.75000  Biso   1.000  H
  N9       1.0000 0.19498  0.03330  0.17939  Biso   1.000  N
  N10      1.0000 0.69498  0.53330  0.17939  Biso   1.000  N
  N11      1.0000 0.80502  0.03330  0.32061  Biso   1.000  N
  N12      1.0000 0.30502  0.53330  0.32061  Biso   1.000  N
  N13      1.0000 0.80502  0.96670  0.82061  Biso   1.000  N
  N14      1.0000 0.30502  0.46670  0.82061  Biso   1.000  N
  N15      1.0000 0.19498  0.96670  0.67939  Biso   1.000  N
  N16      1.0000 0.69498  0.46670  0.67939  Biso   1.000  N
  O41      1.0000 0.23984  0.98010  0.20269  Biso   1.000  O
  O42      1.0000 0.73984  0.48010  0.20269  Biso   1.000  O
  O43      1.0000 0.76016  0.98010  0.29731  Biso   1.000  O
  O44      1.0000 0.26016  0.48010  0.29731  Biso   1.000  O
  O45      1.0000 0.76016  0.01990  0.79731  Biso   1.000  O
  O46      1.0000 0.26016  0.51990  0.79731  Biso   1.000  O
  O47      1.0000 0.23984  0.01990  0.70269  Biso   1.000  O
  O48      1.0000 0.73984  0.51990  0.70269  Biso   1.000  O
  C129     1.0000 0.15670  0.04220  0.11650  Biso   1.000  C
  C130     1.0000 0.65670  0.54220  0.11650  Biso   1.000  C
  C131     1.0000 0.84330  0.04220  0.38350  Biso   1.000  C
  C132     1.0000 0.34330  0.54220  0.38350  Biso   1.000  C
  C133     1.0000 0.84330  0.95780  0.88350  Biso   1.000  C
  C134     1.0000 0.34330  0.45780  0.88350  Biso   1.000  C
  C135     1.0000 0.15670  0.95780  0.61650  Biso   1.000  C
  C136     1.0000 0.65670  0.45780  0.61650  Biso   1.000  C
  C137     1.0000 0.16068  0.99220  0.06530  Biso   1.000  C
  C138     1.0000 0.66068  0.49220  0.06530  Biso   1.000  C
  C139     1.0000 0.83932  0.99220  0.43470  Biso   1.000  C
  C140     1.0000 0.33932  0.49220  0.43470  Biso   1.000  C
  C141     1.0000 0.83932  0.00780  0.93470  Biso   1.000  C
  C142     1.0000 0.33932  0.50780  0.93470  Biso   1.000  C
  C143     1.0000 0.16068  0.00780  0.56530  Biso   1.000  C
  C144     1.0000 0.66068  0.50780  0.56530  Biso   1.000  C
  C145     1.0000 0.20060  0.91110  0.06920  Biso   1.000  C
  C146     1.0000 0.70060  0.41110  0.06920  Biso   1.000  C
  C147     1.0000 0.79940  0.91110  0.43080  Biso   1.000  C
  C148     1.0000 0.29940  0.41110  0.43080  Biso   1.000  C
  C149     1.0000 0.79940  0.08890  0.93080  Biso   1.000  C
  C150     1.0000 0.29940  0.58890  0.93080  Biso   1.000  C
  C151     1.0000 0.20060  0.08890  0.56920  Biso   1.000  C
  C152     1.0000 0.70060  0.58890  0.56920  Biso   1.000  C
  H113     1.0000 0.22790  0.87900  0.10170  Biso   1.000  H
  H114     1.0000 0.72790  0.37900  0.10170  Biso   1.000  H
  H115     1.0000 0.77210  0.87900  0.39830  Biso   1.000  H
  H116     1.0000 0.27210  0.37900  0.39830  Biso   1.000  H
  H117     1.0000 0.77210  0.12100  0.89830  Biso   1.000  H
  H118     1.0000 0.27210  0.62100  0.89830  Biso   1.000  H
  H119     1.0000 0.22790  0.12100  0.60170  Biso   1.000  H
  H120     1.0000 0.72790  0.62100  0.60170  Biso   1.000  H
  N17      1.0000 0.19235  0.88710  0.01314  Biso   1.000  N
  N18      1.0000 0.69235  0.38710  0.01314  Biso   1.000  N
  N19      1.0000 0.80765  0.88710  0.48686  Biso   1.000  N
  N20      1.0000 0.30765  0.38710  0.48686  Biso   1.000  N
  N21      1.0000 0.80765  0.11290  0.98686  Biso   1.000  N
  N22      1.0000 0.30765  0.61290  0.98686  Biso   1.000  N
  N23      1.0000 0.19235  0.11290  0.51314  Biso   1.000  N
  N24      1.0000 0.69235  0.61290  0.51314  Biso   1.000  N
  N25      1.0000 0.14645  0.95520  0.97163  Biso   1.000  N
  N26      1.0000 0.64645  0.45520  0.97163  Biso   1.000  N
  N27      1.0000 0.85355  0.95520  0.52837  Biso   1.000  N
  N28      1.0000 0.35355  0.45520  0.52837  Biso   1.000  N
  N29      1.0000 0.85355  0.04480  0.02837  Biso   1.000  N
  N30      1.0000 0.35355  0.54480  0.02837  Biso   1.000  N
  N31      1.0000 0.14645  0.04480  0.47163  Biso   1.000  N
  N32      1.0000 0.64645  0.54480  0.47163  Biso   1.000  N
  C153     1.0000 0.12380  0.95580  0.90310  Biso   1.000  C
  C154     1.0000 0.62380  0.45580  0.90310  Biso   1.000  C
  C155     1.0000 0.87620  0.95580  0.59690  Biso   1.000  C
  C156     1.0000 0.37620  0.45580  0.59690  Biso   1.000  C
  C157     1.0000 0.87620  0.04420  0.09690  Biso   1.000  C
  C158     1.0000 0.37620  0.54420  0.09690  Biso   1.000  C
  C159     1.0000 0.12380  0.04420  0.40310  Biso   1.000  C
  C160     1.0000 0.62380  0.54420  0.40310  Biso   1.000  C
  H121     1.0000 0.09100  0.04400  0.86300  Biso   1.000  H
  H122     1.0000 0.59100  0.54400  0.86300  Biso   1.000  H
  H123     1.0000 0.90900  0.04400  0.63700  Biso   1.000  H
  H124     1.0000 0.40900  0.54400  0.63700  Biso   1.000  H
  H125     1.0000 0.90900  0.95600  0.13700  Biso   1.000  H
  H126     1.0000 0.40900  0.45600  0.13700  Biso   1.000  H
  H127     1.0000 0.09100  0.95600  0.36300  Biso   1.000  H
  H128     1.0000 0.59100  0.45600  0.36300  Biso   1.000  H
  H129     1.0000 0.14700  0.91900  0.89700  Biso   1.000  H
  H130     1.0000 0.64700  0.41900  0.89700  Biso   1.000  H
  H131     1.0000 0.85300  0.91900  0.60300  Biso   1.000  H
  H132     1.0000 0.35300  0.41900  0.60300  Biso   1.000  H
  H133     1.0000 0.85300  0.08100  0.10300  Biso   1.000  H
  H134     1.0000 0.35300  0.58100  0.10300  Biso   1.000  H
  H135     1.0000 0.14700  0.08100  0.39700  Biso   1.000  H
  H136     1.0000 0.64700  0.58100  0.39700  Biso   1.000  H
  C161     1.0000 0.07300  0.90200  0.86440  Biso   1.000  C
  C162     1.0000 0.57300  0.40200  0.86440  Biso   1.000  C
  C163     1.0000 0.92700  0.90200  0.63560  Biso   1.000  C
  C164     1.0000 0.42700  0.40200  0.63560  Biso   1.000  C
  C165     1.0000 0.92700  0.09800  0.13560  Biso   1.000  C
  C166     1.0000 0.42700  0.59800  0.13560  Biso   1.000  C
  C167     1.0000 0.07300  0.09800  0.36440  Biso   1.000  C
  C168     1.0000 0.57300  0.59800  0.36440  Biso   1.000  C
  H137     1.0000 0.06190  0.90580  0.82050  Biso   1.000  H
  H138     1.0000 0.56190  0.40580  0.82050  Biso   1.000  H
  H139     1.0000 0.93810  0.90580  0.67950  Biso   1.000  H
  H140     1.0000 0.43810  0.40580  0.67950  Biso   1.000  H
  H141     1.0000 0.93810  0.09420  0.17950  Biso   1.000  H
  H142     1.0000 0.43810  0.59420  0.17950  Biso   1.000  H
  H143     1.0000 0.06190  0.09420  0.32050  Biso   1.000  H
  H144     1.0000 0.56190  0.59420  0.32050  Biso   1.000  H
  H145     1.0000 0.04930  0.95660  0.86970  Biso   1.000  H
  H146     1.0000 0.54930  0.45660  0.86970  Biso   1.000  H
  H147     1.0000 0.95070  0.95660  0.63030  Biso   1.000  H
  H148     1.0000 0.45070  0.45660  0.63030  Biso   1.000  H
  H149     1.0000 0.95070  0.04340  0.13030  Biso   1.000  H
  H150     1.0000 0.45070  0.54340  0.13030  Biso   1.000  H
  H151     1.0000 0.04930  0.04340  0.36970  Biso   1.000  H
  H152     1.0000 0.54930  0.54340  0.36970  Biso   1.000  H
  H153     1.0000 0.07270  0.80670  0.87610  Biso   1.000  H
  H154     1.0000 0.57270  0.30670  0.87610  Biso   1.000  H
  H155     1.0000 0.92730  0.80670  0.62390  Biso   1.000  H
  H156     1.0000 0.42730  0.30670  0.62390  Biso   1.000  H
  H157     1.0000 0.92730  0.19330  0.12390  Biso   1.000  H
  H158     1.0000 0.42730  0.69330  0.12390  Biso   1.000  H
  H159     1.0000 0.07270  0.19330  0.37610  Biso   1.000  H
  H160     1.0000 0.57270  0.69330  0.37610  Biso   1.000  H
  C169     1.0000 0.12560  0.01990  0.00030  Biso   1.000  C
  C170     1.0000 0.62560  0.51990  0.00030  Biso   1.000  C
  C171     1.0000 0.87440  0.01990  0.49970  Biso   1.000  C
  C172     1.0000 0.37440  0.51990  0.49970  Biso   1.000  C
  C173     1.0000 0.87440  0.98010  0.99970  Biso   1.000  C
  C174     1.0000 0.37440  0.48010  0.99970  Biso   1.000  C
  C175     1.0000 0.12560  0.98010  0.50030  Biso   1.000  C
  C176     1.0000 0.62560  0.48010  0.50030  Biso   1.000  C
  H161     1.0000 0.13200  0.02600  0.87800  Biso   1.000  H
  H162     1.0000 0.63200  0.52600  0.87800  Biso   1.000  H
  H163     1.0000 0.86800  0.02600  0.62200  Biso   1.000  H
  H164     1.0000 0.36800  0.52600  0.62200  Biso   1.000  H
  H165     1.0000 0.86800  0.97400  0.12200  Biso   1.000  H
  H166     1.0000 0.36800  0.47400  0.12200  Biso   1.000  H
  H167     1.0000 0.13200  0.97400  0.37800  Biso   1.000  H
  H168     1.0000 0.63200  0.47400  0.37800  Biso   1.000  H
