data_image0
_cell_length_a       30.4
_cell_length_b       9.5813
_cell_length_c       25.215
_cell_angle_alpha    90
_cell_angle_beta     124.194
_cell_angle_gamma    90

_symmetry_space_group_name_H-M    "P 1"
_symmetry_int_tables_number       1

loop_
  _symmetry_equiv_pos_as_xyz
  'x, y, z'

loop_
  _atom_site_label
  _atom_site_occupancy
  _atom_site_fract_x
  _atom_site_fract_y
  _atom_site_fract_z
  _atom_site_thermal_displace_type
  _atom_site_B_iso_or_equiv
  _atom_site_type_symbol
  Mn1      1.0000 0.00000  0.00000  0.00000  Biso   1.000  Mn
  Mn2      1.0000 0.50000  0.50000  0.00000  Biso   1.000  Mn
  Mn3      1.0000 0.00000  0.00000  0.50000  Biso   1.000  Mn
  Mn4      1.0000 0.50000  0.50000  0.50000  Biso   1.000  Mn
  O1       1.0000 0.99303  0.10790  0.92247  Biso   1.000  O
  O2       1.0000 0.49303  0.60790  0.92247  Biso   1.000  O
  O3       1.0000 0.00697  0.10790  0.57753  Biso   1.000  O
  O4       1.0000 0.50697  0.60790  0.57753  Biso   1.000  O
  O5       1.0000 0.00697  0.89210  0.07753  Biso   1.000  O
  O6       1.0000 0.50697  0.39210  0.07753  Biso   1.000  O
  O7       1.0000 0.99303  0.89210  0.42247  Biso   1.000  O
  O8       1.0000 0.49303  0.39210  0.42247  Biso   1.000  O
  C1       1.0000 0.98680  0.28400  0.85620  Biso   1.000  C
  C2       1.0000 0.48680  0.78400  0.85620  Biso   1.000  C
  C3       1.0000 0.01320  0.28400  0.64380  Biso   1.000  C
  C4       1.0000 0.51320  0.78400  0.64380  Biso   1.000  C
  C5       1.0000 0.01320  0.71600  0.14380  Biso   1.000  C
  C6       1.0000 0.51320  0.21600  0.14380  Biso   1.000  C
  C7       1.0000 0.98680  0.71600  0.35620  Biso   1.000  C
  C8       1.0000 0.48680  0.21600  0.35620  Biso   1.000  C
  F1       1.0000 0.96000  0.40400  0.82720  Biso   1.000  F
  F2       1.0000 0.46000  0.90400  0.82720  Biso   1.000  F
  F3       1.0000 0.04000  0.40400  0.67280  Biso   1.000  F
  F4       1.0000 0.54000  0.90400  0.67280  Biso   1.000  F
  F5       1.0000 0.04000  0.59600  0.17280  Biso   1.000  F
  F6       1.0000 0.54000  0.09600  0.17280  Biso   1.000  F
  F7       1.0000 0.96000  0.59600  0.32720  Biso   1.000  F
  F8       1.0000 0.46000  0.09600  0.32720  Biso   1.000  F
  F9       1.0000 0.96550  0.22200  0.80800  Biso   1.000  F
  F10      1.0000 0.46550  0.72200  0.80800  Biso   1.000  F
  F11      1.0000 0.03450  0.22200  0.69200  Biso   1.000  F
  F12      1.0000 0.53450  0.72200  0.69200  Biso   1.000  F
  F13      1.0000 0.03450  0.77800  0.19200  Biso   1.000  F
  F14      1.0000 0.53450  0.27800  0.19200  Biso   1.000  F
  F15      1.0000 0.96550  0.77800  0.30800  Biso   1.000  F
  F16      1.0000 0.46550  0.27800  0.30800  Biso   1.000  F
  F17      1.0000 0.03450  0.31000  0.88110  Biso   1.000  F
  F18      1.0000 0.53450  0.81000  0.88110  Biso   1.000  F
  F19      1.0000 0.96550  0.31000  0.61890  Biso   1.000  F
  F20      1.0000 0.46550  0.81000  0.61890  Biso   1.000  F
  F21      1.0000 0.96550  0.69000  0.11890  Biso   1.000  F
  F22      1.0000 0.46550  0.19000  0.11890  Biso   1.000  F
  F23      1.0000 0.03450  0.69000  0.38110  Biso   1.000  F
  F24      1.0000 0.53450  0.19000  0.38110  Biso   1.000  F
  F25      1.0000 0.96630  0.18800  0.80550  Biso   1.000  F
  F26      1.0000 0.46630  0.68800  0.80550  Biso   1.000  F
  F27      1.0000 0.03370  0.18800  0.69450  Biso   1.000  F
  F28      1.0000 0.53370  0.68800  0.69450  Biso   1.000  F
  F29      1.0000 0.03370  0.81200  0.19450  Biso   1.000  F
  F30      1.0000 0.53370  0.31200  0.19450  Biso   1.000  F
  F31      1.0000 0.96630  0.81200  0.30550  Biso   1.000  F
  F32      1.0000 0.46630  0.31200  0.30550  Biso   1.000  F
  F33      1.0000 0.04010  0.27700  0.87930  Biso   1.000  F
  F34      1.0000 0.54010  0.77700  0.87930  Biso   1.000  F
  F35      1.0000 0.95990  0.27700  0.62070  Biso   1.000  F
  F36      1.0000 0.45990  0.77700  0.62070  Biso   1.000  F
  F37      1.0000 0.95990  0.72300  0.12070  Biso   1.000  F
  F38      1.0000 0.45990  0.22300  0.12070  Biso   1.000  F
  F39      1.0000 0.04010  0.72300  0.37930  Biso   1.000  F
  F40      1.0000 0.54010  0.22300  0.37930  Biso   1.000  F
  F41      1.0000 0.97710  0.41700  0.84670  Biso   1.000  F
  F42      1.0000 0.47710  0.91700  0.84670  Biso   1.000  F
  F43      1.0000 0.02290  0.41700  0.65330  Biso   1.000  F
  F44      1.0000 0.52290  0.91700  0.65330  Biso   1.000  F
  F45      1.0000 0.02290  0.58300  0.15330  Biso   1.000  F
  F46      1.0000 0.52290  0.08300  0.15330  Biso   1.000  F
  F47      1.0000 0.97710  0.58300  0.34670  Biso   1.000  F
  F48      1.0000 0.47710  0.08300  0.34670  Biso   1.000  F
  C9       1.0000 0.97775  0.23030  0.90600  Biso   1.000  C
  C10      1.0000 0.47775  0.73030  0.90600  Biso   1.000  C
  C11      1.0000 0.02225  0.23030  0.59400  Biso   1.000  C
  C12      1.0000 0.52225  0.73030  0.59400  Biso   1.000  C
  C13      1.0000 0.02225  0.76970  0.09400  Biso   1.000  C
  C14      1.0000 0.52225  0.26970  0.09400  Biso   1.000  C
  C15      1.0000 0.97775  0.76970  0.40600  Biso   1.000  C
  C16      1.0000 0.47775  0.26970  0.40600  Biso   1.000  C
  C17      1.0000 0.95430  0.31550  0.92740  Biso   1.000  C
  C18      1.0000 0.45430  0.81550  0.92740  Biso   1.000  C
  C19      1.0000 0.04570  0.31550  0.57260  Biso   1.000  C
  C20      1.0000 0.54570  0.81550  0.57260  Biso   1.000  C
  C21      1.0000 0.04570  0.68450  0.07260  Biso   1.000  C
  C22      1.0000 0.54570  0.18450  0.07260  Biso   1.000  C
  C23      1.0000 0.95430  0.68450  0.42740  Biso   1.000  C
  C24      1.0000 0.45430  0.18450  0.42740  Biso   1.000  C
  H1       1.0000 0.94660  0.39400  0.91000  Biso   1.000  H
  H2       1.0000 0.44660  0.89400  0.91000  Biso   1.000  H
  H3       1.0000 0.05340  0.39400  0.59000  Biso   1.000  H
  H4       1.0000 0.55340  0.89400  0.59000  Biso   1.000  H
  H5       1.0000 0.05340  0.60600  0.09000  Biso   1.000  H
  H6       1.0000 0.55340  0.10600  0.09000  Biso   1.000  H
  H7       1.0000 0.94660  0.60600  0.41000  Biso   1.000  H
  H8       1.0000 0.44660  0.10600  0.41000  Biso   1.000  H
  C25      1.0000 0.94639  0.27730  0.97400  Biso   1.000  C
  C26      1.0000 0.44639  0.77730  0.97400  Biso   1.000  C
  C27      1.0000 0.05361  0.27730  0.52600  Biso   1.000  C
  C28      1.0000 0.55361  0.77730  0.52600  Biso   1.000  C
  C29      1.0000 0.05361  0.72270  0.02600  Biso   1.000  C
  C30      1.0000 0.55361  0.22270  0.02600  Biso   1.000  C
  C31      1.0000 0.94639  0.72270  0.47400  Biso   1.000  C
  C32      1.0000 0.44639  0.22270  0.47400  Biso   1.000  C
  C33      1.0000 0.91930  0.38020  0.99300  Biso   1.000  C
  C34      1.0000 0.41930  0.88020  0.99300  Biso   1.000  C
  C35      1.0000 0.08070  0.38020  0.50700  Biso   1.000  C
  C36      1.0000 0.58070  0.88020  0.50700  Biso   1.000  C
  C37      1.0000 0.08070  0.61980  0.00700  Biso   1.000  C
  C38      1.0000 0.58070  0.11980  0.00700  Biso   1.000  C
  C39      1.0000 0.91930  0.61980  0.49300  Biso   1.000  C
  C40      1.0000 0.41930  0.11980  0.49300  Biso   1.000  C
  F49      1.0000 0.88210  0.34230  0.99230  Biso   1.000  F
  F50      1.0000 0.38210  0.84230  0.99230  Biso   1.000  F
  F51      1.0000 0.11790  0.34230  0.50770  Biso   1.000  F
  F52      1.0000 0.61790  0.84230  0.50770  Biso   1.000  F
  F53      1.0000 0.11790  0.65770  0.00770  Biso   1.000  F
  F54      1.0000 0.61790  0.15770  0.00770  Biso   1.000  F
  F55      1.0000 0.88210  0.65770  0.49230  Biso   1.000  F
  F56      1.0000 0.38210  0.15770  0.49230  Biso   1.000  F
  F57      1.0000 0.91520  0.34960  0.03390  Biso   1.000  F
  F58      1.0000 0.41520  0.84960  0.03390  Biso   1.000  F
  F59      1.0000 0.08480  0.34960  0.46610  Biso   1.000  F
  F60      1.0000 0.58480  0.84960  0.46610  Biso   1.000  F
  F61      1.0000 0.08480  0.65040  0.96610  Biso   1.000  F
  F62      1.0000 0.58480  0.15040  0.96610  Biso   1.000  F
  F63      1.0000 0.91520  0.65040  0.53390  Biso   1.000  F
  F64      1.0000 0.41520  0.15040  0.53390  Biso   1.000  F
  F65      1.0000 0.92000  0.51140  0.97940  Biso   1.000  F
  F66      1.0000 0.42000  0.01140  0.97940  Biso   1.000  F
  F67      1.0000 0.08000  0.51140  0.52060  Biso   1.000  F
  F68      1.0000 0.58000  0.01140  0.52060  Biso   1.000  F
  F69      1.0000 0.08000  0.48860  0.02060  Biso   1.000  F
  F70      1.0000 0.58000  0.98860  0.02060  Biso   1.000  F
  F71      1.0000 0.92000  0.48860  0.47940  Biso   1.000  F
  F72      1.0000 0.42000  0.98860  0.47940  Biso   1.000  F
  F73      1.0000 0.86090  0.38070  0.93280  Biso   1.000  F
  F74      1.0000 0.36090  0.88070  0.93280  Biso   1.000  F
  F75      1.0000 0.13910  0.38070  0.56720  Biso   1.000  F
  F76      1.0000 0.63910  0.88070  0.56720  Biso   1.000  F
  F77      1.0000 0.13910  0.61930  0.06720  Biso   1.000  F
  F78      1.0000 0.63910  0.11930  0.06720  Biso   1.000  F
  F79      1.0000 0.86090  0.61930  0.43280  Biso   1.000  F
  F80      1.0000 0.36090  0.11930  0.43280  Biso   1.000  F
  F81      1.0000 0.93270  0.50440  0.99140  Biso   1.000  F
  F82      1.0000 0.43270  0.00440  0.99140  Biso   1.000  F
  F83      1.0000 0.06730  0.50440  0.50860  Biso   1.000  F
  F84      1.0000 0.56730  0.00440  0.50860  Biso   1.000  F
  F85      1.0000 0.06730  0.49560  0.00860  Biso   1.000  F
  F86      1.0000 0.56730  0.99560  0.00860  Biso   1.000  F
  F87      1.0000 0.93270  0.49560  0.49140  Biso   1.000  F
  F88      1.0000 0.43270  0.99560  0.49140  Biso   1.000  F
  F89      1.0000 0.95880  0.39570  0.06720  Biso   1.000  F
  F90      1.0000 0.45880  0.89570  0.06720  Biso   1.000  F
  F91      1.0000 0.04120  0.39570  0.43280  Biso   1.000  F
  F92      1.0000 0.54120  0.89570  0.43280  Biso   1.000  F
  F93      1.0000 0.04120  0.60430  0.93280  Biso   1.000  F
  F94      1.0000 0.54120  0.10430  0.93280  Biso   1.000  F
  F95      1.0000 0.95880  0.60430  0.56720  Biso   1.000  F
  F96      1.0000 0.45880  0.10430  0.56720  Biso   1.000  F
  O9       1.0000 0.95788  0.16520  0.00364  Biso   1.000  O
  O10      1.0000 0.45788  0.66520  0.00364  Biso   1.000  O
  O11      1.0000 0.04212  0.16520  0.49636  Biso   1.000  O
  O12      1.0000 0.54212  0.66520  0.49636  Biso   1.000  O
  O13      1.0000 0.04212  0.83480  0.99636  Biso   1.000  O
  O14      1.0000 0.54212  0.33480  0.99636  Biso   1.000  O
  O15      1.0000 0.95788  0.83480  0.50364  Biso   1.000  O
  O16      1.0000 0.45788  0.33480  0.50364  Biso   1.000  O
  Cu1      1.0000 0.25000  0.75000  0.00000  Biso   1.000  Cu
  Cu2      1.0000 0.75000  0.25000  0.00000  Biso   1.000  Cu
  Cu3      1.0000 0.75000  0.75000  0.50000  Biso   1.000  Cu
  Cu4      1.0000 0.25000  0.25000  0.50000  Biso   1.000  Cu
  O17      1.0000 0.25582  0.91250  0.95523  Biso   1.000  O
  O18      1.0000 0.75582  0.41250  0.95523  Biso   1.000  O
  O19      1.0000 0.74418  0.91250  0.54477  Biso   1.000  O
  O20      1.0000 0.24418  0.41250  0.54477  Biso   1.000  O
  O21      1.0000 0.74418  0.08750  0.04477  Biso   1.000  O
  O22      1.0000 0.24418  0.58750  0.04477  Biso   1.000  O
  O23      1.0000 0.25582  0.08750  0.45523  Biso   1.000  O
  O24      1.0000 0.75582  0.58750  0.45523  Biso   1.000  O
  C41      1.0000 0.27230  0.14070  0.93810  Biso   1.000  C
  C42      1.0000 0.77230  0.64070  0.93810  Biso   1.000  C
  C43      1.0000 0.72770  0.14070  0.56190  Biso   1.000  C
  C44      1.0000 0.22770  0.64070  0.56190  Biso   1.000  C
  C45      1.0000 0.72770  0.85930  0.06190  Biso   1.000  C
  C46      1.0000 0.22770  0.35930  0.06190  Biso   1.000  C
  C47      1.0000 0.27230  0.85930  0.43810  Biso   1.000  C
  C48      1.0000 0.77230  0.35930  0.43810  Biso   1.000  C
  F97      1.0000 0.28780  0.10590  0.90190  Biso   1.000  F
  F98      1.0000 0.78780  0.60590  0.90190  Biso   1.000  F
  F99      1.0000 0.71220  0.10590  0.59810  Biso   1.000  F
  F100     1.0000 0.21220  0.60590  0.59810  Biso   1.000  F
  F101     1.0000 0.71220  0.89410  0.09810  Biso   1.000  F
  F102     1.0000 0.21220  0.39410  0.09810  Biso   1.000  F
  F103     1.0000 0.28780  0.89410  0.40190  Biso   1.000  F
  F104     1.0000 0.78780  0.39410  0.40190  Biso   1.000  F
  F105     1.0000 0.21880  0.15980  0.89620  Biso   1.000  F
  F106     1.0000 0.71880  0.65980  0.89620  Biso   1.000  F
  F107     1.0000 0.78120  0.15980  0.60380  Biso   1.000  F
  F108     1.0000 0.28120  0.65980  0.60380  Biso   1.000  F
  F109     1.0000 0.78120  0.84020  0.10380  Biso   1.000  F
  F110     1.0000 0.28120  0.34020  0.10380  Biso   1.000  F
  F111     1.0000 0.21880  0.84020  0.39620  Biso   1.000  F
  F112     1.0000 0.71880  0.34020  0.39620  Biso   1.000  F
  F113     1.0000 0.29370  0.25050  0.96700  Biso   1.000  F
  F114     1.0000 0.79370  0.75050  0.96700  Biso   1.000  F
  F115     1.0000 0.70630  0.25050  0.53300  Biso   1.000  F
  F116     1.0000 0.20630  0.75050  0.53300  Biso   1.000  F
  F117     1.0000 0.70630  0.74950  0.03300  Biso   1.000  F
  F118     1.0000 0.20630  0.24950  0.03300  Biso   1.000  F
  F119     1.0000 0.29370  0.74950  0.46700  Biso   1.000  F
  F120     1.0000 0.79370  0.24950  0.46700  Biso   1.000  F
  F121     1.0000 0.31750  0.15310  0.93620  Biso   1.000  F
  F122     1.0000 0.81750  0.65310  0.93620  Biso   1.000  F
  F123     1.0000 0.68250  0.15310  0.56380  Biso   1.000  F
  F124     1.0000 0.18250  0.65310  0.56380  Biso   1.000  F
  F125     1.0000 0.68250  0.84690  0.06380  Biso   1.000  F
  F126     1.0000 0.18250  0.34690  0.06380  Biso   1.000  F
  F127     1.0000 0.31750  0.84690  0.43620  Biso   1.000  F
  F128     1.0000 0.81750  0.34690  0.43620  Biso   1.000  F
  F129     1.0000 0.23650  0.12980  0.88690  Biso   1.000  F
  F130     1.0000 0.73650  0.62980  0.88690  Biso   1.000  F
  F131     1.0000 0.76350  0.12980  0.61310  Biso   1.000  F
  F132     1.0000 0.26350  0.62980  0.61310  Biso   1.000  F
  F133     1.0000 0.76350  0.87020  0.11310  Biso   1.000  F
  F134     1.0000 0.26350  0.37020  0.11310  Biso   1.000  F
  F135     1.0000 0.23650  0.87020  0.38690  Biso   1.000  F
  F136     1.0000 0.73650  0.37020  0.38690  Biso   1.000  F
  F137     1.0000 0.27670  0.26410  0.96270  Biso   1.000  F
  F138     1.0000 0.77670  0.76410  0.96270  Biso   1.000  F
  F139     1.0000 0.72330  0.26410  0.53730  Biso   1.000  F
  F140     1.0000 0.22330  0.76410  0.53730  Biso   1.000  F
  F141     1.0000 0.72330  0.73590  0.03730  Biso   1.000  F
  F142     1.0000 0.22330  0.23590  0.03730  Biso   1.000  F
  F143     1.0000 0.27670  0.73590  0.46270  Biso   1.000  F
  F144     1.0000 0.77670  0.23590  0.46270  Biso   1.000  F
  C49      1.0000 0.28281  0.01850  0.98343  Biso   1.000  C
  C50      1.0000 0.78281  0.51850  0.98343  Biso   1.000  C
  C51      1.0000 0.71719  0.01850  0.51657  Biso   1.000  C
  C52      1.0000 0.21719  0.51850  0.51657  Biso   1.000  C
  C53      1.0000 0.71719  0.98150  0.01657  Biso   1.000  C
  C54      1.0000 0.21719  0.48150  0.01657  Biso   1.000  C
  C55      1.0000 0.28281  0.98150  0.48343  Biso   1.000  C
  C56      1.0000 0.78281  0.48150  0.48343  Biso   1.000  C
  C57      1.0000 0.31836  0.03910  0.04810  Biso   1.000  C
  C58      1.0000 0.81836  0.53910  0.04810  Biso   1.000  C
  C59      1.0000 0.68164  0.03910  0.45190  Biso   1.000  C
  C60      1.0000 0.18164  0.53910  0.45190  Biso   1.000  C
  C61      1.0000 0.68164  0.96090  0.95190  Biso   1.000  C
  C62      1.0000 0.18164  0.46090  0.95190  Biso   1.000  C
  C63      1.0000 0.31836  0.96090  0.54810  Biso   1.000  C
  C64      1.0000 0.81836  0.46090  0.54810  Biso   1.000  C
  H9       1.0000 0.33290  0.12200  0.05870  Biso   1.000  H
  H10      1.0000 0.83290  0.62200  0.05870  Biso   1.000  H
  H11      1.0000 0.66710  0.12200  0.44130  Biso   1.000  H
  H12      1.0000 0.16710  0.62200  0.44130  Biso   1.000  H
  H13      1.0000 0.66710  0.87800  0.94130  Biso   1.000  H
  H14      1.0000 0.16710  0.37800  0.94130  Biso   1.000  H
  H15      1.0000 0.33290  0.87800  0.55870  Biso   1.000  H
  H16      1.0000 0.83290  0.37800  0.55870  Biso   1.000  H
  C65      1.0000 0.32871  0.94130  0.09377  Biso   1.000  C
  C66      1.0000 0.82871  0.44130  0.09377  Biso   1.000  C
  C67      1.0000 0.67129  0.94130  0.40623  Biso   1.000  C
  C68      1.0000 0.17129  0.44130  0.40623  Biso   1.000  C
  C69      1.0000 0.67129  0.05870  0.90623  Biso   1.000  C
  C70      1.0000 0.17129  0.55870  0.90623  Biso   1.000  C
  C71      1.0000 0.32871  0.05870  0.59377  Biso   1.000  C
  C72      1.0000 0.82871  0.55870  0.59377  Biso   1.000  C
  C73      1.0000 0.36910  0.97800  0.16420  Biso   1.000  C
  C74      1.0000 0.86910  0.47800  0.16420  Biso   1.000  C
  C75      1.0000 0.63090  0.97800  0.33580  Biso   1.000  C
  C76      1.0000 0.13090  0.47800  0.33580  Biso   1.000  C
  C77      1.0000 0.63090  0.02200  0.83580  Biso   1.000  C
  C78      1.0000 0.13090  0.52200  0.83580  Biso   1.000  C
  C79      1.0000 0.36910  0.02200  0.66420  Biso   1.000  C
  C80      1.0000 0.86910  0.52200  0.66420  Biso   1.000  C
  F145     1.0000 0.40070  0.07500  0.17380  Biso   1.000  F
  F146     1.0000 0.90070  0.57500  0.17380  Biso   1.000  F
  F147     1.0000 0.59930  0.07500  0.32620  Biso   1.000  F
  F148     1.0000 0.09930  0.57500  0.32620  Biso   1.000  F
  F149     1.0000 0.59930  0.92500  0.82620  Biso   1.000  F
  F150     1.0000 0.09930  0.42500  0.82620  Biso   1.000  F
  F151     1.0000 0.40070  0.92500  0.67380  Biso   1.000  F
  F152     1.0000 0.90070  0.42500  0.67380  Biso   1.000  F
  F153     1.0000 0.34170  0.01900  0.18800  Biso   1.000  F
  F154     1.0000 0.84170  0.51900  0.18800  Biso   1.000  F
  F155     1.0000 0.65830  0.01900  0.31200  Biso   1.000  F
  F156     1.0000 0.15830  0.51900  0.31200  Biso   1.000  F
  F157     1.0000 0.65830  0.98100  0.81200  Biso   1.000  F
  F158     1.0000 0.15830  0.48100  0.81200  Biso   1.000  F
  F159     1.0000 0.34170  0.98100  0.68800  Biso   1.000  F
  F160     1.0000 0.84170  0.48100  0.68800  Biso   1.000  F
  F161     1.0000 0.39650  0.87350  0.19730  Biso   1.000  F
  F162     1.0000 0.89650  0.37350  0.19730  Biso   1.000  F
  F163     1.0000 0.60350  0.87350  0.30270  Biso   1.000  F
  F164     1.0000 0.10350  0.37350  0.30270  Biso   1.000  F
  F165     1.0000 0.60350  0.12650  0.80270  Biso   1.000  F
  F166     1.0000 0.10350  0.62650  0.80270  Biso   1.000  F
  F167     1.0000 0.39650  0.12650  0.69730  Biso   1.000  F
  F168     1.0000 0.89650  0.62650  0.69730  Biso   1.000  F
  F169     1.0000 0.41500  0.92600  0.18110  Biso   1.000  F
  F170     1.0000 0.91500  0.42600  0.18110  Biso   1.000  F
  F171     1.0000 0.58500  0.92600  0.31890  Biso   1.000  F
  F172     1.0000 0.08500  0.42600  0.31890  Biso   1.000  F
  F173     1.0000 0.58500  0.07400  0.81890  Biso   1.000  F
  F174     1.0000 0.08500  0.57400  0.81890  Biso   1.000  F
  F175     1.0000 0.41500  0.07400  0.68110  Biso   1.000  F
  F176     1.0000 0.91500  0.57400  0.68110  Biso   1.000  F
  F177     1.0000 0.37840  0.10960  0.17420  Biso   1.000  F
  F178     1.0000 0.87840  0.60960  0.17420  Biso   1.000  F
  F179     1.0000 0.62160  0.10960  0.32580  Biso   1.000  F
  F180     1.0000 0.12160  0.60960  0.32580  Biso   1.000  F
  F181     1.0000 0.62160  0.89040  0.82580  Biso   1.000  F
  F182     1.0000 0.12160  0.39040  0.82580  Biso   1.000  F
  F183     1.0000 0.37840  0.89040  0.67420  Biso   1.000  F
  F184     1.0000 0.87840  0.39040  0.67420  Biso   1.000  F
  F185     1.0000 0.35910  0.93700  0.20160  Biso   1.000  F
  F186     1.0000 0.85910  0.43700  0.20160  Biso   1.000  F
  F187     1.0000 0.64090  0.93700  0.29840  Biso   1.000  F
  F188     1.0000 0.14090  0.43700  0.29840  Biso   1.000  F
  F189     1.0000 0.64090  0.06300  0.79840  Biso   1.000  F
  F190     1.0000 0.14090  0.56300  0.79840  Biso   1.000  F
  F191     1.0000 0.35910  0.06300  0.70160  Biso   1.000  F
  F192     1.0000 0.85910  0.56300  0.70160  Biso   1.000  F
  O25      1.0000 0.30848  0.82320  0.08502  Biso   1.000  O
  O26      1.0000 0.80848  0.32320  0.08502  Biso   1.000  O
  O27      1.0000 0.69152  0.82320  0.41498  Biso   1.000  O
  O28      1.0000 0.19152  0.32320  0.41498  Biso   1.000  O
  O29      1.0000 0.69152  0.17680  0.91498  Biso   1.000  O
  O30      1.0000 0.19152  0.67680  0.91498  Biso   1.000  O
  O31      1.0000 0.30848  0.17680  0.58502  Biso   1.000  O
  O32      1.0000 0.80848  0.67680  0.58502  Biso   1.000  O
  O33      1.0000 0.07075  0.13140  0.05591  Biso   1.000  O
  O34      1.0000 0.57075  0.63140  0.05591  Biso   1.000  O
  O35      1.0000 0.92925  0.13140  0.44409  Biso   1.000  O
  O36      1.0000 0.42925  0.63140  0.44409  Biso   1.000  O
  O37      1.0000 0.92925  0.86860  0.94409  Biso   1.000  O
  O38      1.0000 0.42925  0.36860  0.94409  Biso   1.000  O
  O39      1.0000 0.07075  0.86860  0.55591  Biso   1.000  O
  O40      1.0000 0.57075  0.36860  0.55591  Biso   1.000  O
  N1       1.0000 0.11462  0.10170  0.11049  Biso   1.000  N
  N2       1.0000 0.61462  0.60170  0.11049  Biso   1.000  N
  N3       1.0000 0.88538  0.10170  0.38951  Biso   1.000  N
  N4       1.0000 0.38538  0.60170  0.38951  Biso   1.000  N
  N5       1.0000 0.88538  0.89830  0.88951  Biso   1.000  N
  N6       1.0000 0.38538  0.39830  0.88951  Biso   1.000  N
  N7       1.0000 0.11462  0.89830  0.61049  Biso   1.000  N
  N8       1.0000 0.61462  0.39830  0.61049  Biso   1.000  N
  C81      1.0000 0.12756  0.16290  0.17218  Biso   1.000  C
  C82      1.0000 0.62756  0.66290  0.17218  Biso   1.000  C
  C83      1.0000 0.87244  0.16290  0.32782  Biso   1.000  C
  C84      1.0000 0.37244  0.66290  0.32782  Biso   1.000  C
  C85      1.0000 0.87244  0.83710  0.82782  Biso   1.000  C
  C86      1.0000 0.37244  0.33710  0.82782  Biso   1.000  C
  C87      1.0000 0.12756  0.83710  0.67218  Biso   1.000  C
  C88      1.0000 0.62756  0.33710  0.67218  Biso   1.000  C
  C89      1.0000 0.07870  0.15930  0.17460  Biso   1.000  C
  C90      1.0000 0.57870  0.65930  0.17460  Biso   1.000  C
  C91      1.0000 0.92130  0.15930  0.32540  Biso   1.000  C
  C92      1.0000 0.42130  0.65930  0.32540  Biso   1.000  C
  C93      1.0000 0.92130  0.84070  0.82540  Biso   1.000  C
  C94      1.0000 0.42130  0.34070  0.82540  Biso   1.000  C
  C95      1.0000 0.07870  0.84070  0.67460  Biso   1.000  C
  C96      1.0000 0.57870  0.34070  0.67460  Biso   1.000  C
  H17      1.0000 0.06730  0.08500  0.17300  Biso   1.000  H
  H18      1.0000 0.56730  0.58500  0.17300  Biso   1.000  H
  H19      1.0000 0.93270  0.08500  0.32700  Biso   1.000  H
  H20      1.0000 0.43270  0.58500  0.32700  Biso   1.000  H
  H21      1.0000 0.93270  0.91500  0.82700  Biso   1.000  H
  H22      1.0000 0.43270  0.41500  0.82700  Biso   1.000  H
  H23      1.0000 0.06730  0.91500  0.67300  Biso   1.000  H
  H24      1.0000 0.56730  0.41500  0.67300  Biso   1.000  H
  H25      1.0000 0.90500  0.94700  0.12900  Biso   1.000  H
  H26      1.0000 0.40500  0.44700  0.12900  Biso   1.000  H
  H27      1.0000 0.09500  0.94700  0.37100  Biso   1.000  H
  H28      1.0000 0.59500  0.44700  0.37100  Biso   1.000  H
  H29      1.0000 0.09500  0.05300  0.87100  Biso   1.000  H
  H30      1.0000 0.59500  0.55300  0.87100  Biso   1.000  H
  H31      1.0000 0.90500  0.05300  0.62900  Biso   1.000  H
  H32      1.0000 0.40500  0.55300  0.62900  Biso   1.000  H
  H33      1.0000 0.08630  0.18000  0.21100  Biso   1.000  H
  H34      1.0000 0.58630  0.68000  0.21100  Biso   1.000  H
  H35      1.0000 0.91370  0.18000  0.28900  Biso   1.000  H
  H36      1.0000 0.41370  0.68000  0.28900  Biso   1.000  H
  H37      1.0000 0.91370  0.82000  0.78900  Biso   1.000  H
  H38      1.0000 0.41370  0.32000  0.78900  Biso   1.000  H
  H39      1.0000 0.08630  0.82000  0.71100  Biso   1.000  H
  H40      1.0000 0.58630  0.32000  0.71100  Biso   1.000  H
  C97      1.0000 0.14180  0.31600  0.17140  Biso   1.000  C
  C98      1.0000 0.64180  0.81600  0.17140  Biso   1.000  C
  C99      1.0000 0.85820  0.31600  0.32860  Biso   1.000  C
  C100     1.0000 0.35820  0.81600  0.32860  Biso   1.000  C
  C101     1.0000 0.85820  0.68400  0.82860  Biso   1.000  C
  C102     1.0000 0.35820  0.18400  0.82860  Biso   1.000  C
  C103     1.0000 0.14180  0.68400  0.67140  Biso   1.000  C
  C104     1.0000 0.64180  0.18400  0.67140  Biso   1.000  C
  H41      1.0000 0.16530  0.32100  0.16780  Biso   1.000  H
  H42      1.0000 0.66530  0.82100  0.16780  Biso   1.000  H
  H43      1.0000 0.83470  0.32100  0.33220  Biso   1.000  H
  H44      1.0000 0.33470  0.82100  0.33220  Biso   1.000  H
  H45      1.0000 0.83470  0.67900  0.83220  Biso   1.000  H
  H46      1.0000 0.33470  0.17900  0.83220  Biso   1.000  H
  H47      1.0000 0.16530  0.67900  0.66780  Biso   1.000  H
  H48      1.0000 0.66530  0.17900  0.66780  Biso   1.000  H
  H49      1.0000 0.14340  0.36600  0.20100  Biso   1.000  H
  H50      1.0000 0.64340  0.86600  0.20100  Biso   1.000  H
  H51      1.0000 0.85660  0.36600  0.29900  Biso   1.000  H
  H52      1.0000 0.35660  0.86600  0.29900  Biso   1.000  H
  H53      1.0000 0.85660  0.63400  0.79900  Biso   1.000  H
  H54      1.0000 0.35660  0.13400  0.79900  Biso   1.000  H
  H55      1.0000 0.14340  0.63400  0.70100  Biso   1.000  H
  H56      1.0000 0.64340  0.13400  0.70100  Biso   1.000  H
  H57      1.0000 0.90900  0.94000  0.15700  Biso   1.000  H
  H58      1.0000 0.40900  0.44000  0.15700  Biso   1.000  H
  H59      1.0000 0.09100  0.94000  0.34300  Biso   1.000  H
  H60      1.0000 0.59100  0.44000  0.34300  Biso   1.000  H
  H61      1.0000 0.09100  0.06000  0.84300  Biso   1.000  H
  H62      1.0000 0.59100  0.56000  0.84300  Biso   1.000  H
  H63      1.0000 0.90900  0.06000  0.65700  Biso   1.000  H
  H64      1.0000 0.40900  0.56000  0.65700  Biso   1.000  H
  C105     1.0000 0.17525  0.07030  0.22019  Biso   1.000  C
  C106     1.0000 0.67525  0.57030  0.22019  Biso   1.000  C
  C107     1.0000 0.82475  0.07030  0.27981  Biso   1.000  C
  C108     1.0000 0.32475  0.57030  0.27981  Biso   1.000  C
  C109     1.0000 0.82475  0.92970  0.77981  Biso   1.000  C
  C110     1.0000 0.32475  0.42970  0.77981  Biso   1.000  C
  C111     1.0000 0.17525  0.92970  0.72019  Biso   1.000  C
  C112     1.0000 0.67525  0.42970  0.72019  Biso   1.000  C
  C113     1.0000 0.21760  0.14240  0.28190  Biso   1.000  C
  C114     1.0000 0.71760  0.64240  0.28190  Biso   1.000  C
  C115     1.0000 0.78240  0.14240  0.21810  Biso   1.000  C
  C116     1.0000 0.28240  0.64240  0.21810  Biso   1.000  C
  C117     1.0000 0.78240  0.85760  0.71810  Biso   1.000  C
  C118     1.0000 0.28240  0.35760  0.71810  Biso   1.000  C
  C119     1.0000 0.21760  0.85760  0.78190  Biso   1.000  C
  C120     1.0000 0.71760  0.35760  0.78190  Biso   1.000  C
  H65      1.0000 0.22900  0.22000  0.27240  Biso   1.000  H
  H66      1.0000 0.72900  0.72000  0.27240  Biso   1.000  H
  H67      1.0000 0.77100  0.22000  0.22760  Biso   1.000  H
  H68      1.0000 0.27100  0.72000  0.22760  Biso   1.000  H
  H69      1.0000 0.77100  0.78000  0.72760  Biso   1.000  H
  H70      1.0000 0.27100  0.28000  0.72760  Biso   1.000  H
  H71      1.0000 0.22900  0.78000  0.77240  Biso   1.000  H
  H72      1.0000 0.72900  0.28000  0.77240  Biso   1.000  H
  H73      1.0000 0.24610  0.09400  0.30400  Biso   1.000  H
  H74      1.0000 0.74610  0.59400  0.30400  Biso   1.000  H
  H75      1.0000 0.75390  0.09400  0.19600  Biso   1.000  H
  H76      1.0000 0.25390  0.59400  0.19600  Biso   1.000  H
  H77      1.0000 0.75390  0.90600  0.69600  Biso   1.000  H
  H78      1.0000 0.25390  0.40600  0.69600  Biso   1.000  H
  H79      1.0000 0.24610  0.90600  0.80400  Biso   1.000  H
  H80      1.0000 0.74610  0.40600  0.80400  Biso   1.000  H
  H81      1.0000 0.03500  0.20700  0.22300  Biso   1.000  H
  H82      1.0000 0.53500  0.70700  0.22300  Biso   1.000  H
  H83      1.0000 0.96500  0.20700  0.27700  Biso   1.000  H
  H84      1.0000 0.46500  0.70700  0.27700  Biso   1.000  H
  H85      1.0000 0.96500  0.79300  0.77700  Biso   1.000  H
  H86      1.0000 0.46500  0.29300  0.77700  Biso   1.000  H
  H87      1.0000 0.03500  0.79300  0.72300  Biso   1.000  H
  H88      1.0000 0.53500  0.29300  0.72300  Biso   1.000  H
  C121     1.0000 0.15840  0.93350  0.23640  Biso   1.000  C
  C122     1.0000 0.65840  0.43350  0.23640  Biso   1.000  C
  C123     1.0000 0.84160  0.93350  0.26360  Biso   1.000  C
  C124     1.0000 0.34160  0.43350  0.26360  Biso   1.000  C
  C125     1.0000 0.84160  0.06650  0.76360  Biso   1.000  C
  C126     1.0000 0.34160  0.56650  0.76360  Biso   1.000  C
  C127     1.0000 0.15840  0.06650  0.73640  Biso   1.000  C
  C128     1.0000 0.65840  0.56650  0.73640  Biso   1.000  C
  H89      1.0000 0.13370  0.88400  0.20100  Biso   1.000  H
  H90      1.0000 0.63370  0.38400  0.20100  Biso   1.000  H
  H91      1.0000 0.86630  0.88400  0.29900  Biso   1.000  H
  H92      1.0000 0.36630  0.38400  0.29900  Biso   1.000  H
  H93      1.0000 0.86630  0.11600  0.79900  Biso   1.000  H
  H94      1.0000 0.36630  0.61600  0.79900  Biso   1.000  H
  H95      1.0000 0.13370  0.11600  0.70100  Biso   1.000  H
  H96      1.0000 0.63370  0.61600  0.70100  Biso   1.000  H
  H97      1.0000 0.97600  0.47000  0.21100  Biso   1.000  H
  H98      1.0000 0.47600  0.97000  0.21100  Biso   1.000  H
  H99      1.0000 0.02400  0.47000  0.28900  Biso   1.000  H
  H100     1.0000 0.52400  0.97000  0.28900  Biso   1.000  H
  H101     1.0000 0.02400  0.53000  0.78900  Biso   1.000  H
  H102     1.0000 0.52400  0.03000  0.78900  Biso   1.000  H
  H103     1.0000 0.97600  0.53000  0.71100  Biso   1.000  H
  H104     1.0000 0.47600  0.03000  0.71100  Biso   1.000  H
  H105     1.0000 0.18620  0.88000  0.25500  Biso   1.000  H
  H106     1.0000 0.68620  0.38000  0.25500  Biso   1.000  H
  H107     1.0000 0.81380  0.88000  0.24500  Biso   1.000  H
  H108     1.0000 0.31380  0.38000  0.24500  Biso   1.000  H
  H109     1.0000 0.81380  0.12000  0.74500  Biso   1.000  H
  H110     1.0000 0.31380  0.62000  0.74500  Biso   1.000  H
  H111     1.0000 0.18620  0.12000  0.75500  Biso   1.000  H
  H112     1.0000 0.68620  0.62000  0.75500  Biso   1.000  H
  N9       1.0000 0.19536  0.03140  0.18024  Biso   1.000  N
  N10      1.0000 0.69536  0.53140  0.18024  Biso   1.000  N
  N11      1.0000 0.80464  0.03140  0.31976  Biso   1.000  N
  N12      1.0000 0.30464  0.53140  0.31976  Biso   1.000  N
  N13      1.0000 0.80464  0.96860  0.81976  Biso   1.000  N
  N14      1.0000 0.30464  0.46860  0.81976  Biso   1.000  N
  N15      1.0000 0.19536  0.96860  0.68024  Biso   1.000  N
  N16      1.0000 0.69536  0.46860  0.68024  Biso   1.000  N
  O41      1.0000 0.24119  0.97990  0.20398  Biso   1.000  O
  O42      1.0000 0.74119  0.47990  0.20398  Biso   1.000  O
  O43      1.0000 0.75881  0.97990  0.29602  Biso   1.000  O
  O44      1.0000 0.25881  0.47990  0.29602  Biso   1.000  O
  O45      1.0000 0.75881  0.02010  0.79602  Biso   1.000  O
  O46      1.0000 0.25881  0.52010  0.79602  Biso   1.000  O
  O47      1.0000 0.24119  0.02010  0.70398  Biso   1.000  O
  O48      1.0000 0.74119  0.52010  0.70398  Biso   1.000  O
  C129     1.0000 0.15674  0.03980  0.11691  Biso   1.000  C
  C130     1.0000 0.65674  0.53980  0.11691  Biso   1.000  C
  C131     1.0000 0.84326  0.03980  0.38309  Biso   1.000  C
  C132     1.0000 0.34326  0.53980  0.38309  Biso   1.000  C
  C133     1.0000 0.84326  0.96020  0.88309  Biso   1.000  C
  C134     1.0000 0.34326  0.46020  0.88309  Biso   1.000  C
  C135     1.0000 0.15674  0.96020  0.61691  Biso   1.000  C
  C136     1.0000 0.65674  0.46020  0.61691  Biso   1.000  C
  C137     1.0000 0.16094  0.99190  0.06604  Biso   1.000  C
  C138     1.0000 0.66094  0.49190  0.06604  Biso   1.000  C
  C139     1.0000 0.83906  0.99190  0.43396  Biso   1.000  C
  C140     1.0000 0.33906  0.49190  0.43396  Biso   1.000  C
  C141     1.0000 0.83906  0.00810  0.93396  Biso   1.000  C
  C142     1.0000 0.33906  0.50810  0.93396  Biso   1.000  C
  C143     1.0000 0.16094  0.00810  0.56604  Biso   1.000  C
  C144     1.0000 0.66094  0.50810  0.56604  Biso   1.000  C
  C145     1.0000 0.20066  0.91060  0.07012  Biso   1.000  C
  C146     1.0000 0.70066  0.41060  0.07012  Biso   1.000  C
  C147     1.0000 0.79934  0.91060  0.42988  Biso   1.000  C
  C148     1.0000 0.29934  0.41060  0.42988  Biso   1.000  C
  C149     1.0000 0.79934  0.08940  0.92988  Biso   1.000  C
  C150     1.0000 0.29934  0.58940  0.92988  Biso   1.000  C
  C151     1.0000 0.20066  0.08940  0.57012  Biso   1.000  C
  C152     1.0000 0.70066  0.58940  0.57012  Biso   1.000  C
  H113     1.0000 0.23340  0.87200  0.10730  Biso   1.000  H
  H114     1.0000 0.73340  0.37200  0.10730  Biso   1.000  H
  H115     1.0000 0.76660  0.87200  0.39270  Biso   1.000  H
  H116     1.0000 0.26660  0.37200  0.39270  Biso   1.000  H
  H117     1.0000 0.76660  0.12800  0.89270  Biso   1.000  H
  H118     1.0000 0.26660  0.62800  0.89270  Biso   1.000  H
  H119     1.0000 0.23340  0.12800  0.60730  Biso   1.000  H
  H120     1.0000 0.73340  0.62800  0.60730  Biso   1.000  H
  N17      1.0000 0.19189  0.88770  0.01353  Biso   1.000  N
  N18      1.0000 0.69189  0.38770  0.01353  Biso   1.000  N
  N19      1.0000 0.80811  0.88770  0.48647  Biso   1.000  N
  N20      1.0000 0.30811  0.38770  0.48647  Biso   1.000  N
  N21      1.0000 0.80811  0.11230  0.98647  Biso   1.000  N
  N22      1.0000 0.30811  0.61230  0.98647  Biso   1.000  N
  N23      1.0000 0.19189  0.11230  0.51353  Biso   1.000  N
  N24      1.0000 0.69189  0.61230  0.51353  Biso   1.000  N
  N25      1.0000 0.14552  0.95700  0.97150  Biso   1.000  N
  N26      1.0000 0.64552  0.45700  0.97150  Biso   1.000  N
  N27      1.0000 0.85448  0.95700  0.52850  Biso   1.000  N
  N28      1.0000 0.35448  0.45700  0.52850  Biso   1.000  N
  N29      1.0000 0.85448  0.04300  0.02850  Biso   1.000  N
  N30      1.0000 0.35448  0.54300  0.02850  Biso   1.000  N
  N31      1.0000 0.14552  0.04300  0.47150  Biso   1.000  N
  N32      1.0000 0.64552  0.54300  0.47150  Biso   1.000  N
  C153     1.0000 0.12250  0.95750  0.90290  Biso   1.000  C
  C154     1.0000 0.62250  0.45750  0.90290  Biso   1.000  C
  C155     1.0000 0.87750  0.95750  0.59710  Biso   1.000  C
  C156     1.0000 0.37750  0.45750  0.59710  Biso   1.000  C
  C157     1.0000 0.87750  0.04250  0.09710  Biso   1.000  C
  C158     1.0000 0.37750  0.54250  0.09710  Biso   1.000  C
  C159     1.0000 0.12250  0.04250  0.40290  Biso   1.000  C
  C160     1.0000 0.62250  0.54250  0.40290  Biso   1.000  C
  H121     1.0000 0.12700  0.05100  0.88000  Biso   1.000  H
  H122     1.0000 0.62700  0.55100  0.88000  Biso   1.000  H
  H123     1.0000 0.87300  0.05100  0.62000  Biso   1.000  H
  H124     1.0000 0.37300  0.55100  0.62000  Biso   1.000  H
  H125     1.0000 0.87300  0.94900  0.12000  Biso   1.000  H
  H126     1.0000 0.37300  0.44900  0.12000  Biso   1.000  H
  H127     1.0000 0.12700  0.94900  0.38000  Biso   1.000  H
  H128     1.0000 0.62700  0.44900  0.38000  Biso   1.000  H
  H129     1.0000 0.14710  0.94000  0.90000  Biso   1.000  H
  H130     1.0000 0.64710  0.44000  0.90000  Biso   1.000  H
  H131     1.0000 0.85290  0.94000  0.60000  Biso   1.000  H
  H132     1.0000 0.35290  0.44000  0.60000  Biso   1.000  H
  H133     1.0000 0.85290  0.06000  0.10000  Biso   1.000  H
  H134     1.0000 0.35290  0.56000  0.10000  Biso   1.000  H
  H135     1.0000 0.14710  0.06000  0.40000  Biso   1.000  H
  H136     1.0000 0.64710  0.56000  0.40000  Biso   1.000  H
  C161     1.0000 0.07090  0.90180  0.86470  Biso   1.000  C
  C162     1.0000 0.57090  0.40180  0.86470  Biso   1.000  C
  C163     1.0000 0.92910  0.90180  0.63530  Biso   1.000  C
  C164     1.0000 0.42910  0.40180  0.63530  Biso   1.000  C
  C165     1.0000 0.92910  0.09820  0.13530  Biso   1.000  C
  C166     1.0000 0.42910  0.59820  0.13530  Biso   1.000  C
  C167     1.0000 0.07090  0.09820  0.36470  Biso   1.000  C
  C168     1.0000 0.57090  0.59820  0.36470  Biso   1.000  C
  H137     1.0000 0.05890  0.90450  0.82050  Biso   1.000  H
  H138     1.0000 0.55890  0.40450  0.82050  Biso   1.000  H
  H139     1.0000 0.94110  0.90450  0.67950  Biso   1.000  H
  H140     1.0000 0.44110  0.40450  0.67950  Biso   1.000  H
  H141     1.0000 0.94110  0.09550  0.17950  Biso   1.000  H
  H142     1.0000 0.44110  0.59550  0.17950  Biso   1.000  H
  H143     1.0000 0.05890  0.09550  0.32050  Biso   1.000  H
  H144     1.0000 0.55890  0.59550  0.32050  Biso   1.000  H
  H145     1.0000 0.04730  0.95600  0.87050  Biso   1.000  H
  H146     1.0000 0.54730  0.45600  0.87050  Biso   1.000  H
  H147     1.0000 0.95270  0.95600  0.62950  Biso   1.000  H
  H148     1.0000 0.45270  0.45600  0.62950  Biso   1.000  H
  H149     1.0000 0.95270  0.04400  0.12950  Biso   1.000  H
  H150     1.0000 0.45270  0.54400  0.12950  Biso   1.000  H
  H151     1.0000 0.04730  0.04400  0.37050  Biso   1.000  H
  H152     1.0000 0.54730  0.54400  0.37050  Biso   1.000  H
  H153     1.0000 0.07120  0.80700  0.87720  Biso   1.000  H
  H154     1.0000 0.57120  0.30700  0.87720  Biso   1.000  H
  H155     1.0000 0.92880  0.80700  0.62280  Biso   1.000  H
  H156     1.0000 0.42880  0.30700  0.62280  Biso   1.000  H
  H157     1.0000 0.92880  0.19300  0.12280  Biso   1.000  H
  H158     1.0000 0.42880  0.69300  0.12280  Biso   1.000  H
  H159     1.0000 0.07120  0.19300  0.37720  Biso   1.000  H
  H160     1.0000 0.57120  0.69300  0.37720  Biso   1.000  H
  C169     1.0000 0.12628  0.01920  0.00126  Biso   1.000  C
  C170     1.0000 0.62628  0.51920  0.00126  Biso   1.000  C
  C171     1.0000 0.87372  0.01920  0.49874  Biso   1.000  C
  C172     1.0000 0.37372  0.51920  0.49874  Biso   1.000  C
  C173     1.0000 0.87372  0.98080  0.99874  Biso   1.000  C
  C174     1.0000 0.37372  0.48080  0.99874  Biso   1.000  C
  C175     1.0000 0.12628  0.98080  0.50126  Biso   1.000  C
  C176     1.0000 0.62628  0.48080  0.50126  Biso   1.000  C
  H161     1.0000 0.09480  0.07100  0.97720  Biso   1.000  H
  H162     1.0000 0.59480  0.57100  0.97720  Biso   1.000  H
  H163     1.0000 0.90520  0.07100  0.52280  Biso   1.000  H
  H164     1.0000 0.40520  0.57100  0.52280  Biso   1.000  H
  H165     1.0000 0.90520  0.92900  0.02280  Biso   1.000  H
  H166     1.0000 0.40520  0.42900  0.02280  Biso   1.000  H
  H167     1.0000 0.09480  0.92900  0.47720  Biso   1.000  H
  H168     1.0000 0.59480  0.42900  0.47720  Biso   1.000  H
