data_image0
_cell_length_a       30.451
_cell_length_b       9.531
_cell_length_c       25.203
_cell_angle_alpha    90
_cell_angle_beta     124.05
_cell_angle_gamma    90

_symmetry_space_group_name_H-M    "P 1"
_symmetry_int_tables_number       1

loop_
  _symmetry_equiv_pos_as_xyz
  'x, y, z'

loop_
  _atom_site_label
  _atom_site_occupancy
  _atom_site_fract_x
  _atom_site_fract_y
  _atom_site_fract_z
  _atom_site_thermal_displace_type
  _atom_site_B_iso_or_equiv
  _atom_site_type_symbol
  Mn1      1.0000 0.00000  0.00000  0.00000  Biso   1.000  Mn
  Mn2      1.0000 0.50000  0.50000  0.00000  Biso   1.000  Mn
  Mn3      1.0000 0.00000  0.00000  0.50000  Biso   1.000  Mn
  Mn4      1.0000 0.50000  0.50000  0.50000  Biso   1.000  Mn
  O1       1.0000 0.99351  0.10010  0.92351  Biso   1.000  O
  O2       1.0000 0.49351  0.60010  0.92351  Biso   1.000  O
  O3       1.0000 0.00649  0.10010  0.57649  Biso   1.000  O
  O4       1.0000 0.50649  0.60010  0.57649  Biso   1.000  O
  O5       1.0000 0.00649  0.89990  0.07649  Biso   1.000  O
  O6       1.0000 0.50649  0.39990  0.07649  Biso   1.000  O
  O7       1.0000 0.99351  0.89990  0.42351  Biso   1.000  O
  O8       1.0000 0.49351  0.39990  0.42351  Biso   1.000  O
  C1       1.0000 0.98610  0.28020  0.85730  Biso   1.000  C
  C2       1.0000 0.48610  0.78020  0.85730  Biso   1.000  C
  C3       1.0000 0.01390  0.28020  0.64270  Biso   1.000  C
  C4       1.0000 0.51390  0.78020  0.64270  Biso   1.000  C
  C5       1.0000 0.01390  0.71980  0.14270  Biso   1.000  C
  C6       1.0000 0.51390  0.21980  0.14270  Biso   1.000  C
  C7       1.0000 0.98610  0.71980  0.35730  Biso   1.000  C
  C8       1.0000 0.48610  0.21980  0.35730  Biso   1.000  C
  F1       1.0000 0.95830  0.40600  0.82510  Biso   1.000  F
  F2       1.0000 0.45830  0.90600  0.82510  Biso   1.000  F
  F3       1.0000 0.04170  0.40600  0.67490  Biso   1.000  F
  F4       1.0000 0.54170  0.90600  0.67490  Biso   1.000  F
  F5       1.0000 0.04170  0.59400  0.17490  Biso   1.000  F
  F6       1.0000 0.54170  0.09400  0.17490  Biso   1.000  F
  F7       1.0000 0.95830  0.59400  0.32510  Biso   1.000  F
  F8       1.0000 0.45830  0.09400  0.32510  Biso   1.000  F
  F9       1.0000 0.96500  0.21700  0.80860  Biso   1.000  F
  F10      1.0000 0.46500  0.71700  0.80860  Biso   1.000  F
  F11      1.0000 0.03500  0.21700  0.69140  Biso   1.000  F
  F12      1.0000 0.53500  0.71700  0.69140  Biso   1.000  F
  F13      1.0000 0.03500  0.78300  0.19140  Biso   1.000  F
  F14      1.0000 0.53500  0.28300  0.19140  Biso   1.000  F
  F15      1.0000 0.96500  0.78300  0.30860  Biso   1.000  F
  F16      1.0000 0.46500  0.28300  0.30860  Biso   1.000  F
  F17      1.0000 0.03400  0.30400  0.88340  Biso   1.000  F
  F18      1.0000 0.53400  0.80400  0.88340  Biso   1.000  F
  F19      1.0000 0.96600  0.30400  0.61660  Biso   1.000  F
  F20      1.0000 0.46600  0.80400  0.61660  Biso   1.000  F
  F21      1.0000 0.96600  0.69600  0.11660  Biso   1.000  F
  F22      1.0000 0.46600  0.19600  0.11660  Biso   1.000  F
  F23      1.0000 0.03400  0.69600  0.38340  Biso   1.000  F
  F24      1.0000 0.53400  0.19600  0.38340  Biso   1.000  F
  F25      1.0000 0.96750  0.17900  0.80780  Biso   1.000  F
  F26      1.0000 0.46750  0.67900  0.80780  Biso   1.000  F
  F27      1.0000 0.03250  0.17900  0.69220  Biso   1.000  F
  F28      1.0000 0.53250  0.67900  0.69220  Biso   1.000  F
  F29      1.0000 0.03250  0.82100  0.19220  Biso   1.000  F
  F30      1.0000 0.53250  0.32100  0.19220  Biso   1.000  F
  F31      1.0000 0.96750  0.82100  0.30780  Biso   1.000  F
  F32      1.0000 0.46750  0.32100  0.30780  Biso   1.000  F
  F33      1.0000 0.03870  0.27700  0.87690  Biso   1.000  F
  F34      1.0000 0.53870  0.77700  0.87690  Biso   1.000  F
  F35      1.0000 0.96130  0.27700  0.62310  Biso   1.000  F
  F36      1.0000 0.46130  0.77700  0.62310  Biso   1.000  F
  F37      1.0000 0.96130  0.72300  0.12310  Biso   1.000  F
  F38      1.0000 0.46130  0.22300  0.12310  Biso   1.000  F
  F39      1.0000 0.03870  0.72300  0.37690  Biso   1.000  F
  F40      1.0000 0.53870  0.22300  0.37690  Biso   1.000  F
  F41      1.0000 0.97740  0.40200  0.84780  Biso   1.000  F
  F42      1.0000 0.47740  0.90200  0.84780  Biso   1.000  F
  F43      1.0000 0.02260  0.40200  0.65220  Biso   1.000  F
  F44      1.0000 0.52260  0.90200  0.65220  Biso   1.000  F
  F45      1.0000 0.02260  0.59800  0.15220  Biso   1.000  F
  F46      1.0000 0.52260  0.09800  0.15220  Biso   1.000  F
  F47      1.0000 0.97740  0.59800  0.34780  Biso   1.000  F
  F48      1.0000 0.47740  0.09800  0.34780  Biso   1.000  F
  C9       1.0000 0.97840  0.22210  0.90700  Biso   1.000  C
  C10      1.0000 0.47840  0.72210  0.90700  Biso   1.000  C
  C11      1.0000 0.02160  0.22210  0.59300  Biso   1.000  C
  C12      1.0000 0.52160  0.72210  0.59300  Biso   1.000  C
  C13      1.0000 0.02160  0.77790  0.09300  Biso   1.000  C
  C14      1.0000 0.52160  0.27790  0.09300  Biso   1.000  C
  C15      1.0000 0.97840  0.77790  0.40700  Biso   1.000  C
  C16      1.0000 0.47840  0.27790  0.40700  Biso   1.000  C
  C17      1.0000 0.95620  0.30800  0.92880  Biso   1.000  C
  C18      1.0000 0.45620  0.80800  0.92880  Biso   1.000  C
  C19      1.0000 0.04380  0.30800  0.57120  Biso   1.000  C
  C20      1.0000 0.54380  0.80800  0.57120  Biso   1.000  C
  C21      1.0000 0.04380  0.69200  0.07120  Biso   1.000  C
  C22      1.0000 0.54380  0.19200  0.07120  Biso   1.000  C
  C23      1.0000 0.95620  0.69200  0.42880  Biso   1.000  C
  C24      1.0000 0.45620  0.19200  0.42880  Biso   1.000  C
  H1       1.0000 0.94500  0.39200  0.91200  Biso   1.000  H
  H2       1.0000 0.44500  0.89200  0.91200  Biso   1.000  H
  H3       1.0000 0.05500  0.39200  0.58800  Biso   1.000  H
  H4       1.0000 0.55500  0.89200  0.58800  Biso   1.000  H
  H5       1.0000 0.05500  0.60800  0.08800  Biso   1.000  H
  H6       1.0000 0.55500  0.10800  0.08800  Biso   1.000  H
  H7       1.0000 0.94500  0.60800  0.41200  Biso   1.000  H
  H8       1.0000 0.44500  0.10800  0.41200  Biso   1.000  H
  C25      1.0000 0.94880  0.27170  0.97680  Biso   1.000  C
  C26      1.0000 0.44880  0.77170  0.97680  Biso   1.000  C
  C27      1.0000 0.05120  0.27170  0.52320  Biso   1.000  C
  C28      1.0000 0.55120  0.77170  0.52320  Biso   1.000  C
  C29      1.0000 0.05120  0.72830  0.02320  Biso   1.000  C
  C30      1.0000 0.55120  0.22830  0.02320  Biso   1.000  C
  C31      1.0000 0.94880  0.72830  0.47680  Biso   1.000  C
  C32      1.0000 0.44880  0.22830  0.47680  Biso   1.000  C
  C33      1.0000 0.92340  0.37760  0.99820  Biso   1.000  C
  C34      1.0000 0.42340  0.87760  0.99820  Biso   1.000  C
  C35      1.0000 0.07660  0.37760  0.50180  Biso   1.000  C
  C36      1.0000 0.57660  0.87760  0.50180  Biso   1.000  C
  C37      1.0000 0.07660  0.62240  0.00180  Biso   1.000  C
  C38      1.0000 0.57660  0.12240  0.00180  Biso   1.000  C
  C39      1.0000 0.92340  0.62240  0.49820  Biso   1.000  C
  C40      1.0000 0.42340  0.12240  0.49820  Biso   1.000  C
  F49      1.0000 0.88550  0.33600  0.99470  Biso   1.000  F
  F50      1.0000 0.38550  0.83600  0.99470  Biso   1.000  F
  F51      1.0000 0.11450  0.33600  0.50530  Biso   1.000  F
  F52      1.0000 0.61450  0.83600  0.50530  Biso   1.000  F
  F53      1.0000 0.11450  0.66400  0.00530  Biso   1.000  F
  F54      1.0000 0.61450  0.16400  0.00530  Biso   1.000  F
  F55      1.0000 0.88550  0.66400  0.49470  Biso   1.000  F
  F56      1.0000 0.38550  0.16400  0.49470  Biso   1.000  F
  F57      1.0000 0.92120  0.34100  0.04300  Biso   1.000  F
  F58      1.0000 0.42120  0.84100  0.04300  Biso   1.000  F
  F59      1.0000 0.07880  0.34100  0.45700  Biso   1.000  F
  F60      1.0000 0.57880  0.84100  0.45700  Biso   1.000  F
  F61      1.0000 0.07880  0.65900  0.95700  Biso   1.000  F
  F62      1.0000 0.57880  0.15900  0.95700  Biso   1.000  F
  F63      1.0000 0.92120  0.65900  0.54300  Biso   1.000  F
  F64      1.0000 0.42120  0.15900  0.54300  Biso   1.000  F
  F65      1.0000 0.92390  0.50700  0.98210  Biso   1.000  F
  F66      1.0000 0.42390  0.00700  0.98210  Biso   1.000  F
  F67      1.0000 0.07610  0.50700  0.51790  Biso   1.000  F
  F68      1.0000 0.57610  0.00700  0.51790  Biso   1.000  F
  F69      1.0000 0.07610  0.49300  0.01790  Biso   1.000  F
  F70      1.0000 0.57610  0.99300  0.01790  Biso   1.000  F
  F71      1.0000 0.92390  0.49300  0.48210  Biso   1.000  F
  F72      1.0000 0.42390  0.99300  0.48210  Biso   1.000  F
  F73      1.0000 0.86610  0.37700  0.94140  Biso   1.000  F
  F74      1.0000 0.36610  0.87700  0.94140  Biso   1.000  F
  F75      1.0000 0.13390  0.37700  0.55860  Biso   1.000  F
  F76      1.0000 0.63390  0.87700  0.55860  Biso   1.000  F
  F77      1.0000 0.13390  0.62300  0.05860  Biso   1.000  F
  F78      1.0000 0.63390  0.12300  0.05860  Biso   1.000  F
  F79      1.0000 0.86610  0.62300  0.44140  Biso   1.000  F
  F80      1.0000 0.36610  0.12300  0.44140  Biso   1.000  F
  F81      1.0000 0.93410  0.49500  0.99530  Biso   1.000  F
  F82      1.0000 0.43410  0.99500  0.99530  Biso   1.000  F
  F83      1.0000 0.06590  0.49500  0.50470  Biso   1.000  F
  F84      1.0000 0.56590  0.99500  0.50470  Biso   1.000  F
  F85      1.0000 0.06590  0.50500  0.00470  Biso   1.000  F
  F86      1.0000 0.56590  0.00500  0.00470  Biso   1.000  F
  F87      1.0000 0.93410  0.50500  0.49530  Biso   1.000  F
  F88      1.0000 0.43410  0.00500  0.49530  Biso   1.000  F
  F89      1.0000 0.96480  0.39600  0.06910  Biso   1.000  F
  F90      1.0000 0.46480  0.89600  0.06910  Biso   1.000  F
  F91      1.0000 0.03520  0.39600  0.43090  Biso   1.000  F
  F92      1.0000 0.53520  0.89600  0.43090  Biso   1.000  F
  F93      1.0000 0.03520  0.60400  0.93090  Biso   1.000  F
  F94      1.0000 0.53520  0.10400  0.93090  Biso   1.000  F
  F95      1.0000 0.96480  0.60400  0.56910  Biso   1.000  F
  F96      1.0000 0.46480  0.10400  0.56910  Biso   1.000  F
  O9       1.0000 0.96038  0.15620  0.00560  Biso   1.000  O
  O10      1.0000 0.46038  0.65620  0.00560  Biso   1.000  O
  O11      1.0000 0.03962  0.15620  0.49440  Biso   1.000  O
  O12      1.0000 0.53962  0.65620  0.49440  Biso   1.000  O
  O13      1.0000 0.03962  0.84380  0.99440  Biso   1.000  O
  O14      1.0000 0.53962  0.34380  0.99440  Biso   1.000  O
  O15      1.0000 0.96038  0.84380  0.50560  Biso   1.000  O
  O16      1.0000 0.46038  0.34380  0.50560  Biso   1.000  O
  Cu1      1.0000 0.25000  0.75000  0.00000  Biso   1.000  Cu
  Cu2      1.0000 0.75000  0.25000  0.00000  Biso   1.000  Cu
  Cu3      1.0000 0.75000  0.75000  0.50000  Biso   1.000  Cu
  Cu4      1.0000 0.25000  0.25000  0.50000  Biso   1.000  Cu
  O17      1.0000 0.25625  0.91170  0.95536  Biso   1.000  O
  O18      1.0000 0.75625  0.41170  0.95536  Biso   1.000  O
  O19      1.0000 0.74375  0.91170  0.54464  Biso   1.000  O
  O20      1.0000 0.24375  0.41170  0.54464  Biso   1.000  O
  O21      1.0000 0.74375  0.08830  0.04464  Biso   1.000  O
  O22      1.0000 0.24375  0.58830  0.04464  Biso   1.000  O
  O23      1.0000 0.25625  0.08830  0.45536  Biso   1.000  O
  O24      1.0000 0.75625  0.58830  0.45536  Biso   1.000  O
  C41      1.0000 0.27450  0.13850  0.93830  Biso   1.000  C
  C42      1.0000 0.77450  0.63850  0.93830  Biso   1.000  C
  C43      1.0000 0.72550  0.13850  0.56170  Biso   1.000  C
  C44      1.0000 0.22550  0.63850  0.56170  Biso   1.000  C
  C45      1.0000 0.72550  0.86150  0.06170  Biso   1.000  C
  C46      1.0000 0.22550  0.36150  0.06170  Biso   1.000  C
  C47      1.0000 0.27450  0.86150  0.43830  Biso   1.000  C
  C48      1.0000 0.77450  0.36150  0.43830  Biso   1.000  C
  F97      1.0000 0.28540  0.09700  0.89800  Biso   1.000  F
  F98      1.0000 0.78540  0.59700  0.89800  Biso   1.000  F
  F99      1.0000 0.71460  0.09700  0.60200  Biso   1.000  F
  F100     1.0000 0.21460  0.59700  0.60200  Biso   1.000  F
  F101     1.0000 0.71460  0.90300  0.10200  Biso   1.000  F
  F102     1.0000 0.21460  0.40300  0.10200  Biso   1.000  F
  F103     1.0000 0.28540  0.90300  0.39800  Biso   1.000  F
  F104     1.0000 0.78540  0.40300  0.39800  Biso   1.000  F
  F105     1.0000 0.22190  0.16500  0.89780  Biso   1.000  F
  F106     1.0000 0.72190  0.66500  0.89780  Biso   1.000  F
  F107     1.0000 0.77810  0.16500  0.60220  Biso   1.000  F
  F108     1.0000 0.27810  0.66500  0.60220  Biso   1.000  F
  F109     1.0000 0.77810  0.83500  0.10220  Biso   1.000  F
  F110     1.0000 0.27810  0.33500  0.10220  Biso   1.000  F
  F111     1.0000 0.22190  0.83500  0.39780  Biso   1.000  F
  F112     1.0000 0.72190  0.33500  0.39780  Biso   1.000  F
  F113     1.0000 0.29290  0.24400  0.96370  Biso   1.000  F
  F114     1.0000 0.79290  0.74400  0.96370  Biso   1.000  F
  F115     1.0000 0.70710  0.24400  0.53630  Biso   1.000  F
  F116     1.0000 0.20710  0.74400  0.53630  Biso   1.000  F
  F117     1.0000 0.70710  0.75600  0.03630  Biso   1.000  F
  F118     1.0000 0.20710  0.25600  0.03630  Biso   1.000  F
  F119     1.0000 0.29290  0.75600  0.46370  Biso   1.000  F
  F120     1.0000 0.79290  0.25600  0.46370  Biso   1.000  F
  F121     1.0000 0.31730  0.14800  0.93530  Biso   1.000  F
  F122     1.0000 0.81730  0.64800  0.93530  Biso   1.000  F
  F123     1.0000 0.68270  0.14800  0.56470  Biso   1.000  F
  F124     1.0000 0.18270  0.64800  0.56470  Biso   1.000  F
  F125     1.0000 0.68270  0.85200  0.06470  Biso   1.000  F
  F126     1.0000 0.18270  0.35200  0.06470  Biso   1.000  F
  F127     1.0000 0.31730  0.85200  0.43530  Biso   1.000  F
  F128     1.0000 0.81730  0.35200  0.43530  Biso   1.000  F
  F129     1.0000 0.23180  0.13400  0.88740  Biso   1.000  F
  F130     1.0000 0.73180  0.63400  0.88740  Biso   1.000  F
  F131     1.0000 0.76820  0.13400  0.61260  Biso   1.000  F
  F132     1.0000 0.26820  0.63400  0.61260  Biso   1.000  F
  F133     1.0000 0.76820  0.86600  0.11260  Biso   1.000  F
  F134     1.0000 0.26820  0.36600  0.11260  Biso   1.000  F
  F135     1.0000 0.23180  0.86600  0.38740  Biso   1.000  F
  F136     1.0000 0.73180  0.36600  0.38740  Biso   1.000  F
  F137     1.0000 0.27940  0.26440  0.96440  Biso   1.000  F
  F138     1.0000 0.77940  0.76440  0.96440  Biso   1.000  F
  F139     1.0000 0.72060  0.26440  0.53560  Biso   1.000  F
  F140     1.0000 0.22060  0.76440  0.53560  Biso   1.000  F
  F141     1.0000 0.72060  0.73560  0.03560  Biso   1.000  F
  F142     1.0000 0.22060  0.23560  0.03560  Biso   1.000  F
  F143     1.0000 0.27940  0.73560  0.46440  Biso   1.000  F
  F144     1.0000 0.77940  0.23560  0.46440  Biso   1.000  F
  C49      1.0000 0.28310  0.01800  0.98320  Biso   1.000  C
  C50      1.0000 0.78310  0.51800  0.98320  Biso   1.000  C
  C51      1.0000 0.71690  0.01800  0.51680  Biso   1.000  C
  C52      1.0000 0.21690  0.51800  0.51680  Biso   1.000  C
  C53      1.0000 0.71690  0.98200  0.01680  Biso   1.000  C
  C54      1.0000 0.21690  0.48200  0.01680  Biso   1.000  C
  C55      1.0000 0.28310  0.98200  0.48320  Biso   1.000  C
  C56      1.0000 0.78310  0.48200  0.48320  Biso   1.000  C
  C57      1.0000 0.31880  0.03800  0.04810  Biso   1.000  C
  C58      1.0000 0.81880  0.53800  0.04810  Biso   1.000  C
  C59      1.0000 0.68120  0.03800  0.45190  Biso   1.000  C
  C60      1.0000 0.18120  0.53800  0.45190  Biso   1.000  C
  C61      1.0000 0.68120  0.96200  0.95190  Biso   1.000  C
  C62      1.0000 0.18120  0.46200  0.95190  Biso   1.000  C
  C63      1.0000 0.31880  0.96200  0.54810  Biso   1.000  C
  C64      1.0000 0.81880  0.46200  0.54810  Biso   1.000  C
  H9       1.0000 0.33120  0.11800  0.06100  Biso   1.000  H
  H10      1.0000 0.83120  0.61800  0.06100  Biso   1.000  H
  H11      1.0000 0.66880  0.11800  0.43900  Biso   1.000  H
  H12      1.0000 0.16880  0.61800  0.43900  Biso   1.000  H
  H13      1.0000 0.66880  0.88200  0.93900  Biso   1.000  H
  H14      1.0000 0.16880  0.38200  0.93900  Biso   1.000  H
  H15      1.0000 0.33120  0.88200  0.56100  Biso   1.000  H
  H16      1.0000 0.83120  0.38200  0.56100  Biso   1.000  H
  C65      1.0000 0.32790  0.94130  0.09280  Biso   1.000  C
  C66      1.0000 0.82790  0.44130  0.09280  Biso   1.000  C
  C67      1.0000 0.67210  0.94130  0.40720  Biso   1.000  C
  C68      1.0000 0.17210  0.44130  0.40720  Biso   1.000  C
  C69      1.0000 0.67210  0.05870  0.90720  Biso   1.000  C
  C70      1.0000 0.17210  0.55870  0.90720  Biso   1.000  C
  C71      1.0000 0.32790  0.05870  0.59280  Biso   1.000  C
  C72      1.0000 0.82790  0.55870  0.59280  Biso   1.000  C
  C73      1.0000 0.36860  0.97920  0.16400  Biso   1.000  C
  C74      1.0000 0.86860  0.47920  0.16400  Biso   1.000  C
  C75      1.0000 0.63140  0.97920  0.33600  Biso   1.000  C
  C76      1.0000 0.13140  0.47920  0.33600  Biso   1.000  C
  C77      1.0000 0.63140  0.02080  0.83600  Biso   1.000  C
  C78      1.0000 0.13140  0.52080  0.83600  Biso   1.000  C
  C79      1.0000 0.36860  0.02080  0.66400  Biso   1.000  C
  C80      1.0000 0.86860  0.52080  0.66400  Biso   1.000  C
  F145     1.0000 0.39910  0.07900  0.17110  Biso   1.000  F
  F146     1.0000 0.89910  0.57900  0.17110  Biso   1.000  F
  F147     1.0000 0.60090  0.07900  0.32890  Biso   1.000  F
  F148     1.0000 0.10090  0.57900  0.32890  Biso   1.000  F
  F149     1.0000 0.60090  0.92100  0.82890  Biso   1.000  F
  F150     1.0000 0.10090  0.42100  0.82890  Biso   1.000  F
  F151     1.0000 0.39910  0.92100  0.67110  Biso   1.000  F
  F152     1.0000 0.89910  0.42100  0.67110  Biso   1.000  F
  F153     1.0000 0.34470  0.02000  0.18840  Biso   1.000  F
  F154     1.0000 0.84470  0.52000  0.18840  Biso   1.000  F
  F155     1.0000 0.65530  0.02000  0.31160  Biso   1.000  F
  F156     1.0000 0.15530  0.52000  0.31160  Biso   1.000  F
  F157     1.0000 0.65530  0.98000  0.81160  Biso   1.000  F
  F158     1.0000 0.15530  0.48000  0.81160  Biso   1.000  F
  F159     1.0000 0.34470  0.98000  0.68840  Biso   1.000  F
  F160     1.0000 0.84470  0.48000  0.68840  Biso   1.000  F
  F161     1.0000 0.39490  0.88000  0.19680  Biso   1.000  F
  F162     1.0000 0.89490  0.38000  0.19680  Biso   1.000  F
  F163     1.0000 0.60510  0.88000  0.30320  Biso   1.000  F
  F164     1.0000 0.10510  0.38000  0.30320  Biso   1.000  F
  F165     1.0000 0.60510  0.12000  0.80320  Biso   1.000  F
  F166     1.0000 0.10510  0.62000  0.80320  Biso   1.000  F
  F167     1.0000 0.39490  0.12000  0.69680  Biso   1.000  F
  F168     1.0000 0.89490  0.62000  0.69680  Biso   1.000  F
  F169     1.0000 0.41420  0.92000  0.18110  Biso   1.000  F
  F170     1.0000 0.91420  0.42000  0.18110  Biso   1.000  F
  F171     1.0000 0.58580  0.92000  0.31890  Biso   1.000  F
  F172     1.0000 0.08580  0.42000  0.31890  Biso   1.000  F
  F173     1.0000 0.58580  0.08000  0.81890  Biso   1.000  F
  F174     1.0000 0.08580  0.58000  0.81890  Biso   1.000  F
  F175     1.0000 0.41420  0.08000  0.68110  Biso   1.000  F
  F176     1.0000 0.91420  0.58000  0.68110  Biso   1.000  F
  F177     1.0000 0.37640  0.10900  0.17600  Biso   1.000  F
  F178     1.0000 0.87640  0.60900  0.17600  Biso   1.000  F
  F179     1.0000 0.62360  0.10900  0.32400  Biso   1.000  F
  F180     1.0000 0.12360  0.60900  0.32400  Biso   1.000  F
  F181     1.0000 0.62360  0.89100  0.82400  Biso   1.000  F
  F182     1.0000 0.12360  0.39100  0.82400  Biso   1.000  F
  F183     1.0000 0.37640  0.89100  0.67600  Biso   1.000  F
  F184     1.0000 0.87640  0.39100  0.67600  Biso   1.000  F
  F185     1.0000 0.35400  0.93300  0.20070  Biso   1.000  F
  F186     1.0000 0.85400  0.43300  0.20070  Biso   1.000  F
  F187     1.0000 0.64600  0.93300  0.29930  Biso   1.000  F
  F188     1.0000 0.14600  0.43300  0.29930  Biso   1.000  F
  F189     1.0000 0.64600  0.06700  0.79930  Biso   1.000  F
  F190     1.0000 0.14600  0.56700  0.79930  Biso   1.000  F
  F191     1.0000 0.35400  0.06700  0.70070  Biso   1.000  F
  F192     1.0000 0.85400  0.56700  0.70070  Biso   1.000  F
  O25      1.0000 0.30799  0.82280  0.08483  Biso   1.000  O
  O26      1.0000 0.80799  0.32280  0.08483  Biso   1.000  O
  O27      1.0000 0.69201  0.82280  0.41517  Biso   1.000  O
  O28      1.0000 0.19201  0.32280  0.41517  Biso   1.000  O
  O29      1.0000 0.69201  0.17720  0.91517  Biso   1.000  O
  O30      1.0000 0.19201  0.67720  0.91517  Biso   1.000  O
  O31      1.0000 0.30799  0.17720  0.58483  Biso   1.000  O
  O32      1.0000 0.80799  0.67720  0.58483  Biso   1.000  O
  O33      1.0000 0.07107  0.13620  0.05530  Biso   1.000  O
  O34      1.0000 0.57107  0.63620  0.05530  Biso   1.000  O
  O35      1.0000 0.92893  0.13620  0.44470  Biso   1.000  O
  O36      1.0000 0.42893  0.63620  0.44470  Biso   1.000  O
  O37      1.0000 0.92893  0.86380  0.94470  Biso   1.000  O
  O38      1.0000 0.42893  0.36380  0.94470  Biso   1.000  O
  O39      1.0000 0.07107  0.86380  0.55530  Biso   1.000  O
  O40      1.0000 0.57107  0.36380  0.55530  Biso   1.000  O
  N1       1.0000 0.11490  0.10600  0.10970  Biso   1.000  N
  N2       1.0000 0.61490  0.60600  0.10970  Biso   1.000  N
  N3       1.0000 0.88510  0.10600  0.39030  Biso   1.000  N
  N4       1.0000 0.38510  0.60600  0.39030  Biso   1.000  N
  N5       1.0000 0.88510  0.89400  0.89030  Biso   1.000  N
  N6       1.0000 0.38510  0.39400  0.89030  Biso   1.000  N
  N7       1.0000 0.11490  0.89400  0.60970  Biso   1.000  N
  N8       1.0000 0.61490  0.39400  0.60970  Biso   1.000  N
  C81      1.0000 0.12820  0.16770  0.17180  Biso   1.000  C
  C82      1.0000 0.62820  0.66770  0.17180  Biso   1.000  C
  C83      1.0000 0.87180  0.16770  0.32820  Biso   1.000  C
  C84      1.0000 0.37180  0.66770  0.32820  Biso   1.000  C
  C85      1.0000 0.87180  0.83230  0.82820  Biso   1.000  C
  C86      1.0000 0.37180  0.33230  0.82820  Biso   1.000  C
  C87      1.0000 0.12820  0.83230  0.67180  Biso   1.000  C
  C88      1.0000 0.62820  0.33230  0.67180  Biso   1.000  C
  C89      1.0000 0.07960  0.16540  0.17380  Biso   1.000  C
  C90      1.0000 0.57960  0.66540  0.17380  Biso   1.000  C
  C91      1.0000 0.92040  0.16540  0.32620  Biso   1.000  C
  C92      1.0000 0.42040  0.66540  0.32620  Biso   1.000  C
  C93      1.0000 0.92040  0.83460  0.82620  Biso   1.000  C
  C94      1.0000 0.42040  0.33460  0.82620  Biso   1.000  C
  C95      1.0000 0.07960  0.83460  0.67380  Biso   1.000  C
  C96      1.0000 0.57960  0.33460  0.67380  Biso   1.000  C
  H17      1.0000 0.05900  0.09800  0.16200  Biso   1.000  H
  H18      1.0000 0.55900  0.59800  0.16200  Biso   1.000  H
  H19      1.0000 0.94100  0.09800  0.33800  Biso   1.000  H
  H20      1.0000 0.44100  0.59800  0.33800  Biso   1.000  H
  H21      1.0000 0.94100  0.90200  0.83800  Biso   1.000  H
  H22      1.0000 0.44100  0.40200  0.83800  Biso   1.000  H
  H23      1.0000 0.05900  0.90200  0.66200  Biso   1.000  H
  H24      1.0000 0.55900  0.40200  0.66200  Biso   1.000  H
  H25      1.0000 0.89900  0.92500  0.12600  Biso   1.000  H
  H26      1.0000 0.39900  0.42500  0.12600  Biso   1.000  H
  H27      1.0000 0.10100  0.92500  0.37400  Biso   1.000  H
  H28      1.0000 0.60100  0.42500  0.37400  Biso   1.000  H
  H29      1.0000 0.10100  0.07500  0.87400  Biso   1.000  H
  H30      1.0000 0.60100  0.57500  0.87400  Biso   1.000  H
  H31      1.0000 0.89900  0.07500  0.62600  Biso   1.000  H
  H32      1.0000 0.39900  0.57500  0.62600  Biso   1.000  H
  H33      1.0000 0.08900  0.19300  0.21200  Biso   1.000  H
  H34      1.0000 0.58900  0.69300  0.21200  Biso   1.000  H
  H35      1.0000 0.91100  0.19300  0.28800  Biso   1.000  H
  H36      1.0000 0.41100  0.69300  0.28800  Biso   1.000  H
  H37      1.0000 0.91100  0.80700  0.78800  Biso   1.000  H
  H38      1.0000 0.41100  0.30700  0.78800  Biso   1.000  H
  H39      1.0000 0.08900  0.80700  0.71200  Biso   1.000  H
  H40      1.0000 0.58900  0.30700  0.71200  Biso   1.000  H
  C97      1.0000 0.14130  0.32010  0.16880  Biso   1.000  C
  C98      1.0000 0.64130  0.82010  0.16880  Biso   1.000  C
  C99      1.0000 0.85870  0.32010  0.33120  Biso   1.000  C
  C100     1.0000 0.35870  0.82010  0.33120  Biso   1.000  C
  C101     1.0000 0.85870  0.67990  0.83120  Biso   1.000  C
  C102     1.0000 0.35870  0.17990  0.83120  Biso   1.000  C
  C103     1.0000 0.14130  0.67990  0.66880  Biso   1.000  C
  C104     1.0000 0.64130  0.17990  0.66880  Biso   1.000  C
  H41      1.0000 0.17130  0.33300  0.17400  Biso   1.000  H
  H42      1.0000 0.67130  0.83300  0.17400  Biso   1.000  H
  H43      1.0000 0.82870  0.33300  0.32600  Biso   1.000  H
  H44      1.0000 0.32870  0.83300  0.32600  Biso   1.000  H
  H45      1.0000 0.82870  0.66700  0.82600  Biso   1.000  H
  H46      1.0000 0.32870  0.16700  0.82600  Biso   1.000  H
  H47      1.0000 0.17130  0.66700  0.67400  Biso   1.000  H
  H48      1.0000 0.67130  0.16700  0.67400  Biso   1.000  H
  H49      1.0000 0.14400  0.37300  0.19700  Biso   1.000  H
  H50      1.0000 0.64400  0.87300  0.19700  Biso   1.000  H
  H51      1.0000 0.85600  0.37300  0.30300  Biso   1.000  H
  H52      1.0000 0.35600  0.87300  0.30300  Biso   1.000  H
  H53      1.0000 0.85600  0.62700  0.80300  Biso   1.000  H
  H54      1.0000 0.35600  0.12700  0.80300  Biso   1.000  H
  H55      1.0000 0.14400  0.62700  0.69700  Biso   1.000  H
  H56      1.0000 0.64400  0.12700  0.69700  Biso   1.000  H
  H57      1.0000 0.91300  0.97200  0.15700  Biso   1.000  H
  H58      1.0000 0.41300  0.47200  0.15700  Biso   1.000  H
  H59      1.0000 0.08700  0.97200  0.34300  Biso   1.000  H
  H60      1.0000 0.58700  0.47200  0.34300  Biso   1.000  H
  H61      1.0000 0.08700  0.02800  0.84300  Biso   1.000  H
  H62      1.0000 0.58700  0.52800  0.84300  Biso   1.000  H
  H63      1.0000 0.91300  0.02800  0.65700  Biso   1.000  H
  H64      1.0000 0.41300  0.52800  0.65700  Biso   1.000  H
  C105     1.0000 0.17480  0.07440  0.21920  Biso   1.000  C
  C106     1.0000 0.67480  0.57440  0.21920  Biso   1.000  C
  C107     1.0000 0.82520  0.07440  0.28080  Biso   1.000  C
  C108     1.0000 0.32520  0.57440  0.28080  Biso   1.000  C
  C109     1.0000 0.82520  0.92560  0.78080  Biso   1.000  C
  C110     1.0000 0.32520  0.42560  0.78080  Biso   1.000  C
  C111     1.0000 0.17480  0.92560  0.71920  Biso   1.000  C
  C112     1.0000 0.67480  0.42560  0.71920  Biso   1.000  C
  C113     1.0000 0.21700  0.14580  0.28220  Biso   1.000  C
  C114     1.0000 0.71700  0.64580  0.28220  Biso   1.000  C
  C115     1.0000 0.78300  0.14580  0.21780  Biso   1.000  C
  C116     1.0000 0.28300  0.64580  0.21780  Biso   1.000  C
  C117     1.0000 0.78300  0.85420  0.71780  Biso   1.000  C
  C118     1.0000 0.28300  0.35420  0.71780  Biso   1.000  C
  C119     1.0000 0.21700  0.85420  0.78220  Biso   1.000  C
  C120     1.0000 0.71700  0.35420  0.78220  Biso   1.000  C
  H65      1.0000 0.22700  0.22100  0.27300  Biso   1.000  H
  H66      1.0000 0.72700  0.72100  0.27300  Biso   1.000  H
  H67      1.0000 0.77300  0.22100  0.22700  Biso   1.000  H
  H68      1.0000 0.27300  0.72100  0.22700  Biso   1.000  H
  H69      1.0000 0.77300  0.77900  0.72700  Biso   1.000  H
  H70      1.0000 0.27300  0.27900  0.72700  Biso   1.000  H
  H71      1.0000 0.22700  0.77900  0.77300  Biso   1.000  H
  H72      1.0000 0.72700  0.27900  0.77300  Biso   1.000  H
  H73      1.0000 0.24600  0.09800  0.30300  Biso   1.000  H
  H74      1.0000 0.74600  0.59800  0.30300  Biso   1.000  H
  H75      1.0000 0.75400  0.09800  0.19700  Biso   1.000  H
  H76      1.0000 0.25400  0.59800  0.19700  Biso   1.000  H
  H77      1.0000 0.75400  0.90200  0.69700  Biso   1.000  H
  H78      1.0000 0.25400  0.40200  0.69700  Biso   1.000  H
  H79      1.0000 0.24600  0.90200  0.80300  Biso   1.000  H
  H80      1.0000 0.74600  0.40200  0.80300  Biso   1.000  H
  H81      1.0000 0.03300  0.26900  0.14700  Biso   1.000  H
  H82      1.0000 0.53300  0.76900  0.14700  Biso   1.000  H
  H83      1.0000 0.96700  0.26900  0.35300  Biso   1.000  H
  H84      1.0000 0.46700  0.76900  0.35300  Biso   1.000  H
  H85      1.0000 0.96700  0.73100  0.85300  Biso   1.000  H
  H86      1.0000 0.46700  0.23100  0.85300  Biso   1.000  H
  H87      1.0000 0.03300  0.73100  0.64700  Biso   1.000  H
  H88      1.0000 0.53300  0.23100  0.64700  Biso   1.000  H
  C121     1.0000 0.15780  0.94000  0.23580  Biso   1.000  C
  C122     1.0000 0.65780  0.44000  0.23580  Biso   1.000  C
  C123     1.0000 0.84220  0.94000  0.26420  Biso   1.000  C
  C124     1.0000 0.34220  0.44000  0.26420  Biso   1.000  C
  C125     1.0000 0.84220  0.06000  0.76420  Biso   1.000  C
  C126     1.0000 0.34220  0.56000  0.76420  Biso   1.000  C
  C127     1.0000 0.15780  0.06000  0.73580  Biso   1.000  C
  C128     1.0000 0.65780  0.56000  0.73580  Biso   1.000  C
  H89      1.0000 0.13600  0.90000  0.20100  Biso   1.000  H
  H90      1.0000 0.63600  0.40000  0.20100  Biso   1.000  H
  H91      1.0000 0.86400  0.90000  0.29900  Biso   1.000  H
  H92      1.0000 0.36400  0.40000  0.29900  Biso   1.000  H
  H93      1.0000 0.86400  0.10000  0.79900  Biso   1.000  H
  H94      1.0000 0.36400  0.60000  0.79900  Biso   1.000  H
  H95      1.0000 0.13600  0.10000  0.70100  Biso   1.000  H
  H96      1.0000 0.63600  0.60000  0.70100  Biso   1.000  H
  H97      1.0000 0.94700  0.45100  0.21500  Biso   1.000  H
  H98      1.0000 0.44700  0.95100  0.21500  Biso   1.000  H
  H99      1.0000 0.05300  0.45100  0.28500  Biso   1.000  H
  H100     1.0000 0.55300  0.95100  0.28500  Biso   1.000  H
  H101     1.0000 0.05300  0.54900  0.78500  Biso   1.000  H
  H102     1.0000 0.55300  0.04900  0.78500  Biso   1.000  H
  H103     1.0000 0.94700  0.54900  0.71500  Biso   1.000  H
  H104     1.0000 0.44700  0.04900  0.71500  Biso   1.000  H
  H105     1.0000 0.18500  0.88100  0.25400  Biso   1.000  H
  H106     1.0000 0.68500  0.38100  0.25400  Biso   1.000  H
  H107     1.0000 0.81500  0.88100  0.24600  Biso   1.000  H
  H108     1.0000 0.31500  0.38100  0.24600  Biso   1.000  H
  H109     1.0000 0.81500  0.11900  0.74600  Biso   1.000  H
  H110     1.0000 0.31500  0.61900  0.74600  Biso   1.000  H
  H111     1.0000 0.18500  0.11900  0.75400  Biso   1.000  H
  H112     1.0000 0.68500  0.61900  0.75400  Biso   1.000  H
  N9       1.0000 0.19540  0.03250  0.17980  Biso   1.000  N
  N10      1.0000 0.69540  0.53250  0.17980  Biso   1.000  N
  N11      1.0000 0.80460  0.03250  0.32020  Biso   1.000  N
  N12      1.0000 0.30460  0.53250  0.32020  Biso   1.000  N
  N13      1.0000 0.80460  0.96750  0.82020  Biso   1.000  N
  N14      1.0000 0.30460  0.46750  0.82020  Biso   1.000  N
  N15      1.0000 0.19540  0.96750  0.67980  Biso   1.000  N
  N16      1.0000 0.69540  0.46750  0.67980  Biso   1.000  N
  O41      1.0000 0.24010  0.98120  0.20300  Biso   1.000  O
  O42      1.0000 0.74010  0.48120  0.20300  Biso   1.000  O
  O43      1.0000 0.75990  0.98120  0.29700  Biso   1.000  O
  O44      1.0000 0.25990  0.48120  0.29700  Biso   1.000  O
  O45      1.0000 0.75990  0.01880  0.79700  Biso   1.000  O
  O46      1.0000 0.25990  0.51880  0.79700  Biso   1.000  O
  O47      1.0000 0.24010  0.01880  0.70300  Biso   1.000  O
  O48      1.0000 0.74010  0.51880  0.70300  Biso   1.000  O
  C129     1.0000 0.15760  0.04120  0.11660  Biso   1.000  C
  C130     1.0000 0.65760  0.54120  0.11660  Biso   1.000  C
  C131     1.0000 0.84240  0.04120  0.38340  Biso   1.000  C
  C132     1.0000 0.34240  0.54120  0.38340  Biso   1.000  C
  C133     1.0000 0.84240  0.95880  0.88340  Biso   1.000  C
  C134     1.0000 0.34240  0.45880  0.88340  Biso   1.000  C
  C135     1.0000 0.15760  0.95880  0.61660  Biso   1.000  C
  C136     1.0000 0.65760  0.45880  0.61660  Biso   1.000  C
  C137     1.0000 0.16100  0.99250  0.06590  Biso   1.000  C
  C138     1.0000 0.66100  0.49250  0.06590  Biso   1.000  C
  C139     1.0000 0.83900  0.99250  0.43410  Biso   1.000  C
  C140     1.0000 0.33900  0.49250  0.43410  Biso   1.000  C
  C141     1.0000 0.83900  0.00750  0.93410  Biso   1.000  C
  C142     1.0000 0.33900  0.50750  0.93410  Biso   1.000  C
  C143     1.0000 0.16100  0.00750  0.56590  Biso   1.000  C
  C144     1.0000 0.66100  0.50750  0.56590  Biso   1.000  C
  C145     1.0000 0.20050  0.91270  0.07030  Biso   1.000  C
  C146     1.0000 0.70050  0.41270  0.07030  Biso   1.000  C
  C147     1.0000 0.79950  0.91270  0.42970  Biso   1.000  C
  C148     1.0000 0.29950  0.41270  0.42970  Biso   1.000  C
  C149     1.0000 0.79950  0.08730  0.92970  Biso   1.000  C
  C150     1.0000 0.29950  0.58730  0.92970  Biso   1.000  C
  C151     1.0000 0.20050  0.08730  0.57030  Biso   1.000  C
  C152     1.0000 0.70050  0.58730  0.57030  Biso   1.000  C
  H113     1.0000 0.23050  0.88100  0.10300  Biso   1.000  H
  H114     1.0000 0.73050  0.38100  0.10300  Biso   1.000  H
  H115     1.0000 0.76950  0.88100  0.39700  Biso   1.000  H
  H116     1.0000 0.26950  0.38100  0.39700  Biso   1.000  H
  H117     1.0000 0.76950  0.11900  0.89700  Biso   1.000  H
  H118     1.0000 0.26950  0.61900  0.89700  Biso   1.000  H
  H119     1.0000 0.23050  0.11900  0.60300  Biso   1.000  H
  H120     1.0000 0.73050  0.61900  0.60300  Biso   1.000  H
  N17      1.0000 0.19190  0.88810  0.01310  Biso   1.000  N
  N18      1.0000 0.69190  0.38810  0.01310  Biso   1.000  N
  N19      1.0000 0.80810  0.88810  0.48690  Biso   1.000  N
  N20      1.0000 0.30810  0.38810  0.48690  Biso   1.000  N
  N21      1.0000 0.80810  0.11190  0.98690  Biso   1.000  N
  N22      1.0000 0.30810  0.61190  0.98690  Biso   1.000  N
  N23      1.0000 0.19190  0.11190  0.51310  Biso   1.000  N
  N24      1.0000 0.69190  0.61190  0.51310  Biso   1.000  N
  N25      1.0000 0.14530  0.95670  0.97140  Biso   1.000  N
  N26      1.0000 0.64530  0.45670  0.97140  Biso   1.000  N
  N27      1.0000 0.85470  0.95670  0.52860  Biso   1.000  N
  N28      1.0000 0.35470  0.45670  0.52860  Biso   1.000  N
  N29      1.0000 0.85470  0.04330  0.02860  Biso   1.000  N
  N30      1.0000 0.35470  0.54330  0.02860  Biso   1.000  N
  N31      1.0000 0.14530  0.04330  0.47140  Biso   1.000  N
  N32      1.0000 0.64530  0.54330  0.47140  Biso   1.000  N
  C153     1.0000 0.12430  0.95770  0.90350  Biso   1.000  C
  C154     1.0000 0.62430  0.45770  0.90350  Biso   1.000  C
  C155     1.0000 0.87570  0.95770  0.59650  Biso   1.000  C
  C156     1.0000 0.37570  0.45770  0.59650  Biso   1.000  C
  C157     1.0000 0.87570  0.04230  0.09650  Biso   1.000  C
  C158     1.0000 0.37570  0.54230  0.09650  Biso   1.000  C
  C159     1.0000 0.12430  0.04230  0.40350  Biso   1.000  C
  C160     1.0000 0.62430  0.54230  0.40350  Biso   1.000  C
  H121     1.0000 0.13600  0.05600  0.88400  Biso   1.000  H
  H122     1.0000 0.63600  0.55600  0.88400  Biso   1.000  H
  H123     1.0000 0.86400  0.05600  0.61600  Biso   1.000  H
  H124     1.0000 0.36400  0.55600  0.61600  Biso   1.000  H
  H125     1.0000 0.86400  0.94400  0.11600  Biso   1.000  H
  H126     1.0000 0.36400  0.44400  0.11600  Biso   1.000  H
  H127     1.0000 0.13600  0.94400  0.38400  Biso   1.000  H
  H128     1.0000 0.63600  0.44400  0.38400  Biso   1.000  H
  H129     1.0000 0.14800  0.92700  0.89300  Biso   1.000  H
  H130     1.0000 0.64800  0.42700  0.89300  Biso   1.000  H
  H131     1.0000 0.85200  0.92700  0.60700  Biso   1.000  H
  H132     1.0000 0.35200  0.42700  0.60700  Biso   1.000  H
  H133     1.0000 0.85200  0.07300  0.10700  Biso   1.000  H
  H134     1.0000 0.35200  0.57300  0.10700  Biso   1.000  H
  H135     1.0000 0.14800  0.07300  0.39300  Biso   1.000  H
  H136     1.0000 0.64800  0.57300  0.39300  Biso   1.000  H
  C161     1.0000 0.07290  0.90700  0.86620  Biso   1.000  C
  C162     1.0000 0.57290  0.40700  0.86620  Biso   1.000  C
  C163     1.0000 0.92710  0.90700  0.63380  Biso   1.000  C
  C164     1.0000 0.42710  0.40700  0.63380  Biso   1.000  C
  C165     1.0000 0.92710  0.09300  0.13380  Biso   1.000  C
  C166     1.0000 0.42710  0.59300  0.13380  Biso   1.000  C
  C167     1.0000 0.07290  0.09300  0.36620  Biso   1.000  C
  C168     1.0000 0.57290  0.59300  0.36620  Biso   1.000  C
  H137     1.0000 0.06090  0.90980  0.82190  Biso   1.000  H
  H138     1.0000 0.56090  0.40980  0.82190  Biso   1.000  H
  H139     1.0000 0.93910  0.90980  0.67810  Biso   1.000  H
  H140     1.0000 0.43910  0.40980  0.67810  Biso   1.000  H
  H141     1.0000 0.93910  0.09020  0.17810  Biso   1.000  H
  H142     1.0000 0.43910  0.59020  0.17810  Biso   1.000  H
  H143     1.0000 0.06090  0.09020  0.32190  Biso   1.000  H
  H144     1.0000 0.56090  0.59020  0.32190  Biso   1.000  H
  H145     1.0000 0.05030  0.96470  0.87240  Biso   1.000  H
  H146     1.0000 0.55030  0.46470  0.87240  Biso   1.000  H
  H147     1.0000 0.94970  0.96470  0.62760  Biso   1.000  H
  H148     1.0000 0.44970  0.46470  0.62760  Biso   1.000  H
  H149     1.0000 0.94970  0.03530  0.12760  Biso   1.000  H
  H150     1.0000 0.44970  0.53530  0.12760  Biso   1.000  H
  H151     1.0000 0.05030  0.03530  0.37240  Biso   1.000  H
  H152     1.0000 0.55030  0.53530  0.37240  Biso   1.000  H
  H153     1.0000 0.07200  0.81240  0.87830  Biso   1.000  H
  H154     1.0000 0.57200  0.31240  0.87830  Biso   1.000  H
  H155     1.0000 0.92800  0.81240  0.62170  Biso   1.000  H
  H156     1.0000 0.42800  0.31240  0.62170  Biso   1.000  H
  H157     1.0000 0.92800  0.18760  0.12170  Biso   1.000  H
  H158     1.0000 0.42800  0.68760  0.12170  Biso   1.000  H
  H159     1.0000 0.07200  0.18760  0.37830  Biso   1.000  H
  H160     1.0000 0.57200  0.68760  0.37830  Biso   1.000  H
  C169     1.0000 0.12620  0.01910  0.00120  Biso   1.000  C
  C170     1.0000 0.62620  0.51910  0.00120  Biso   1.000  C
  C171     1.0000 0.87380  0.01910  0.49880  Biso   1.000  C
  C172     1.0000 0.37380  0.51910  0.49880  Biso   1.000  C
  C173     1.0000 0.87380  0.98090  0.99880  Biso   1.000  C
  C174     1.0000 0.37380  0.48090  0.99880  Biso   1.000  C
  C175     1.0000 0.12620  0.98090  0.50120  Biso   1.000  C
  C176     1.0000 0.62620  0.48090  0.50120  Biso   1.000  C
  H161     1.0000 0.09300  0.07400  0.98100  Biso   1.000  H
  H162     1.0000 0.59300  0.57400  0.98100  Biso   1.000  H
  H163     1.0000 0.90700  0.07400  0.51900  Biso   1.000  H
  H164     1.0000 0.40700  0.57400  0.51900  Biso   1.000  H
  H165     1.0000 0.90700  0.92600  0.01900  Biso   1.000  H
  H166     1.0000 0.40700  0.42600  0.01900  Biso   1.000  H
  H167     1.0000 0.09300  0.92600  0.48100  Biso   1.000  H
  H168     1.0000 0.59300  0.42600  0.48100  Biso   1.000  H
