data_image0
_cell_length_a       30.307
_cell_length_b       9.5832
_cell_length_c       25.188
_cell_angle_alpha    90
_cell_angle_beta     124.183
_cell_angle_gamma    90

_symmetry_space_group_name_H-M    "P 1"
_symmetry_int_tables_number       1

loop_
  _symmetry_equiv_pos_as_xyz
  'x, y, z'

loop_
  _atom_site_label
  _atom_site_occupancy
  _atom_site_fract_x
  _atom_site_fract_y
  _atom_site_fract_z
  _atom_site_thermal_displace_type
  _atom_site_B_iso_or_equiv
  _atom_site_type_symbol
  Mn1      1.0000 0.00000  0.00000  0.00000  Biso   1.000  Mn
  Mn2      1.0000 0.50000  0.50000  0.00000  Biso   1.000  Mn
  Mn3      1.0000 0.00000  0.00000  0.50000  Biso   1.000  Mn
  Mn4      1.0000 0.50000  0.50000  0.50000  Biso   1.000  Mn
  O1       1.0000 0.99304  0.11020  0.92241  Biso   1.000  O
  O2       1.0000 0.49304  0.61020  0.92241  Biso   1.000  O
  O3       1.0000 0.00696  0.11020  0.57759  Biso   1.000  O
  O4       1.0000 0.50696  0.61020  0.57759  Biso   1.000  O
  O5       1.0000 0.00696  0.88980  0.07759  Biso   1.000  O
  O6       1.0000 0.50696  0.38980  0.07759  Biso   1.000  O
  O7       1.0000 0.99304  0.88980  0.42241  Biso   1.000  O
  O8       1.0000 0.49304  0.38980  0.42241  Biso   1.000  O
  C1       1.0000 0.98750  0.28540  0.85530  Biso   1.000  C
  C2       1.0000 0.48750  0.78540  0.85530  Biso   1.000  C
  C3       1.0000 0.01250  0.28540  0.64470  Biso   1.000  C
  C4       1.0000 0.51250  0.78540  0.64470  Biso   1.000  C
  C5       1.0000 0.01250  0.71460  0.14470  Biso   1.000  C
  C6       1.0000 0.51250  0.21460  0.14470  Biso   1.000  C
  C7       1.0000 0.98750  0.71460  0.35530  Biso   1.000  C
  C8       1.0000 0.48750  0.21460  0.35530  Biso   1.000  C
  F1       1.0000 0.95950  0.40900  0.82710  Biso   1.000  F
  F2       1.0000 0.45950  0.90900  0.82710  Biso   1.000  F
  F3       1.0000 0.04050  0.40900  0.67290  Biso   1.000  F
  F4       1.0000 0.54050  0.90900  0.67290  Biso   1.000  F
  F5       1.0000 0.04050  0.59100  0.17290  Biso   1.000  F
  F6       1.0000 0.54050  0.09100  0.17290  Biso   1.000  F
  F7       1.0000 0.95950  0.59100  0.32710  Biso   1.000  F
  F8       1.0000 0.45950  0.09100  0.32710  Biso   1.000  F
  F9       1.0000 0.96310  0.21200  0.80790  Biso   1.000  F
  F10      1.0000 0.46310  0.71200  0.80790  Biso   1.000  F
  F11      1.0000 0.03690  0.21200  0.69210  Biso   1.000  F
  F12      1.0000 0.53690  0.71200  0.69210  Biso   1.000  F
  F13      1.0000 0.03690  0.78800  0.19210  Biso   1.000  F
  F14      1.0000 0.53690  0.28800  0.19210  Biso   1.000  F
  F15      1.0000 0.96310  0.78800  0.30790  Biso   1.000  F
  F16      1.0000 0.46310  0.28800  0.30790  Biso   1.000  F
  F17      1.0000 0.03900  0.31400  0.88300  Biso   1.000  F
  F18      1.0000 0.53900  0.81400  0.88300  Biso   1.000  F
  F19      1.0000 0.96100  0.31400  0.61700  Biso   1.000  F
  F20      1.0000 0.46100  0.81400  0.61700  Biso   1.000  F
  F21      1.0000 0.96100  0.68600  0.11700  Biso   1.000  F
  F22      1.0000 0.46100  0.18600  0.11700  Biso   1.000  F
  F23      1.0000 0.03900  0.68600  0.38300  Biso   1.000  F
  F24      1.0000 0.53900  0.18600  0.38300  Biso   1.000  F
  F25      1.0000 0.97120  0.20100  0.80510  Biso   1.000  F
  F26      1.0000 0.47120  0.70100  0.80510  Biso   1.000  F
  F27      1.0000 0.02880  0.20100  0.69490  Biso   1.000  F
  F28      1.0000 0.52880  0.70100  0.69490  Biso   1.000  F
  F29      1.0000 0.02880  0.79900  0.19490  Biso   1.000  F
  F30      1.0000 0.52880  0.29900  0.19490  Biso   1.000  F
  F31      1.0000 0.97120  0.79900  0.30510  Biso   1.000  F
  F32      1.0000 0.47120  0.29900  0.30510  Biso   1.000  F
  F33      1.0000 0.03800  0.27200  0.87700  Biso   1.000  F
  F34      1.0000 0.53800  0.77200  0.87700  Biso   1.000  F
  F35      1.0000 0.96200  0.27200  0.62300  Biso   1.000  F
  F36      1.0000 0.46200  0.77200  0.62300  Biso   1.000  F
  F37      1.0000 0.96200  0.72800  0.12300  Biso   1.000  F
  F38      1.0000 0.46200  0.22800  0.12300  Biso   1.000  F
  F39      1.0000 0.03800  0.72800  0.37700  Biso   1.000  F
  F40      1.0000 0.53800  0.22800  0.37700  Biso   1.000  F
  F41      1.0000 0.98160  0.41400  0.84680  Biso   1.000  F
  F42      1.0000 0.48160  0.91400  0.84680  Biso   1.000  F
  F43      1.0000 0.01840  0.41400  0.65320  Biso   1.000  F
  F44      1.0000 0.51840  0.91400  0.65320  Biso   1.000  F
  F45      1.0000 0.01840  0.58600  0.15320  Biso   1.000  F
  F46      1.0000 0.51840  0.08600  0.15320  Biso   1.000  F
  F47      1.0000 0.98160  0.58600  0.34680  Biso   1.000  F
  F48      1.0000 0.48160  0.08600  0.34680  Biso   1.000  F
  C9       1.0000 0.97800  0.23050  0.90530  Biso   1.000  C
  C10      1.0000 0.47800  0.73050  0.90530  Biso   1.000  C
  C11      1.0000 0.02200  0.23050  0.59470  Biso   1.000  C
  C12      1.0000 0.52200  0.73050  0.59470  Biso   1.000  C
  C13      1.0000 0.02200  0.76950  0.09470  Biso   1.000  C
  C14      1.0000 0.52200  0.26950  0.09470  Biso   1.000  C
  C15      1.0000 0.97800  0.76950  0.40530  Biso   1.000  C
  C16      1.0000 0.47800  0.26950  0.40530  Biso   1.000  C
  C17      1.0000 0.95420  0.31720  0.92700  Biso   1.000  C
  C18      1.0000 0.45420  0.81720  0.92700  Biso   1.000  C
  C19      1.0000 0.04580  0.31720  0.57300  Biso   1.000  C
  C20      1.0000 0.54580  0.81720  0.57300  Biso   1.000  C
  C21      1.0000 0.04580  0.68280  0.07300  Biso   1.000  C
  C22      1.0000 0.54580  0.18280  0.07300  Biso   1.000  C
  C23      1.0000 0.95420  0.68280  0.42700  Biso   1.000  C
  C24      1.0000 0.45420  0.18280  0.42700  Biso   1.000  C
  H1       1.0000 0.94700  0.41000  0.90600  Biso   1.000  H
  H2       1.0000 0.44700  0.91000  0.90600  Biso   1.000  H
  H3       1.0000 0.05300  0.41000  0.59400  Biso   1.000  H
  H4       1.0000 0.55300  0.91000  0.59400  Biso   1.000  H
  H5       1.0000 0.05300  0.59000  0.09400  Biso   1.000  H
  H6       1.0000 0.55300  0.09000  0.09400  Biso   1.000  H
  H7       1.0000 0.94700  0.59000  0.40600  Biso   1.000  H
  H8       1.0000 0.44700  0.09000  0.40600  Biso   1.000  H
  C25      1.0000 0.94550  0.28010  0.97260  Biso   1.000  C
  C26      1.0000 0.44550  0.78010  0.97260  Biso   1.000  C
  C27      1.0000 0.05450  0.28010  0.52740  Biso   1.000  C
  C28      1.0000 0.55450  0.78010  0.52740  Biso   1.000  C
  C29      1.0000 0.05450  0.71990  0.02740  Biso   1.000  C
  C30      1.0000 0.55450  0.21990  0.02740  Biso   1.000  C
  C31      1.0000 0.94550  0.71990  0.47260  Biso   1.000  C
  C32      1.0000 0.44550  0.21990  0.47260  Biso   1.000  C
  C33      1.0000 0.91860  0.38580  0.99170  Biso   1.000  C
  C34      1.0000 0.41860  0.88580  0.99170  Biso   1.000  C
  C35      1.0000 0.08140  0.38580  0.50830  Biso   1.000  C
  C36      1.0000 0.58140  0.88580  0.50830  Biso   1.000  C
  C37      1.0000 0.08140  0.61420  0.00830  Biso   1.000  C
  C38      1.0000 0.58140  0.11420  0.00830  Biso   1.000  C
  C39      1.0000 0.91860  0.61420  0.49170  Biso   1.000  C
  C40      1.0000 0.41860  0.11420  0.49170  Biso   1.000  C
  F49      1.0000 0.88130  0.34600  0.98900  Biso   1.000  F
  F50      1.0000 0.38130  0.84600  0.98900  Biso   1.000  F
  F51      1.0000 0.11870  0.34600  0.51100  Biso   1.000  F
  F52      1.0000 0.61870  0.84600  0.51100  Biso   1.000  F
  F53      1.0000 0.11870  0.65400  0.01100  Biso   1.000  F
  F54      1.0000 0.61870  0.15400  0.01100  Biso   1.000  F
  F55      1.0000 0.88130  0.65400  0.48900  Biso   1.000  F
  F56      1.0000 0.38130  0.15400  0.48900  Biso   1.000  F
  F57      1.0000 0.91240  0.35300  0.03290  Biso   1.000  F
  F58      1.0000 0.41240  0.85300  0.03290  Biso   1.000  F
  F59      1.0000 0.08760  0.35300  0.46710  Biso   1.000  F
  F60      1.0000 0.58760  0.85300  0.46710  Biso   1.000  F
  F61      1.0000 0.08760  0.64700  0.96710  Biso   1.000  F
  F62      1.0000 0.58760  0.14700  0.96710  Biso   1.000  F
  F63      1.0000 0.91240  0.64700  0.53290  Biso   1.000  F
  F64      1.0000 0.41240  0.14700  0.53290  Biso   1.000  F
  F65      1.0000 0.92260  0.51600  0.97860  Biso   1.000  F
  F66      1.0000 0.42260  0.01600  0.97860  Biso   1.000  F
  F67      1.0000 0.07740  0.51600  0.52140  Biso   1.000  F
  F68      1.0000 0.57740  0.01600  0.52140  Biso   1.000  F
  F69      1.0000 0.07740  0.48400  0.02140  Biso   1.000  F
  F70      1.0000 0.57740  0.98400  0.02140  Biso   1.000  F
  F71      1.0000 0.92260  0.48400  0.47860  Biso   1.000  F
  F72      1.0000 0.42260  0.98400  0.47860  Biso   1.000  F
  F73      1.0000 0.86110  0.38150  0.93140  Biso   1.000  F
  F74      1.0000 0.36110  0.88150  0.93140  Biso   1.000  F
  F75      1.0000 0.13890  0.38150  0.56860  Biso   1.000  F
  F76      1.0000 0.63890  0.88150  0.56860  Biso   1.000  F
  F77      1.0000 0.13890  0.61850  0.06860  Biso   1.000  F
  F78      1.0000 0.63890  0.11850  0.06860  Biso   1.000  F
  F79      1.0000 0.86110  0.61850  0.43140  Biso   1.000  F
  F80      1.0000 0.36110  0.11850  0.43140  Biso   1.000  F
  F81      1.0000 0.92860  0.50900  0.98980  Biso   1.000  F
  F82      1.0000 0.42860  0.00900  0.98980  Biso   1.000  F
  F83      1.0000 0.07140  0.50900  0.51020  Biso   1.000  F
  F84      1.0000 0.57140  0.00900  0.51020  Biso   1.000  F
  F85      1.0000 0.07140  0.49100  0.01020  Biso   1.000  F
  F86      1.0000 0.57140  0.99100  0.01020  Biso   1.000  F
  F87      1.0000 0.92860  0.49100  0.48980  Biso   1.000  F
  F88      1.0000 0.42860  0.99100  0.48980  Biso   1.000  F
  F89      1.0000 0.95690  0.39920  0.06710  Biso   1.000  F
  F90      1.0000 0.45690  0.89920  0.06710  Biso   1.000  F
  F91      1.0000 0.04310  0.39920  0.43290  Biso   1.000  F
  F92      1.0000 0.54310  0.89920  0.43290  Biso   1.000  F
  F93      1.0000 0.04310  0.60080  0.93290  Biso   1.000  F
  F94      1.0000 0.54310  0.10080  0.93290  Biso   1.000  F
  F95      1.0000 0.95690  0.60080  0.56710  Biso   1.000  F
  F96      1.0000 0.45690  0.10080  0.56710  Biso   1.000  F
  O9       1.0000 0.95689  0.16860  0.00259  Biso   1.000  O
  O10      1.0000 0.45689  0.66860  0.00259  Biso   1.000  O
  O11      1.0000 0.04311  0.16860  0.49741  Biso   1.000  O
  O12      1.0000 0.54311  0.66860  0.49741  Biso   1.000  O
  O13      1.0000 0.04311  0.83140  0.99741  Biso   1.000  O
  O14      1.0000 0.54311  0.33140  0.99741  Biso   1.000  O
  O15      1.0000 0.95689  0.83140  0.50259  Biso   1.000  O
  O16      1.0000 0.45689  0.33140  0.50259  Biso   1.000  O
  Cu1      1.0000 0.25000  0.75000  0.00000  Biso   1.000  Cu
  Cu2      1.0000 0.75000  0.25000  0.00000  Biso   1.000  Cu
  Cu3      1.0000 0.75000  0.75000  0.50000  Biso   1.000  Cu
  Cu4      1.0000 0.25000  0.25000  0.50000  Biso   1.000  Cu
  O17      1.0000 0.25612  0.91410  0.95549  Biso   1.000  O
  O18      1.0000 0.75612  0.41410  0.95549  Biso   1.000  O
  O19      1.0000 0.74388  0.91410  0.54451  Biso   1.000  O
  O20      1.0000 0.24388  0.41410  0.54451  Biso   1.000  O
  O21      1.0000 0.74388  0.08590  0.04451  Biso   1.000  O
  O22      1.0000 0.24388  0.58590  0.04451  Biso   1.000  O
  O23      1.0000 0.25612  0.08590  0.45549  Biso   1.000  O
  O24      1.0000 0.75612  0.58590  0.45549  Biso   1.000  O
  C41      1.0000 0.27300  0.14150  0.93850  Biso   1.000  C
  C42      1.0000 0.77300  0.64150  0.93850  Biso   1.000  C
  C43      1.0000 0.72700  0.14150  0.56150  Biso   1.000  C
  C44      1.0000 0.22700  0.64150  0.56150  Biso   1.000  C
  C45      1.0000 0.72700  0.85850  0.06150  Biso   1.000  C
  C46      1.0000 0.22700  0.35850  0.06150  Biso   1.000  C
  C47      1.0000 0.27300  0.85850  0.43850  Biso   1.000  C
  C48      1.0000 0.77300  0.35850  0.43850  Biso   1.000  C
  F97      1.0000 0.28530  0.10700  0.89970  Biso   1.000  F
  F98      1.0000 0.78530  0.60700  0.89970  Biso   1.000  F
  F99      1.0000 0.71470  0.10700  0.60030  Biso   1.000  F
  F100     1.0000 0.21470  0.60700  0.60030  Biso   1.000  F
  F101     1.0000 0.71470  0.89300  0.10030  Biso   1.000  F
  F102     1.0000 0.21470  0.39300  0.10030  Biso   1.000  F
  F103     1.0000 0.28530  0.89300  0.39970  Biso   1.000  F
  F104     1.0000 0.78530  0.39300  0.39970  Biso   1.000  F
  F105     1.0000 0.21960  0.16050  0.89830  Biso   1.000  F
  F106     1.0000 0.71960  0.66050  0.89830  Biso   1.000  F
  F107     1.0000 0.78040  0.16050  0.60170  Biso   1.000  F
  F108     1.0000 0.28040  0.66050  0.60170  Biso   1.000  F
  F109     1.0000 0.78040  0.83950  0.10170  Biso   1.000  F
  F110     1.0000 0.28040  0.33950  0.10170  Biso   1.000  F
  F111     1.0000 0.21960  0.83950  0.39830  Biso   1.000  F
  F112     1.0000 0.71960  0.33950  0.39830  Biso   1.000  F
  F113     1.0000 0.29270  0.25270  0.96670  Biso   1.000  F
  F114     1.0000 0.79270  0.75270  0.96670  Biso   1.000  F
  F115     1.0000 0.70730  0.25270  0.53330  Biso   1.000  F
  F116     1.0000 0.20730  0.75270  0.53330  Biso   1.000  F
  F117     1.0000 0.70730  0.74730  0.03330  Biso   1.000  F
  F118     1.0000 0.20730  0.24730  0.03330  Biso   1.000  F
  F119     1.0000 0.29270  0.74730  0.46670  Biso   1.000  F
  F120     1.0000 0.79270  0.24730  0.46670  Biso   1.000  F
  F121     1.0000 0.31300  0.15200  0.93130  Biso   1.000  F
  F122     1.0000 0.81300  0.65200  0.93130  Biso   1.000  F
  F123     1.0000 0.68700  0.15200  0.56870  Biso   1.000  F
  F124     1.0000 0.18700  0.65200  0.56870  Biso   1.000  F
  F125     1.0000 0.68700  0.84800  0.06870  Biso   1.000  F
  F126     1.0000 0.18700  0.34800  0.06870  Biso   1.000  F
  F127     1.0000 0.31300  0.84800  0.43130  Biso   1.000  F
  F128     1.0000 0.81300  0.34800  0.43130  Biso   1.000  F
  F129     1.0000 0.22910  0.13900  0.88770  Biso   1.000  F
  F130     1.0000 0.72910  0.63900  0.88770  Biso   1.000  F
  F131     1.0000 0.77090  0.13900  0.61230  Biso   1.000  F
  F132     1.0000 0.27090  0.63900  0.61230  Biso   1.000  F
  F133     1.0000 0.77090  0.86100  0.11230  Biso   1.000  F
  F134     1.0000 0.27090  0.36100  0.11230  Biso   1.000  F
  F135     1.0000 0.22910  0.86100  0.38770  Biso   1.000  F
  F136     1.0000 0.72910  0.36100  0.38770  Biso   1.000  F
  F137     1.0000 0.27680  0.26230  0.96380  Biso   1.000  F
  F138     1.0000 0.77680  0.76230  0.96380  Biso   1.000  F
  F139     1.0000 0.72320  0.26230  0.53620  Biso   1.000  F
  F140     1.0000 0.22320  0.76230  0.53620  Biso   1.000  F
  F141     1.0000 0.72320  0.73770  0.03620  Biso   1.000  F
  F142     1.0000 0.22320  0.23770  0.03620  Biso   1.000  F
  F143     1.0000 0.27680  0.73770  0.46380  Biso   1.000  F
  F144     1.0000 0.77680  0.23770  0.46380  Biso   1.000  F
  C49      1.0000 0.28290  0.01950  0.98370  Biso   1.000  C
  C50      1.0000 0.78290  0.51950  0.98370  Biso   1.000  C
  C51      1.0000 0.71710  0.01950  0.51630  Biso   1.000  C
  C52      1.0000 0.21710  0.51950  0.51630  Biso   1.000  C
  C53      1.0000 0.71710  0.98050  0.01630  Biso   1.000  C
  C54      1.0000 0.21710  0.48050  0.01630  Biso   1.000  C
  C55      1.0000 0.28290  0.98050  0.48370  Biso   1.000  C
  C56      1.0000 0.78290  0.48050  0.48370  Biso   1.000  C
  C57      1.0000 0.31890  0.03910  0.04900  Biso   1.000  C
  C58      1.0000 0.81890  0.53910  0.04900  Biso   1.000  C
  C59      1.0000 0.68110  0.03910  0.45100  Biso   1.000  C
  C60      1.0000 0.18110  0.53910  0.45100  Biso   1.000  C
  C61      1.0000 0.68110  0.96090  0.95100  Biso   1.000  C
  C62      1.0000 0.18110  0.46090  0.95100  Biso   1.000  C
  C63      1.0000 0.31890  0.96090  0.54900  Biso   1.000  C
  C64      1.0000 0.81890  0.46090  0.54900  Biso   1.000  C
  H9       1.0000 0.33330  0.10800  0.05900  Biso   1.000  H
  H10      1.0000 0.83330  0.60800  0.05900  Biso   1.000  H
  H11      1.0000 0.66670  0.10800  0.44100  Biso   1.000  H
  H12      1.0000 0.16670  0.60800  0.44100  Biso   1.000  H
  H13      1.0000 0.66670  0.89200  0.94100  Biso   1.000  H
  H14      1.0000 0.16670  0.39200  0.94100  Biso   1.000  H
  H15      1.0000 0.33330  0.89200  0.55900  Biso   1.000  H
  H16      1.0000 0.83330  0.39200  0.55900  Biso   1.000  H
  C65      1.0000 0.32920  0.94170  0.09390  Biso   1.000  C
  C66      1.0000 0.82920  0.44170  0.09390  Biso   1.000  C
  C67      1.0000 0.67080  0.94170  0.40610  Biso   1.000  C
  C68      1.0000 0.17080  0.44170  0.40610  Biso   1.000  C
  C69      1.0000 0.67080  0.05830  0.90610  Biso   1.000  C
  C70      1.0000 0.17080  0.55830  0.90610  Biso   1.000  C
  C71      1.0000 0.32920  0.05830  0.59390  Biso   1.000  C
  C72      1.0000 0.82920  0.55830  0.59390  Biso   1.000  C
  C73      1.0000 0.36960  0.97800  0.16420  Biso   1.000  C
  C74      1.0000 0.86960  0.47800  0.16420  Biso   1.000  C
  C75      1.0000 0.63040  0.97800  0.33580  Biso   1.000  C
  C76      1.0000 0.13040  0.47800  0.33580  Biso   1.000  C
  C77      1.0000 0.63040  0.02200  0.83580  Biso   1.000  C
  C78      1.0000 0.13040  0.52200  0.83580  Biso   1.000  C
  C79      1.0000 0.36960  0.02200  0.66420  Biso   1.000  C
  C80      1.0000 0.86960  0.52200  0.66420  Biso   1.000  C
  F145     1.0000 0.39550  0.09200  0.17400  Biso   1.000  F
  F146     1.0000 0.89550  0.59200  0.17400  Biso   1.000  F
  F147     1.0000 0.60450  0.09200  0.32600  Biso   1.000  F
  F148     1.0000 0.10450  0.59200  0.32600  Biso   1.000  F
  F149     1.0000 0.60450  0.90800  0.82600  Biso   1.000  F
  F150     1.0000 0.10450  0.40800  0.82600  Biso   1.000  F
  F151     1.0000 0.39550  0.90800  0.67400  Biso   1.000  F
  F152     1.0000 0.89550  0.40800  0.67400  Biso   1.000  F
  F153     1.0000 0.34300  0.99700  0.19200  Biso   1.000  F
  F154     1.0000 0.84300  0.49700  0.19200  Biso   1.000  F
  F155     1.0000 0.65700  0.99700  0.30800  Biso   1.000  F
  F156     1.0000 0.15700  0.49700  0.30800  Biso   1.000  F
  F157     1.0000 0.65700  0.00300  0.80800  Biso   1.000  F
  F158     1.0000 0.15700  0.50300  0.80800  Biso   1.000  F
  F159     1.0000 0.34300  0.00300  0.69200  Biso   1.000  F
  F160     1.0000 0.84300  0.50300  0.69200  Biso   1.000  F
  F161     1.0000 0.40330  0.87700  0.19490  Biso   1.000  F
  F162     1.0000 0.90330  0.37700  0.19490  Biso   1.000  F
  F163     1.0000 0.59670  0.87700  0.30510  Biso   1.000  F
  F164     1.0000 0.09670  0.37700  0.30510  Biso   1.000  F
  F165     1.0000 0.59670  0.12300  0.80510  Biso   1.000  F
  F166     1.0000 0.09670  0.62300  0.80510  Biso   1.000  F
  F167     1.0000 0.40330  0.12300  0.69490  Biso   1.000  F
  F168     1.0000 0.90330  0.62300  0.69490  Biso   1.000  F
  F169     1.0000 0.41720  0.97700  0.17670  Biso   1.000  F
  F170     1.0000 0.91720  0.47700  0.17670  Biso   1.000  F
  F171     1.0000 0.58280  0.97700  0.32330  Biso   1.000  F
  F172     1.0000 0.08280  0.47700  0.32330  Biso   1.000  F
  F173     1.0000 0.58280  0.02300  0.82330  Biso   1.000  F
  F174     1.0000 0.08280  0.52300  0.82330  Biso   1.000  F
  F175     1.0000 0.41720  0.02300  0.67670  Biso   1.000  F
  F176     1.0000 0.91720  0.52300  0.67670  Biso   1.000  F
  F177     1.0000 0.36500  0.09600  0.17890  Biso   1.000  F
  F178     1.0000 0.86500  0.59600  0.17890  Biso   1.000  F
  F179     1.0000 0.63500  0.09600  0.32110  Biso   1.000  F
  F180     1.0000 0.13500  0.59600  0.32110  Biso   1.000  F
  F181     1.0000 0.63500  0.90400  0.82110  Biso   1.000  F
  F182     1.0000 0.13500  0.40400  0.82110  Biso   1.000  F
  F183     1.0000 0.36500  0.90400  0.67890  Biso   1.000  F
  F184     1.0000 0.86500  0.40400  0.67890  Biso   1.000  F
  F185     1.0000 0.37400  0.90200  0.20370  Biso   1.000  F
  F186     1.0000 0.87400  0.40200  0.20370  Biso   1.000  F
  F187     1.0000 0.62600  0.90200  0.29630  Biso   1.000  F
  F188     1.0000 0.12600  0.40200  0.29630  Biso   1.000  F
  F189     1.0000 0.62600  0.09800  0.79630  Biso   1.000  F
  F190     1.0000 0.12600  0.59800  0.79630  Biso   1.000  F
  F191     1.0000 0.37400  0.09800  0.70370  Biso   1.000  F
  F192     1.0000 0.87400  0.59800  0.70370  Biso   1.000  F
  O25      1.0000 0.30887  0.82360  0.08525  Biso   1.000  O
  O26      1.0000 0.80887  0.32360  0.08525  Biso   1.000  O
  O27      1.0000 0.69113  0.82360  0.41475  Biso   1.000  O
  O28      1.0000 0.19113  0.32360  0.41475  Biso   1.000  O
  O29      1.0000 0.69113  0.17640  0.91475  Biso   1.000  O
  O30      1.0000 0.19113  0.67640  0.91475  Biso   1.000  O
  O31      1.0000 0.30887  0.17640  0.58525  Biso   1.000  O
  O32      1.0000 0.80887  0.67640  0.58525  Biso   1.000  O
  O33      1.0000 0.07061  0.12950  0.05626  Biso   1.000  O
  O34      1.0000 0.57061  0.62950  0.05626  Biso   1.000  O
  O35      1.0000 0.92939  0.12950  0.44374  Biso   1.000  O
  O36      1.0000 0.42939  0.62950  0.44374  Biso   1.000  O
  O37      1.0000 0.92939  0.87050  0.94374  Biso   1.000  O
  O38      1.0000 0.42939  0.37050  0.94374  Biso   1.000  O
  O39      1.0000 0.07061  0.87050  0.55626  Biso   1.000  O
  O40      1.0000 0.57061  0.37050  0.55626  Biso   1.000  O
  N1       1.0000 0.11429  0.09920  0.11090  Biso   1.000  N
  N2       1.0000 0.61429  0.59920  0.11090  Biso   1.000  N
  N3       1.0000 0.88571  0.09920  0.38910  Biso   1.000  N
  N4       1.0000 0.38571  0.59920  0.38910  Biso   1.000  N
  N5       1.0000 0.88571  0.90080  0.88910  Biso   1.000  N
  N6       1.0000 0.38571  0.40080  0.88910  Biso   1.000  N
  N7       1.0000 0.11429  0.90080  0.61090  Biso   1.000  N
  N8       1.0000 0.61429  0.40080  0.61090  Biso   1.000  N
  C81      1.0000 0.12760  0.16050  0.17230  Biso   1.000  C
  C82      1.0000 0.62760  0.66050  0.17230  Biso   1.000  C
  C83      1.0000 0.87240  0.16050  0.32770  Biso   1.000  C
  C84      1.0000 0.37240  0.66050  0.32770  Biso   1.000  C
  C85      1.0000 0.87240  0.83950  0.82770  Biso   1.000  C
  C86      1.0000 0.37240  0.33950  0.82770  Biso   1.000  C
  C87      1.0000 0.12760  0.83950  0.67230  Biso   1.000  C
  C88      1.0000 0.62760  0.33950  0.67230  Biso   1.000  C
  C89      1.0000 0.07810  0.15570  0.17470  Biso   1.000  C
  C90      1.0000 0.57810  0.65570  0.17470  Biso   1.000  C
  C91      1.0000 0.92190  0.15570  0.32530  Biso   1.000  C
  C92      1.0000 0.42190  0.65570  0.32530  Biso   1.000  C
  C93      1.0000 0.92190  0.84430  0.82530  Biso   1.000  C
  C94      1.0000 0.42190  0.34430  0.82530  Biso   1.000  C
  C95      1.0000 0.07810  0.84430  0.67470  Biso   1.000  C
  C96      1.0000 0.57810  0.34430  0.67470  Biso   1.000  C
  H17      1.0000 0.06200  0.06600  0.17300  Biso   1.000  H
  H18      1.0000 0.56200  0.56600  0.17300  Biso   1.000  H
  H19      1.0000 0.93800  0.06600  0.32700  Biso   1.000  H
  H20      1.0000 0.43800  0.56600  0.32700  Biso   1.000  H
  H21      1.0000 0.93800  0.93400  0.82700  Biso   1.000  H
  H22      1.0000 0.43800  0.43400  0.82700  Biso   1.000  H
  H23      1.0000 0.06200  0.93400  0.67300  Biso   1.000  H
  H24      1.0000 0.56200  0.43400  0.67300  Biso   1.000  H
  H25      1.0000 0.93400  0.92700  0.18800  Biso   1.000  H
  H26      1.0000 0.43400  0.42700  0.18800  Biso   1.000  H
  H27      1.0000 0.06600  0.92700  0.31200  Biso   1.000  H
  H28      1.0000 0.56600  0.42700  0.31200  Biso   1.000  H
  H29      1.0000 0.06600  0.07300  0.81200  Biso   1.000  H
  H30      1.0000 0.56600  0.57300  0.81200  Biso   1.000  H
  H31      1.0000 0.93400  0.07300  0.68800  Biso   1.000  H
  H32      1.0000 0.43400  0.57300  0.68800  Biso   1.000  H
  H33      1.0000 0.08500  0.19000  0.20700  Biso   1.000  H
  H34      1.0000 0.58500  0.69000  0.20700  Biso   1.000  H
  H35      1.0000 0.91500  0.19000  0.29300  Biso   1.000  H
  H36      1.0000 0.41500  0.69000  0.29300  Biso   1.000  H
  H37      1.0000 0.91500  0.81000  0.79300  Biso   1.000  H
  H38      1.0000 0.41500  0.31000  0.79300  Biso   1.000  H
  H39      1.0000 0.08500  0.81000  0.70700  Biso   1.000  H
  H40      1.0000 0.58500  0.31000  0.70700  Biso   1.000  H
  C97      1.0000 0.14130  0.31300  0.17120  Biso   1.000  C
  C98      1.0000 0.64130  0.81300  0.17120  Biso   1.000  C
  C99      1.0000 0.85870  0.31300  0.32880  Biso   1.000  C
  C100     1.0000 0.35870  0.81300  0.32880  Biso   1.000  C
  C101     1.0000 0.85870  0.68700  0.82880  Biso   1.000  C
  C102     1.0000 0.35870  0.18700  0.82880  Biso   1.000  C
  C103     1.0000 0.14130  0.68700  0.67120  Biso   1.000  C
  C104     1.0000 0.64130  0.18700  0.67120  Biso   1.000  C
  H41      1.0000 0.16740  0.32300  0.16800  Biso   1.000  H
  H42      1.0000 0.66740  0.82300  0.16800  Biso   1.000  H
  H43      1.0000 0.83260  0.32300  0.33200  Biso   1.000  H
  H44      1.0000 0.33260  0.82300  0.33200  Biso   1.000  H
  H45      1.0000 0.83260  0.67700  0.83200  Biso   1.000  H
  H46      1.0000 0.33260  0.17700  0.83200  Biso   1.000  H
  H47      1.0000 0.16740  0.67700  0.66800  Biso   1.000  H
  H48      1.0000 0.66740  0.17700  0.66800  Biso   1.000  H
  H49      1.0000 0.14150  0.36200  0.20500  Biso   1.000  H
  H50      1.0000 0.64150  0.86200  0.20500  Biso   1.000  H
  H51      1.0000 0.85850  0.36200  0.29500  Biso   1.000  H
  H52      1.0000 0.35850  0.86200  0.29500  Biso   1.000  H
  H53      1.0000 0.85850  0.63800  0.79500  Biso   1.000  H
  H54      1.0000 0.35850  0.13800  0.79500  Biso   1.000  H
  H55      1.0000 0.14150  0.63800  0.70500  Biso   1.000  H
  H56      1.0000 0.64150  0.13800  0.70500  Biso   1.000  H
  H57      1.0000 0.88500  0.77000  0.13400  Biso   1.000  H
  H58      1.0000 0.38500  0.27000  0.13400  Biso   1.000  H
  H59      1.0000 0.11500  0.77000  0.36600  Biso   1.000  H
  H60      1.0000 0.61500  0.27000  0.36600  Biso   1.000  H
  H61      1.0000 0.11500  0.23000  0.86600  Biso   1.000  H
  H62      1.0000 0.61500  0.73000  0.86600  Biso   1.000  H
  H63      1.0000 0.88500  0.23000  0.63400  Biso   1.000  H
  H64      1.0000 0.38500  0.73000  0.63400  Biso   1.000  H
  C105     1.0000 0.17480  0.06780  0.22050  Biso   1.000  C
  C106     1.0000 0.67480  0.56780  0.22050  Biso   1.000  C
  C107     1.0000 0.82520  0.06780  0.27950  Biso   1.000  C
  C108     1.0000 0.32520  0.56780  0.27950  Biso   1.000  C
  C109     1.0000 0.82520  0.93220  0.77950  Biso   1.000  C
  C110     1.0000 0.32520  0.43220  0.77950  Biso   1.000  C
  C111     1.0000 0.17480  0.93220  0.72050  Biso   1.000  C
  C112     1.0000 0.67480  0.43220  0.72050  Biso   1.000  C
  C113     1.0000 0.21720  0.14150  0.28310  Biso   1.000  C
  C114     1.0000 0.71720  0.64150  0.28310  Biso   1.000  C
  C115     1.0000 0.78280  0.14150  0.21690  Biso   1.000  C
  C116     1.0000 0.28280  0.64150  0.21690  Biso   1.000  C
  C117     1.0000 0.78280  0.85850  0.71690  Biso   1.000  C
  C118     1.0000 0.28280  0.35850  0.71690  Biso   1.000  C
  C119     1.0000 0.21720  0.85850  0.78310  Biso   1.000  C
  C120     1.0000 0.71720  0.35850  0.78310  Biso   1.000  C
  H65      1.0000 0.22800  0.20700  0.27100  Biso   1.000  H
  H66      1.0000 0.72800  0.70700  0.27100  Biso   1.000  H
  H67      1.0000 0.77200  0.20700  0.22900  Biso   1.000  H
  H68      1.0000 0.27200  0.70700  0.22900  Biso   1.000  H
  H69      1.0000 0.77200  0.79300  0.72900  Biso   1.000  H
  H70      1.0000 0.27200  0.29300  0.72900  Biso   1.000  H
  H71      1.0000 0.22800  0.79300  0.77100  Biso   1.000  H
  H72      1.0000 0.72800  0.29300  0.77100  Biso   1.000  H
  H73      1.0000 0.24000  0.08900  0.30300  Biso   1.000  H
  H74      1.0000 0.74000  0.58900  0.30300  Biso   1.000  H
  H75      1.0000 0.76000  0.08900  0.19700  Biso   1.000  H
  H76      1.0000 0.26000  0.58900  0.19700  Biso   1.000  H
  H77      1.0000 0.76000  0.91100  0.69700  Biso   1.000  H
  H78      1.0000 0.26000  0.41100  0.69700  Biso   1.000  H
  H79      1.0000 0.24000  0.91100  0.80300  Biso   1.000  H
  H80      1.0000 0.74000  0.41100  0.80300  Biso   1.000  H
  H81      1.0000 0.02400  0.38000  0.27000  Biso   1.000  H
  H82      1.0000 0.52400  0.88000  0.27000  Biso   1.000  H
  H83      1.0000 0.97600  0.38000  0.23000  Biso   1.000  H
  H84      1.0000 0.47600  0.88000  0.23000  Biso   1.000  H
  H85      1.0000 0.97600  0.62000  0.73000  Biso   1.000  H
  H86      1.0000 0.47600  0.12000  0.73000  Biso   1.000  H
  H87      1.0000 0.02400  0.62000  0.77000  Biso   1.000  H
  H88      1.0000 0.52400  0.12000  0.77000  Biso   1.000  H
  C121     1.0000 0.15850  0.93410  0.23760  Biso   1.000  C
  C122     1.0000 0.65850  0.43410  0.23760  Biso   1.000  C
  C123     1.0000 0.84150  0.93410  0.26240  Biso   1.000  C
  C124     1.0000 0.34150  0.43410  0.26240  Biso   1.000  C
  C125     1.0000 0.84150  0.06590  0.76240  Biso   1.000  C
  C126     1.0000 0.34150  0.56590  0.76240  Biso   1.000  C
  C127     1.0000 0.15850  0.06590  0.73760  Biso   1.000  C
  C128     1.0000 0.65850  0.56590  0.73760  Biso   1.000  C
  H89      1.0000 0.13800  0.88100  0.20400  Biso   1.000  H
  H90      1.0000 0.63800  0.38100  0.20400  Biso   1.000  H
  H91      1.0000 0.86200  0.88100  0.29600  Biso   1.000  H
  H92      1.0000 0.36200  0.38100  0.29600  Biso   1.000  H
  H93      1.0000 0.86200  0.11900  0.79600  Biso   1.000  H
  H94      1.0000 0.36200  0.61900  0.79600  Biso   1.000  H
  H95      1.0000 0.13800  0.11900  0.70400  Biso   1.000  H
  H96      1.0000 0.63800  0.61900  0.70400  Biso   1.000  H
  H97      1.0000 0.90000  0.70000  0.10000  Biso   1.000  H
  H98      1.0000 0.40000  0.20000  0.10000  Biso   1.000  H
  H99      1.0000 0.10000  0.70000  0.40000  Biso   1.000  H
  H100     1.0000 0.60000  0.20000  0.40000  Biso   1.000  H
  H101     1.0000 0.10000  0.30000  0.90000  Biso   1.000  H
  H102     1.0000 0.60000  0.80000  0.90000  Biso   1.000  H
  H103     1.0000 0.90000  0.30000  0.60000  Biso   1.000  H
  H104     1.0000 0.40000  0.80000  0.60000  Biso   1.000  H
  H105     1.0000 0.18400  0.87900  0.25500  Biso   1.000  H
  H106     1.0000 0.68400  0.37900  0.25500  Biso   1.000  H
  H107     1.0000 0.81600  0.87900  0.24500  Biso   1.000  H
  H108     1.0000 0.31600  0.37900  0.24500  Biso   1.000  H
  H109     1.0000 0.81600  0.12100  0.74500  Biso   1.000  H
  H110     1.0000 0.31600  0.62100  0.74500  Biso   1.000  H
  H111     1.0000 0.18400  0.12100  0.75500  Biso   1.000  H
  H112     1.0000 0.68400  0.62100  0.75500  Biso   1.000  H
  N9       1.0000 0.19546  0.02990  0.18070  Biso   1.000  N
  N10      1.0000 0.69546  0.52990  0.18070  Biso   1.000  N
  N11      1.0000 0.80454  0.02990  0.31930  Biso   1.000  N
  N12      1.0000 0.30454  0.52990  0.31930  Biso   1.000  N
  N13      1.0000 0.80454  0.97010  0.81930  Biso   1.000  N
  N14      1.0000 0.30454  0.47010  0.81930  Biso   1.000  N
  N15      1.0000 0.19546  0.97010  0.68070  Biso   1.000  N
  N16      1.0000 0.69546  0.47010  0.68070  Biso   1.000  N
  O41      1.0000 0.24124  0.97910  0.20425  Biso   1.000  O
  O42      1.0000 0.74124  0.47910  0.20425  Biso   1.000  O
  O43      1.0000 0.75876  0.97910  0.29575  Biso   1.000  O
  O44      1.0000 0.25876  0.47910  0.29575  Biso   1.000  O
  O45      1.0000 0.75876  0.02090  0.79575  Biso   1.000  O
  O46      1.0000 0.25876  0.52090  0.79575  Biso   1.000  O
  O47      1.0000 0.24124  0.02090  0.70425  Biso   1.000  O
  O48      1.0000 0.74124  0.52090  0.70425  Biso   1.000  O
  C129     1.0000 0.15660  0.03810  0.11730  Biso   1.000  C
  C130     1.0000 0.65660  0.53810  0.11730  Biso   1.000  C
  C131     1.0000 0.84340  0.03810  0.38270  Biso   1.000  C
  C132     1.0000 0.34340  0.53810  0.38270  Biso   1.000  C
  C133     1.0000 0.84340  0.96190  0.88270  Biso   1.000  C
  C134     1.0000 0.34340  0.46190  0.88270  Biso   1.000  C
  C135     1.0000 0.15660  0.96190  0.61730  Biso   1.000  C
  C136     1.0000 0.65660  0.46190  0.61730  Biso   1.000  C
  C137     1.0000 0.16090  0.98980  0.06630  Biso   1.000  C
  C138     1.0000 0.66090  0.48980  0.06630  Biso   1.000  C
  C139     1.0000 0.83910  0.98980  0.43370  Biso   1.000  C
  C140     1.0000 0.33910  0.48980  0.43370  Biso   1.000  C
  C141     1.0000 0.83910  0.01020  0.93370  Biso   1.000  C
  C142     1.0000 0.33910  0.51020  0.93370  Biso   1.000  C
  C143     1.0000 0.16090  0.01020  0.56630  Biso   1.000  C
  C144     1.0000 0.66090  0.51020  0.56630  Biso   1.000  C
  C145     1.0000 0.20050  0.90960  0.06970  Biso   1.000  C
  C146     1.0000 0.70050  0.40960  0.06970  Biso   1.000  C
  C147     1.0000 0.79950  0.90960  0.43030  Biso   1.000  C
  C148     1.0000 0.29950  0.40960  0.43030  Biso   1.000  C
  C149     1.0000 0.79950  0.09040  0.93030  Biso   1.000  C
  C150     1.0000 0.29950  0.59040  0.93030  Biso   1.000  C
  C151     1.0000 0.20050  0.09040  0.56970  Biso   1.000  C
  C152     1.0000 0.70050  0.59040  0.56970  Biso   1.000  C
  H113     1.0000 0.22970  0.87300  0.10300  Biso   1.000  H
  H114     1.0000 0.72970  0.37300  0.10300  Biso   1.000  H
  H115     1.0000 0.77030  0.87300  0.39700  Biso   1.000  H
  H116     1.0000 0.27030  0.37300  0.39700  Biso   1.000  H
  H117     1.0000 0.77030  0.12700  0.89700  Biso   1.000  H
  H118     1.0000 0.27030  0.62700  0.89700  Biso   1.000  H
  H119     1.0000 0.22970  0.12700  0.60300  Biso   1.000  H
  H120     1.0000 0.72970  0.62700  0.60300  Biso   1.000  H
  N17      1.0000 0.19198  0.88740  0.01380  Biso   1.000  N
  N18      1.0000 0.69198  0.38740  0.01380  Biso   1.000  N
  N19      1.0000 0.80802  0.88740  0.48620  Biso   1.000  N
  N20      1.0000 0.30802  0.38740  0.48620  Biso   1.000  N
  N21      1.0000 0.80802  0.11260  0.98620  Biso   1.000  N
  N22      1.0000 0.30802  0.61260  0.98620  Biso   1.000  N
  N23      1.0000 0.19198  0.11260  0.51380  Biso   1.000  N
  N24      1.0000 0.69198  0.61260  0.51380  Biso   1.000  N
  N25      1.0000 0.14542  0.95680  0.97180  Biso   1.000  N
  N26      1.0000 0.64542  0.45680  0.97180  Biso   1.000  N
  N27      1.0000 0.85458  0.95680  0.52820  Biso   1.000  N
  N28      1.0000 0.35458  0.45680  0.52820  Biso   1.000  N
  N29      1.0000 0.85458  0.04320  0.02820  Biso   1.000  N
  N30      1.0000 0.35458  0.54320  0.02820  Biso   1.000  N
  N31      1.0000 0.14542  0.04320  0.47180  Biso   1.000  N
  N32      1.0000 0.64542  0.54320  0.47180  Biso   1.000  N
  C153     1.0000 0.12300  0.95730  0.90290  Biso   1.000  C
  C154     1.0000 0.62300  0.45730  0.90290  Biso   1.000  C
  C155     1.0000 0.87700  0.95730  0.59710  Biso   1.000  C
  C156     1.0000 0.37700  0.45730  0.59710  Biso   1.000  C
  C157     1.0000 0.87700  0.04270  0.09710  Biso   1.000  C
  C158     1.0000 0.37700  0.54270  0.09710  Biso   1.000  C
  C159     1.0000 0.12300  0.04270  0.40290  Biso   1.000  C
  C160     1.0000 0.62300  0.54270  0.40290  Biso   1.000  C
  H121     1.0000 0.09800  0.05500  0.87100  Biso   1.000  H
  H122     1.0000 0.59800  0.55500  0.87100  Biso   1.000  H
  H123     1.0000 0.90200  0.05500  0.62900  Biso   1.000  H
  H124     1.0000 0.40200  0.55500  0.62900  Biso   1.000  H
  H125     1.0000 0.90200  0.94500  0.12900  Biso   1.000  H
  H126     1.0000 0.40200  0.44500  0.12900  Biso   1.000  H
  H127     1.0000 0.09800  0.94500  0.37100  Biso   1.000  H
  H128     1.0000 0.59800  0.44500  0.37100  Biso   1.000  H
  H129     1.0000 0.15000  0.93600  0.90000  Biso   1.000  H
  H130     1.0000 0.65000  0.43600  0.90000  Biso   1.000  H
  H131     1.0000 0.85000  0.93600  0.60000  Biso   1.000  H
  H132     1.0000 0.35000  0.43600  0.60000  Biso   1.000  H
  H133     1.0000 0.85000  0.06400  0.10000  Biso   1.000  H
  H134     1.0000 0.35000  0.56400  0.10000  Biso   1.000  H
  H135     1.0000 0.15000  0.06400  0.40000  Biso   1.000  H
  H136     1.0000 0.65000  0.56400  0.40000  Biso   1.000  H
  C161     1.0000 0.07040  0.90200  0.86440  Biso   1.000  C
  C162     1.0000 0.57040  0.40200  0.86440  Biso   1.000  C
  C163     1.0000 0.92960  0.90200  0.63560  Biso   1.000  C
  C164     1.0000 0.42960  0.40200  0.63560  Biso   1.000  C
  C165     1.0000 0.92960  0.09800  0.13560  Biso   1.000  C
  C166     1.0000 0.42960  0.59800  0.13560  Biso   1.000  C
  C167     1.0000 0.07040  0.09800  0.36440  Biso   1.000  C
  C168     1.0000 0.57040  0.59800  0.36440  Biso   1.000  C
  H137     1.0000 0.05830  0.90490  0.82010  Biso   1.000  H
  H138     1.0000 0.55830  0.40490  0.82010  Biso   1.000  H
  H139     1.0000 0.94170  0.90490  0.67990  Biso   1.000  H
  H140     1.0000 0.44170  0.40490  0.67990  Biso   1.000  H
  H141     1.0000 0.94170  0.09510  0.17990  Biso   1.000  H
  H142     1.0000 0.44170  0.59510  0.17990  Biso   1.000  H
  H143     1.0000 0.05830  0.09510  0.32010  Biso   1.000  H
  H144     1.0000 0.55830  0.59510  0.32010  Biso   1.000  H
  H145     1.0000 0.04700  0.95740  0.87030  Biso   1.000  H
  H146     1.0000 0.54700  0.45740  0.87030  Biso   1.000  H
  H147     1.0000 0.95300  0.95740  0.62970  Biso   1.000  H
  H148     1.0000 0.45300  0.45740  0.62970  Biso   1.000  H
  H149     1.0000 0.95300  0.04260  0.12970  Biso   1.000  H
  H150     1.0000 0.45300  0.54260  0.12970  Biso   1.000  H
  H151     1.0000 0.04700  0.04260  0.37030  Biso   1.000  H
  H152     1.0000 0.54700  0.54260  0.37030  Biso   1.000  H
  H153     1.0000 0.07040  0.80770  0.87680  Biso   1.000  H
  H154     1.0000 0.57040  0.30770  0.87680  Biso   1.000  H
  H155     1.0000 0.92960  0.80770  0.62320  Biso   1.000  H
  H156     1.0000 0.42960  0.30770  0.62320  Biso   1.000  H
  H157     1.0000 0.92960  0.19230  0.12320  Biso   1.000  H
  H158     1.0000 0.42960  0.69230  0.12320  Biso   1.000  H
  H159     1.0000 0.07040  0.19230  0.37680  Biso   1.000  H
  H160     1.0000 0.57040  0.69230  0.37680  Biso   1.000  H
  C169     1.0000 0.12570  0.02040  0.00120  Biso   1.000  C
  C170     1.0000 0.62570  0.52040  0.00120  Biso   1.000  C
  C171     1.0000 0.87430  0.02040  0.49880  Biso   1.000  C
  C172     1.0000 0.37430  0.52040  0.49880  Biso   1.000  C
  C173     1.0000 0.87430  0.97960  0.99880  Biso   1.000  C
  C174     1.0000 0.37430  0.47960  0.99880  Biso   1.000  C
  C175     1.0000 0.12570  0.97960  0.50120  Biso   1.000  C
  C176     1.0000 0.62570  0.47960  0.50120  Biso   1.000  C
  H161     1.0000 0.13300  0.05500  0.88400  Biso   1.000  H
  H162     1.0000 0.63300  0.55500  0.88400  Biso   1.000  H
  H163     1.0000 0.86700  0.05500  0.61600  Biso   1.000  H
  H164     1.0000 0.36700  0.55500  0.61600  Biso   1.000  H
  H165     1.0000 0.86700  0.94500  0.11600  Biso   1.000  H
  H166     1.0000 0.36700  0.44500  0.11600  Biso   1.000  H
  H167     1.0000 0.13300  0.94500  0.38400  Biso   1.000  H
  H168     1.0000 0.63300  0.44500  0.38400  Biso   1.000  H
