data_image0
_cell_length_a       29.707
_cell_length_b       9.4853
_cell_length_c       24.564
_cell_angle_alpha    90
_cell_angle_beta     122.088
_cell_angle_gamma    90

_symmetry_space_group_name_H-M    "P 1"
_symmetry_int_tables_number       1

loop_
  _symmetry_equiv_pos_as_xyz
  'x, y, z'

loop_
  _atom_site_label
  _atom_site_occupancy
  _atom_site_fract_x
  _atom_site_fract_y
  _atom_site_fract_z
  _atom_site_thermal_displace_type
  _atom_site_B_iso_or_equiv
  _atom_site_type_symbol
  Cu1      1.0000 0.50000  0.00000  0.50000  Biso   1.000  Cu
  Cu2      1.0000 0.00000  0.50000  0.50000  Biso   1.000  Cu
  Cu3      1.0000 0.50000  0.00000  0.00000  Biso   1.000  Cu
  Cu4      1.0000 0.00000  0.50000  0.00000  Biso   1.000  Cu
  Cu5      1.0000 0.75000  0.75000  0.50000  Biso   1.000  Cu
  Cu6      1.0000 0.25000  0.25000  0.50000  Biso   1.000  Cu
  Cu7      1.0000 0.25000  0.75000  0.00000  Biso   1.000  Cu
  Cu8      1.0000 0.75000  0.25000  0.00000  Biso   1.000  Cu
  O1       1.0000 0.50067  0.90530  0.57455  Biso   1.000  O
  O2       1.0000 0.00067  0.40530  0.57455  Biso   1.000  O
  O3       1.0000 0.49933  0.90530  0.92545  Biso   1.000  O
  O4       1.0000 0.99933  0.40530  0.92545  Biso   1.000  O
  O5       1.0000 0.49933  0.09470  0.42545  Biso   1.000  O
  O6       1.0000 0.99933  0.59470  0.42545  Biso   1.000  O
  O7       1.0000 0.50067  0.09470  0.07455  Biso   1.000  O
  O8       1.0000 0.00067  0.59470  0.07455  Biso   1.000  O
  O9       1.0000 0.81182  0.83110  0.59078  Biso   1.000  O
  O10      1.0000 0.31182  0.33110  0.59078  Biso   1.000  O
  O11      1.0000 0.18818  0.83110  0.90922  Biso   1.000  O
  O12      1.0000 0.68818  0.33110  0.90922  Biso   1.000  O
  O13      1.0000 0.18818  0.16890  0.40922  Biso   1.000  O
  O14      1.0000 0.68818  0.66890  0.40922  Biso   1.000  O
  O15      1.0000 0.81182  0.16890  0.09078  Biso   1.000  O
  O16      1.0000 0.31182  0.66890  0.09078  Biso   1.000  O
  O17      1.0000 0.57286  0.12990  0.55661  Biso   1.000  O
  O18      1.0000 0.07286  0.62990  0.55661  Biso   1.000  O
  O19      1.0000 0.42714  0.12990  0.94339  Biso   1.000  O
  O20      1.0000 0.92714  0.62990  0.94339  Biso   1.000  O
  O21      1.0000 0.42714  0.87010  0.44339  Biso   1.000  O
  O22      1.0000 0.92714  0.37010  0.44339  Biso   1.000  O
  O23      1.0000 0.57286  0.87010  0.05661  Biso   1.000  O
  O24      1.0000 0.07286  0.37010  0.05661  Biso   1.000  O
  O25      1.0000 0.75894  0.91500  0.45679  Biso   1.000  O
  O26      1.0000 0.25894  0.41500  0.45679  Biso   1.000  O
  O27      1.0000 0.24106  0.91500  0.04321  Biso   1.000  O
  O28      1.0000 0.74106  0.41500  0.04321  Biso   1.000  O
  O29      1.0000 0.24106  0.08500  0.54321  Biso   1.000  O
  O30      1.0000 0.74106  0.58500  0.54321  Biso   1.000  O
  O31      1.0000 0.75894  0.08500  0.95679  Biso   1.000  O
  O32      1.0000 0.25894  0.58500  0.95679  Biso   1.000  O
  N1       1.0000 0.69636  0.87210  0.51459  Biso   1.000  N
  N2       1.0000 0.19636  0.37210  0.51459  Biso   1.000  N
  N3       1.0000 0.30364  0.87210  0.98541  Biso   1.000  N
  N4       1.0000 0.80364  0.37210  0.98541  Biso   1.000  N
  N5       1.0000 0.30364  0.12790  0.48541  Biso   1.000  N
  N6       1.0000 0.80364  0.62790  0.48541  Biso   1.000  N
  N7       1.0000 0.69636  0.12790  0.01459  Biso   1.000  N
  N8       1.0000 0.19636  0.62790  0.01459  Biso   1.000  N
  N9       1.0000 0.61449  0.09460  0.61120  Biso   1.000  N
  N10      1.0000 0.11449  0.59460  0.61120  Biso   1.000  N
  N11      1.0000 0.38551  0.09460  0.88880  Biso   1.000  N
  N12      1.0000 0.88551  0.59460  0.88880  Biso   1.000  N
  N13      1.0000 0.38551  0.90540  0.38880  Biso   1.000  N
  N14      1.0000 0.88551  0.40540  0.38880  Biso   1.000  N
  N15      1.0000 0.61449  0.90540  0.11120  Biso   1.000  N
  N16      1.0000 0.11449  0.40540  0.11120  Biso   1.000  N
  O33      1.0000 0.53967  0.84110  0.49482  Biso   1.000  O
  O34      1.0000 0.03967  0.34110  0.49482  Biso   1.000  O
  O35      1.0000 0.46033  0.84110  0.00518  Biso   1.000  O
  O36      1.0000 0.96033  0.34110  0.00518  Biso   1.000  O
  O37      1.0000 0.46033  0.15890  0.50518  Biso   1.000  O
  O38      1.0000 0.96033  0.65890  0.50518  Biso   1.000  O
  O39      1.0000 0.53967  0.15890  0.99482  Biso   1.000  O
  O40      1.0000 0.03967  0.65890  0.99482  Biso   1.000  O
  C1       1.0000 0.70268  0.89120  0.57180  Biso   1.000  C
  C2       1.0000 0.20268  0.39120  0.57180  Biso   1.000  C
  C3       1.0000 0.29732  0.89120  0.92820  Biso   1.000  C
  C4       1.0000 0.79732  0.39120  0.92820  Biso   1.000  C
  C5       1.0000 0.29732  0.10880  0.42820  Biso   1.000  C
  C6       1.0000 0.79732  0.60880  0.42820  Biso   1.000  C
  C7       1.0000 0.70268  0.10880  0.07180  Biso   1.000  C
  C8       1.0000 0.20268  0.60880  0.07180  Biso   1.000  C
  H1       1.0000 0.73120  0.85000  0.60700  Biso   1.000  H
  H2       1.0000 0.23120  0.35000  0.60700  Biso   1.000  H
  H3       1.0000 0.26880  0.85000  0.89300  Biso   1.000  H
  H4       1.0000 0.76880  0.35000  0.89300  Biso   1.000  H
  H5       1.0000 0.26880  0.15000  0.39300  Biso   1.000  H
  H6       1.0000 0.76880  0.65000  0.39300  Biso   1.000  H
  H7       1.0000 0.73120  0.15000  0.10700  Biso   1.000  H
  H8       1.0000 0.23120  0.65000  0.10700  Biso   1.000  H
  N17      1.0000 0.65155  0.94590  0.47278  Biso   1.000  N
  N18      1.0000 0.15155  0.44590  0.47278  Biso   1.000  N
  N19      1.0000 0.34845  0.94590  0.02722  Biso   1.000  N
  N20      1.0000 0.84845  0.44590  0.02722  Biso   1.000  N
  N21      1.0000 0.34845  0.05410  0.52722  Biso   1.000  N
  N22      1.0000 0.84845  0.55410  0.52722  Biso   1.000  N
  N23      1.0000 0.65155  0.05410  0.97278  Biso   1.000  N
  N24      1.0000 0.15155  0.55410  0.97278  Biso   1.000  N
  N25      1.0000 0.69225  0.00980  0.68184  Biso   1.000  N
  N26      1.0000 0.19225  0.50980  0.68184  Biso   1.000  N
  N27      1.0000 0.30775  0.00980  0.81816  Biso   1.000  N
  N28      1.0000 0.80775  0.50980  0.81816  Biso   1.000  N
  N29      1.0000 0.30775  0.99020  0.31816  Biso   1.000  N
  N30      1.0000 0.80775  0.49020  0.31816  Biso   1.000  N
  N31      1.0000 0.69225  0.99020  0.18184  Biso   1.000  N
  N32      1.0000 0.19225  0.49020  0.18184  Biso   1.000  N
  C9       1.0000 0.82993  0.95230  0.59772  Biso   1.000  C
  C10      1.0000 0.32993  0.45230  0.59772  Biso   1.000  C
  C11      1.0000 0.17007  0.95230  0.90228  Biso   1.000  C
  C12      1.0000 0.67007  0.45230  0.90228  Biso   1.000  C
  C13      1.0000 0.17007  0.04770  0.40228  Biso   1.000  C
  C14      1.0000 0.67007  0.54770  0.40228  Biso   1.000  C
  C15      1.0000 0.82993  0.04770  0.09772  Biso   1.000  C
  C16      1.0000 0.32993  0.54770  0.09772  Biso   1.000  C
  C17      1.0000 0.65631  0.02420  0.61837  Biso   1.000  C
  C18      1.0000 0.15631  0.52420  0.61837  Biso   1.000  C
  C19      1.0000 0.34369  0.02420  0.88163  Biso   1.000  C
  C20      1.0000 0.84369  0.52420  0.88163  Biso   1.000  C
  C21      1.0000 0.34369  0.97580  0.38163  Biso   1.000  C
  C22      1.0000 0.84369  0.47580  0.38163  Biso   1.000  C
  C23      1.0000 0.65631  0.97580  0.11837  Biso   1.000  C
  C24      1.0000 0.15631  0.47580  0.11837  Biso   1.000  C
  C25      1.0000 0.66247  0.97530  0.56757  Biso   1.000  C
  C26      1.0000 0.16247  0.47530  0.56757  Biso   1.000  C
  C27      1.0000 0.33753  0.97530  0.93243  Biso   1.000  C
  C28      1.0000 0.83753  0.47530  0.93243  Biso   1.000  C
  C29      1.0000 0.33753  0.02470  0.43243  Biso   1.000  C
  C30      1.0000 0.83753  0.52470  0.43243  Biso   1.000  C
  C31      1.0000 0.66247  0.02470  0.06757  Biso   1.000  C
  C32      1.0000 0.16247  0.52470  0.06757  Biso   1.000  C
  C33      1.0000 0.78428  0.02460  0.48493  Biso   1.000  C
  C34      1.0000 0.28428  0.52460  0.48493  Biso   1.000  C
  C35      1.0000 0.21572  0.02460  0.01507  Biso   1.000  C
  C36      1.0000 0.71572  0.52460  0.01507  Biso   1.000  C
  C37      1.0000 0.21572  0.97540  0.51507  Biso   1.000  C
  C38      1.0000 0.71572  0.47540  0.51507  Biso   1.000  C
  C39      1.0000 0.78428  0.97540  0.98493  Biso   1.000  C
  C40      1.0000 0.28428  0.47540  0.98493  Biso   1.000  C
  C41      1.0000 0.63057  0.00730  0.50288  Biso   1.000  C
  C42      1.0000 0.13057  0.50730  0.50288  Biso   1.000  C
  C43      1.0000 0.36943  0.00730  0.99712  Biso   1.000  C
  C44      1.0000 0.86943  0.50730  0.99712  Biso   1.000  C
  C45      1.0000 0.36943  0.99270  0.49712  Biso   1.000  C
  C46      1.0000 0.86943  0.49270  0.49712  Biso   1.000  C
  C47      1.0000 0.63057  0.99270  0.00288  Biso   1.000  C
  C48      1.0000 0.13057  0.49270  0.00288  Biso   1.000  C
  H9       1.0000 0.60200  0.05600  0.48220  Biso   1.000  H
  H10      1.0000 0.10200  0.55600  0.48220  Biso   1.000  H
  H11      1.0000 0.39800  0.05600  0.01780  Biso   1.000  H
  H12      1.0000 0.89800  0.55600  0.01780  Biso   1.000  H
  H13      1.0000 0.39800  0.94400  0.51780  Biso   1.000  H
  H14      1.0000 0.89800  0.44400  0.51780  Biso   1.000  H
  H15      1.0000 0.60200  0.94400  0.98220  Biso   1.000  H
  H16      1.0000 0.10200  0.44400  0.98220  Biso   1.000  H
  C49      1.0000 0.54987  0.72660  0.52460  Biso   1.000  C
  C50      1.0000 0.04987  0.22660  0.52460  Biso   1.000  C
  C51      1.0000 0.45013  0.72660  0.97540  Biso   1.000  C
  C52      1.0000 0.95013  0.22660  0.97540  Biso   1.000  C
  C53      1.0000 0.45013  0.27340  0.47540  Biso   1.000  C
  C54      1.0000 0.95013  0.77340  0.47540  Biso   1.000  C
  C55      1.0000 0.54987  0.27340  0.02460  Biso   1.000  C
  C56      1.0000 0.04987  0.77340  0.02460  Biso   1.000  C
  C57      1.0000 0.51489  0.78220  0.59210  Biso   1.000  C
  C58      1.0000 0.01489  0.28220  0.59210  Biso   1.000  C
  C59      1.0000 0.48511  0.78220  0.90790  Biso   1.000  C
  C60      1.0000 0.98511  0.28220  0.90790  Biso   1.000  C
  C61      1.0000 0.48511  0.21780  0.40790  Biso   1.000  C
  C62      1.0000 0.98511  0.71780  0.40790  Biso   1.000  C
  C63      1.0000 0.51489  0.21780  0.09210  Biso   1.000  C
  C64      1.0000 0.01489  0.71780  0.09210  Biso   1.000  C
  O41      1.0000 0.73697  0.94980  0.70583  Biso   1.000  O
  O42      1.0000 0.23697  0.44980  0.70583  Biso   1.000  O
  O43      1.0000 0.26303  0.94980  0.79417  Biso   1.000  O
  O44      1.0000 0.76303  0.44980  0.79417  Biso   1.000  O
  O45      1.0000 0.26303  0.05020  0.29417  Biso   1.000  O
  O46      1.0000 0.76303  0.55020  0.29417  Biso   1.000  O
  O47      1.0000 0.73697  0.05020  0.20583  Biso   1.000  O
  O48      1.0000 0.23697  0.55020  0.20583  Biso   1.000  O
  C65      1.0000 0.67042  0.05670  0.72151  Biso   1.000  C
  C66      1.0000 0.17042  0.55670  0.72151  Biso   1.000  C
  C67      1.0000 0.32958  0.05670  0.77849  Biso   1.000  C
  C68      1.0000 0.82958  0.55670  0.77849  Biso   1.000  C
  C69      1.0000 0.32958  0.94330  0.27849  Biso   1.000  C
  C70      1.0000 0.82958  0.44330  0.27849  Biso   1.000  C
  C71      1.0000 0.67042  0.94330  0.22151  Biso   1.000  C
  C72      1.0000 0.17042  0.44330  0.22151  Biso   1.000  C
  C73      1.0000 0.81856  0.04960  0.54960  Biso   1.000  C
  C74      1.0000 0.31856  0.54960  0.54960  Biso   1.000  C
  C75      1.0000 0.18144  0.04960  0.95040  Biso   1.000  C
  C76      1.0000 0.68144  0.54960  0.95040  Biso   1.000  C
  C77      1.0000 0.18144  0.95040  0.45040  Biso   1.000  C
  C78      1.0000 0.68144  0.45040  0.45040  Biso   1.000  C
  C79      1.0000 0.81856  0.95040  0.04960  Biso   1.000  C
  C80      1.0000 0.31856  0.45040  0.04960  Biso   1.000  C
  H17      1.0000 0.83490  0.14600  0.56540  Biso   1.000  H
  H18      1.0000 0.33490  0.64600  0.56540  Biso   1.000  H
  H19      1.0000 0.16510  0.14600  0.93460  Biso   1.000  H
  H20      1.0000 0.66510  0.64600  0.93460  Biso   1.000  H
  H21      1.0000 0.16510  0.85400  0.43460  Biso   1.000  H
  H22      1.0000 0.66510  0.35400  0.43460  Biso   1.000  H
  H23      1.0000 0.83490  0.85400  0.06540  Biso   1.000  H
  H24      1.0000 0.33490  0.35400  0.06540  Biso   1.000  H
  C81      1.0000 0.62591  0.15640  0.67374  Biso   1.000  C
  C82      1.0000 0.12591  0.65640  0.67374  Biso   1.000  C
  C83      1.0000 0.37409  0.15640  0.82626  Biso   1.000  C
  C84      1.0000 0.87409  0.65640  0.82626  Biso   1.000  C
  C85      1.0000 0.37409  0.84360  0.32626  Biso   1.000  C
  C86      1.0000 0.87409  0.34360  0.32626  Biso   1.000  C
  C87      1.0000 0.62591  0.84360  0.17374  Biso   1.000  C
  C88      1.0000 0.12591  0.34360  0.17374  Biso   1.000  C
  C89      1.0000 0.77460  0.14590  0.43900  Biso   1.000  C
  C90      1.0000 0.27460  0.64590  0.43900  Biso   1.000  C
  C91      1.0000 0.22540  0.14590  0.06100  Biso   1.000  C
  C92      1.0000 0.72540  0.64590  0.06100  Biso   1.000  C
  C93      1.0000 0.22540  0.85410  0.56100  Biso   1.000  C
  C94      1.0000 0.72540  0.35410  0.56100  Biso   1.000  C
  C95      1.0000 0.77460  0.85410  0.93900  Biso   1.000  C
  C96      1.0000 0.27460  0.35410  0.93900  Biso   1.000  C
  F1       1.0000 0.52093  0.81760  0.69058  Biso   1.000  F
  F2       1.0000 0.02093  0.31760  0.69058  Biso   1.000  F
  F3       1.0000 0.47907  0.81760  0.80942  Biso   1.000  F
  F4       1.0000 0.97907  0.31760  0.80942  Biso   1.000  F
  F5       1.0000 0.47907  0.18240  0.30942  Biso   1.000  F
  F6       1.0000 0.97907  0.68240  0.30942  Biso   1.000  F
  F7       1.0000 0.52093  0.18240  0.19058  Biso   1.000  F
  F8       1.0000 0.02093  0.68240  0.19058  Biso   1.000  F
  F9       1.0000 0.45057  0.72030  0.61462  Biso   1.000  F
  F10      1.0000 0.95057  0.22030  0.61462  Biso   1.000  F
  F11      1.0000 0.54943  0.72030  0.88538  Biso   1.000  F
  F12      1.0000 0.04943  0.22030  0.88538  Biso   1.000  F
  F13      1.0000 0.54943  0.27970  0.38538  Biso   1.000  F
  F14      1.0000 0.04943  0.77970  0.38538  Biso   1.000  F
  F15      1.0000 0.45057  0.27970  0.11462  Biso   1.000  F
  F16      1.0000 0.95057  0.77970  0.11462  Biso   1.000  F
  C97      1.0000 0.64470  0.30660  0.67420  Biso   1.000  C
  C98      1.0000 0.14470  0.80660  0.67420  Biso   1.000  C
  C99      1.0000 0.35530  0.30660  0.82580  Biso   1.000  C
  C100     1.0000 0.85530  0.80660  0.82580  Biso   1.000  C
  C101     1.0000 0.35530  0.69340  0.32580  Biso   1.000  C
  C102     1.0000 0.85530  0.19340  0.32580  Biso   1.000  C
  C103     1.0000 0.64470  0.69340  0.17420  Biso   1.000  C
  C104     1.0000 0.14470  0.19340  0.17420  Biso   1.000  C
  H25      1.0000 0.67560  0.31000  0.67280  Biso   1.000  H
  H26      1.0000 0.17560  0.81000  0.67280  Biso   1.000  H
  H27      1.0000 0.32440  0.31000  0.82720  Biso   1.000  H
  H28      1.0000 0.82440  0.81000  0.82720  Biso   1.000  H
  H29      1.0000 0.32440  0.69000  0.32720  Biso   1.000  H
  H30      1.0000 0.82440  0.19000  0.32720  Biso   1.000  H
  H31      1.0000 0.67560  0.69000  0.17280  Biso   1.000  H
  H32      1.0000 0.17560  0.19000  0.17280  Biso   1.000  H
  H33      1.0000 0.64560  0.35300  0.70200  Biso   1.000  H
  H34      1.0000 0.14560  0.85300  0.70200  Biso   1.000  H
  H35      1.0000 0.35440  0.35300  0.79800  Biso   1.000  H
  H36      1.0000 0.85440  0.85300  0.79800  Biso   1.000  H
  H37      1.0000 0.35440  0.64700  0.29800  Biso   1.000  H
  H38      1.0000 0.85440  0.14700  0.29800  Biso   1.000  H
  H39      1.0000 0.64560  0.64700  0.20200  Biso   1.000  H
  H40      1.0000 0.14560  0.14700  0.20200  Biso   1.000  H
  H41      1.0000 0.60660  0.34900  0.63600  Biso   1.000  H
  H42      1.0000 0.10660  0.84900  0.63600  Biso   1.000  H
  H43      1.0000 0.39340  0.34900  0.86400  Biso   1.000  H
  H44      1.0000 0.89340  0.84900  0.86400  Biso   1.000  H
  H45      1.0000 0.39340  0.65100  0.36400  Biso   1.000  H
  H46      1.0000 0.89340  0.15100  0.36400  Biso   1.000  H
  H47      1.0000 0.60660  0.65100  0.13600  Biso   1.000  H
  H48      1.0000 0.10660  0.15100  0.13600  Biso   1.000  H
  C105     1.0000 0.57620  0.15840  0.67620  Biso   1.000  C
  C106     1.0000 0.07620  0.65840  0.67620  Biso   1.000  C
  C107     1.0000 0.42380  0.15840  0.82380  Biso   1.000  C
  C108     1.0000 0.92380  0.65840  0.82380  Biso   1.000  C
  C109     1.0000 0.42380  0.84160  0.32380  Biso   1.000  C
  C110     1.0000 0.92380  0.34160  0.32380  Biso   1.000  C
  C111     1.0000 0.57620  0.84160  0.17620  Biso   1.000  C
  C112     1.0000 0.07620  0.34160  0.17620  Biso   1.000  C
  H49      1.0000 0.55000  0.23500  0.63900  Biso   1.000  H
  H50      1.0000 0.05000  0.73500  0.63900  Biso   1.000  H
  H51      1.0000 0.45000  0.23500  0.86100  Biso   1.000  H
  H52      1.0000 0.95000  0.73500  0.86100  Biso   1.000  H
  H53      1.0000 0.45000  0.76500  0.36100  Biso   1.000  H
  H54      1.0000 0.95000  0.26500  0.36100  Biso   1.000  H
  H55      1.0000 0.55000  0.76500  0.13900  Biso   1.000  H
  H56      1.0000 0.05000  0.26500  0.13900  Biso   1.000  H
  H57      1.0000 0.58480  0.19300  0.71500  Biso   1.000  H
  H58      1.0000 0.08480  0.69300  0.71500  Biso   1.000  H
  H59      1.0000 0.41520  0.19300  0.78500  Biso   1.000  H
  H60      1.0000 0.91520  0.69300  0.78500  Biso   1.000  H
  H61      1.0000 0.41520  0.80700  0.28500  Biso   1.000  H
  H62      1.0000 0.91520  0.30700  0.28500  Biso   1.000  H
  H63      1.0000 0.58480  0.80700  0.21500  Biso   1.000  H
  H64      1.0000 0.08480  0.30700  0.21500  Biso   1.000  H
  H65      1.0000 0.55850  0.07600  0.66580  Biso   1.000  H
  H66      1.0000 0.05850  0.57600  0.66580  Biso   1.000  H
  H67      1.0000 0.44150  0.07600  0.83420  Biso   1.000  H
  H68      1.0000 0.94150  0.57600  0.83420  Biso   1.000  H
  H69      1.0000 0.44150  0.92400  0.33420  Biso   1.000  H
  H70      1.0000 0.94150  0.42400  0.33420  Biso   1.000  H
  H71      1.0000 0.55850  0.92400  0.16580  Biso   1.000  H
  H72      1.0000 0.05850  0.42400  0.16580  Biso   1.000  H
  C113     1.0000 0.63061  0.95500  0.40370  Biso   1.000  C
  C114     1.0000 0.13061  0.45500  0.40370  Biso   1.000  C
  C115     1.0000 0.36939  0.95500  0.09630  Biso   1.000  C
  C116     1.0000 0.86939  0.45500  0.09630  Biso   1.000  C
  C117     1.0000 0.36939  0.04500  0.59630  Biso   1.000  C
  C118     1.0000 0.86939  0.54500  0.59630  Biso   1.000  C
  C119     1.0000 0.63061  0.04500  0.90370  Biso   1.000  C
  C120     1.0000 0.13061  0.54500  0.90370  Biso   1.000  C
  H73      1.0000 0.65330  0.91500  0.39540  Biso   1.000  H
  H74      1.0000 0.15330  0.41500  0.39540  Biso   1.000  H
  H75      1.0000 0.34670  0.91500  0.10460  Biso   1.000  H
  H76      1.0000 0.84670  0.41500  0.10460  Biso   1.000  H
  H77      1.0000 0.34670  0.08500  0.60460  Biso   1.000  H
  H78      1.0000 0.84670  0.58500  0.60460  Biso   1.000  H
  H79      1.0000 0.65330  0.08500  0.89540  Biso   1.000  H
  H80      1.0000 0.15330  0.58500  0.89540  Biso   1.000  H
  H81      1.0000 0.62370  0.05400  0.38800  Biso   1.000  H
  H82      1.0000 0.12370  0.55400  0.38800  Biso   1.000  H
  H83      1.0000 0.37630  0.05400  0.11200  Biso   1.000  H
  H84      1.0000 0.87630  0.55400  0.11200  Biso   1.000  H
  H85      1.0000 0.37630  0.94600  0.61200  Biso   1.000  H
  H86      1.0000 0.87630  0.44600  0.61200  Biso   1.000  H
  H87      1.0000 0.62370  0.94600  0.88800  Biso   1.000  H
  H88      1.0000 0.12370  0.44600  0.88800  Biso   1.000  H
  C121     1.0000 0.86780  0.99810  0.66670  Biso   1.000  C
  C122     1.0000 0.36780  0.49810  0.66670  Biso   1.000  C
  C123     1.0000 0.13220  0.99810  0.83330  Biso   1.000  C
  C124     1.0000 0.63220  0.49810  0.83330  Biso   1.000  C
  C125     1.0000 0.13220  0.00190  0.33330  Biso   1.000  C
  C126     1.0000 0.63220  0.50190  0.33330  Biso   1.000  C
  C127     1.0000 0.86780  0.00190  0.16670  Biso   1.000  C
  C128     1.0000 0.36780  0.50190  0.16670  Biso   1.000  C
  C129     1.0000 0.65020  0.92300  0.73660  Biso   1.000  C
  C130     1.0000 0.15020  0.42300  0.73660  Biso   1.000  C
  C131     1.0000 0.34980  0.92300  0.76340  Biso   1.000  C
  C132     1.0000 0.84980  0.42300  0.76340  Biso   1.000  C
  C133     1.0000 0.34980  0.07700  0.26340  Biso   1.000  C
  C134     1.0000 0.84980  0.57700  0.26340  Biso   1.000  C
  C135     1.0000 0.65020  0.07700  0.23660  Biso   1.000  C
  C136     1.0000 0.15020  0.57700  0.23660  Biso   1.000  C
  H89      1.0000 0.62400  0.88100  0.69900  Biso   1.000  H
  H90      1.0000 0.12400  0.38100  0.69900  Biso   1.000  H
  H91      1.0000 0.37600  0.88100  0.80100  Biso   1.000  H
  H92      1.0000 0.87600  0.38100  0.80100  Biso   1.000  H
  H93      1.0000 0.37600  0.11900  0.30100  Biso   1.000  H
  H94      1.0000 0.87600  0.61900  0.30100  Biso   1.000  H
  H95      1.0000 0.62400  0.11900  0.19900  Biso   1.000  H
  H96      1.0000 0.12400  0.61900  0.19900  Biso   1.000  H
  H97      1.0000 0.63360  0.94700  0.76200  Biso   1.000  H
  H98      1.0000 0.13360  0.44700  0.76200  Biso   1.000  H
  H99      1.0000 0.36640  0.94700  0.73800  Biso   1.000  H
  H100     1.0000 0.86640  0.44700  0.73800  Biso   1.000  H
  H101     1.0000 0.36640  0.05300  0.23800  Biso   1.000  H
  H102     1.0000 0.86640  0.55300  0.23800  Biso   1.000  H
  H103     1.0000 0.63360  0.05300  0.26200  Biso   1.000  H
  H104     1.0000 0.13360  0.55300  0.26200  Biso   1.000  H
  H105     1.0000 0.67990  0.86600  0.75700  Biso   1.000  H
  H106     1.0000 0.17990  0.36600  0.75700  Biso   1.000  H
  H107     1.0000 0.32010  0.86600  0.74300  Biso   1.000  H
  H108     1.0000 0.82010  0.36600  0.74300  Biso   1.000  H
  H109     1.0000 0.32010  0.13400  0.24300  Biso   1.000  H
  H110     1.0000 0.82010  0.63400  0.24300  Biso   1.000  H
  H111     1.0000 0.67990  0.13400  0.25700  Biso   1.000  H
  H112     1.0000 0.17990  0.63400  0.25700  Biso   1.000  H
  F17      1.0000 0.52204  0.60560  0.66527  Biso   1.000  F
  F18      1.0000 0.02204  0.10560  0.66527  Biso   1.000  F
  F19      1.0000 0.47796  0.60560  0.83473  Biso   1.000  F
  F20      1.0000 0.97796  0.10560  0.83473  Biso   1.000  F
  F21      1.0000 0.47796  0.39440  0.33473  Biso   1.000  F
  F22      1.0000 0.97796  0.89440  0.33473  Biso   1.000  F
  F23      1.0000 0.52204  0.39440  0.16527  Biso   1.000  F
  F24      1.0000 0.02204  0.89440  0.16527  Biso   1.000  F
  C137     1.0000 0.53954  0.69240  0.57170  Biso   1.000  C
  C138     1.0000 0.03954  0.19240  0.57170  Biso   1.000  C
  C139     1.0000 0.46046  0.69240  0.92830  Biso   1.000  C
  C140     1.0000 0.96046  0.19240  0.92830  Biso   1.000  C
  C141     1.0000 0.46046  0.30760  0.42830  Biso   1.000  C
  C142     1.0000 0.96046  0.80760  0.42830  Biso   1.000  C
  C143     1.0000 0.53954  0.30760  0.07170  Biso   1.000  C
  C144     1.0000 0.03954  0.80760  0.07170  Biso   1.000  C
  H113     1.0000 0.54530  0.61800  0.58300  Biso   1.000  H
  H114     1.0000 0.04530  0.11800  0.58300  Biso   1.000  H
  H115     1.0000 0.45470  0.61800  0.91700  Biso   1.000  H
  H116     1.0000 0.95470  0.11800  0.91700  Biso   1.000  H
  H117     1.0000 0.45470  0.38200  0.41700  Biso   1.000  H
  H118     1.0000 0.95470  0.88200  0.41700  Biso   1.000  H
  H119     1.0000 0.54530  0.38200  0.08300  Biso   1.000  H
  H120     1.0000 0.04530  0.88200  0.08300  Biso   1.000  H
  C145     1.0000 0.71390  0.12360  0.78340  Biso   1.000  C
  C146     1.0000 0.21390  0.62360  0.78340  Biso   1.000  C
  C147     1.0000 0.28610  0.12360  0.71660  Biso   1.000  C
  C148     1.0000 0.78610  0.62360  0.71660  Biso   1.000  C
  C149     1.0000 0.28610  0.87640  0.21660  Biso   1.000  C
  C150     1.0000 0.78610  0.37640  0.21660  Biso   1.000  C
  C151     1.0000 0.71390  0.87640  0.28340  Biso   1.000  C
  C152     1.0000 0.21390  0.37640  0.28340  Biso   1.000  C
  H121     1.0000 0.74160  0.06300  0.81200  Biso   1.000  H
  H122     1.0000 0.24160  0.56300  0.81200  Biso   1.000  H
  H123     1.0000 0.25840  0.06300  0.68800  Biso   1.000  H
  H124     1.0000 0.75840  0.56300  0.68800  Biso   1.000  H
  H125     1.0000 0.25840  0.93700  0.18800  Biso   1.000  H
  H126     1.0000 0.75840  0.43700  0.18800  Biso   1.000  H
  H127     1.0000 0.74160  0.93700  0.31200  Biso   1.000  H
  H128     1.0000 0.24160  0.43700  0.31200  Biso   1.000  H
  H129     1.0000 0.69960  0.15200  0.80700  Biso   1.000  H
  H130     1.0000 0.19960  0.65200  0.80700  Biso   1.000  H
  H131     1.0000 0.30040  0.15200  0.69300  Biso   1.000  H
  H132     1.0000 0.80040  0.65200  0.69300  Biso   1.000  H
  H133     1.0000 0.30040  0.84800  0.19300  Biso   1.000  H
  H134     1.0000 0.80040  0.34800  0.19300  Biso   1.000  H
  H135     1.0000 0.69960  0.84800  0.30700  Biso   1.000  H
  H136     1.0000 0.19960  0.34800  0.30700  Biso   1.000  H
  H137     1.0000 0.73150  0.19600  0.77370  Biso   1.000  H
  H138     1.0000 0.23150  0.69600  0.77370  Biso   1.000  H
  H139     1.0000 0.26850  0.19600  0.72630  Biso   1.000  H
  H140     1.0000 0.76850  0.69600  0.72630  Biso   1.000  H
  H141     1.0000 0.26850  0.80400  0.22630  Biso   1.000  H
  H142     1.0000 0.76850  0.30400  0.22630  Biso   1.000  H
  H143     1.0000 0.73150  0.80400  0.27370  Biso   1.000  H
  H144     1.0000 0.23150  0.30400  0.27370  Biso   1.000  H
  C153     1.0000 0.50280  0.72820  0.64130  Biso   1.000  C
  C154     1.0000 0.00280  0.22820  0.64130  Biso   1.000  C
  C155     1.0000 0.49720  0.72820  0.85870  Biso   1.000  C
  C156     1.0000 0.99720  0.22820  0.85870  Biso   1.000  C
  C157     1.0000 0.49720  0.27180  0.35870  Biso   1.000  C
  C158     1.0000 0.99720  0.77180  0.35870  Biso   1.000  C
  C159     1.0000 0.50280  0.27180  0.14130  Biso   1.000  C
  C160     1.0000 0.00280  0.77180  0.14130  Biso   1.000  C
  C161     1.0000 0.57764  0.88630  0.36450  Biso   1.000  C
  C162     1.0000 0.07764  0.38630  0.36450  Biso   1.000  C
  C163     1.0000 0.42236  0.88630  0.13550  Biso   1.000  C
  C164     1.0000 0.92236  0.38630  0.13550  Biso   1.000  C
  C165     1.0000 0.42236  0.11370  0.63550  Biso   1.000  C
  C166     1.0000 0.92236  0.61370  0.63550  Biso   1.000  C
  C167     1.0000 0.57764  0.11370  0.86450  Biso   1.000  C
  C168     1.0000 0.07764  0.61370  0.86450  Biso   1.000  C
  H145     1.0000 0.56530  0.89480  0.31970  Biso   1.000  H
  H146     1.0000 0.06530  0.39480  0.31970  Biso   1.000  H
  H147     1.0000 0.43470  0.89480  0.18030  Biso   1.000  H
  H148     1.0000 0.93470  0.39480  0.18030  Biso   1.000  H
  H149     1.0000 0.43470  0.10520  0.68030  Biso   1.000  H
  H150     1.0000 0.93470  0.60520  0.68030  Biso   1.000  H
  H151     1.0000 0.56530  0.10520  0.81970  Biso   1.000  H
  H152     1.0000 0.06530  0.60520  0.81970  Biso   1.000  H
  H153     1.0000 0.55290  0.93150  0.37260  Biso   1.000  H
  H154     1.0000 0.05290  0.43150  0.37260  Biso   1.000  H
  H155     1.0000 0.44710  0.93150  0.12740  Biso   1.000  H
  H156     1.0000 0.94710  0.43150  0.12740  Biso   1.000  H
  H157     1.0000 0.44710  0.06850  0.62740  Biso   1.000  H
  H158     1.0000 0.94710  0.56850  0.62740  Biso   1.000  H
  H159     1.0000 0.55290  0.06850  0.87260  Biso   1.000  H
  H160     1.0000 0.05290  0.56850  0.87260  Biso   1.000  H
  H161     1.0000 0.58060  0.78840  0.37580  Biso   1.000  H
  H162     1.0000 0.08060  0.28840  0.37580  Biso   1.000  H
  H163     1.0000 0.41940  0.78840  0.12420  Biso   1.000  H
  H164     1.0000 0.91940  0.28840  0.12420  Biso   1.000  H
  H165     1.0000 0.41940  0.21160  0.62420  Biso   1.000  H
  H166     1.0000 0.91940  0.71160  0.62420  Biso   1.000  H
  H167     1.0000 0.58060  0.21160  0.87580  Biso   1.000  H
  H168     1.0000 0.08060  0.71160  0.87580  Biso   1.000  H
  F25      1.0000 0.57290  0.51350  0.51450  Biso   1.000  F
  F26      1.0000 0.07290  0.01350  0.51450  Biso   1.000  F
  F27      1.0000 0.42710  0.51350  0.98550  Biso   1.000  F
  F28      1.0000 0.92710  0.01350  0.98550  Biso   1.000  F
  F29      1.0000 0.42710  0.48650  0.48550  Biso   1.000  F
  F30      1.0000 0.92710  0.98650  0.48550  Biso   1.000  F
  F31      1.0000 0.57290  0.48650  0.01450  Biso   1.000  F
  F32      1.0000 0.07290  0.98650  0.01450  Biso   1.000  F
  F33      1.0000 0.89500  0.90030  0.70400  Biso   1.000  F
  F34      1.0000 0.39500  0.40030  0.70400  Biso   1.000  F
  F35      1.0000 0.10500  0.90030  0.79600  Biso   1.000  F
  F36      1.0000 0.60500  0.40030  0.79600  Biso   1.000  F
  F37      1.0000 0.10500  0.09970  0.29600  Biso   1.000  F
  F38      1.0000 0.60500  0.59970  0.29600  Biso   1.000  F
  F39      1.0000 0.89500  0.09970  0.20400  Biso   1.000  F
  F40      1.0000 0.39500  0.59970  0.20400  Biso   1.000  F
  F41      1.0000 0.83810  0.03940  0.69140  Biso   1.000  F
  F42      1.0000 0.33810  0.53940  0.69140  Biso   1.000  F
  F43      1.0000 0.16190  0.03940  0.80860  Biso   1.000  F
  F44      1.0000 0.66190  0.53940  0.80860  Biso   1.000  F
  F45      1.0000 0.16190  0.96060  0.30860  Biso   1.000  F
  F46      1.0000 0.66190  0.46060  0.30860  Biso   1.000  F
  F47      1.0000 0.83810  0.96060  0.19140  Biso   1.000  F
  F48      1.0000 0.33810  0.46060  0.19140  Biso   1.000  F
  C169     1.0000 0.57560  0.62320  0.50330  Biso   1.000  C
  C170     1.0000 0.07560  0.12320  0.50330  Biso   1.000  C
  C171     1.0000 0.42440  0.62320  0.99670  Biso   1.000  C
  C172     1.0000 0.92440  0.12320  0.99670  Biso   1.000  C
  C173     1.0000 0.42440  0.37680  0.49670  Biso   1.000  C
  C174     1.0000 0.92440  0.87680  0.49670  Biso   1.000  C
  C175     1.0000 0.57560  0.37680  0.00330  Biso   1.000  C
  C176     1.0000 0.07560  0.87680  0.00330  Biso   1.000  C
  F49      1.0000 0.89610  0.10200  0.67450  Biso   1.000  F
  F50      1.0000 0.39610  0.60200  0.67450  Biso   1.000  F
  F51      1.0000 0.10390  0.10200  0.82550  Biso   1.000  F
  F52      1.0000 0.60390  0.60200  0.82550  Biso   1.000  F
  F53      1.0000 0.10390  0.89800  0.32550  Biso   1.000  F
  F54      1.0000 0.60390  0.39800  0.32550  Biso   1.000  F
  F55      1.0000 0.89610  0.89800  0.17450  Biso   1.000  F
  F56      1.0000 0.39610  0.39800  0.17450  Biso   1.000  F
  F57      1.0000 0.61340  0.66030  0.50200  Biso   1.000  F
  F58      1.0000 0.11340  0.16030  0.50200  Biso   1.000  F
  F59      1.0000 0.38660  0.66030  0.99800  Biso   1.000  F
  F60      1.0000 0.88660  0.16030  0.99800  Biso   1.000  F
  F61      1.0000 0.38660  0.33970  0.49800  Biso   1.000  F
  F62      1.0000 0.88660  0.83970  0.49800  Biso   1.000  F
  F63      1.0000 0.61340  0.33970  0.00200  Biso   1.000  F
  F64      1.0000 0.11340  0.83970  0.00200  Biso   1.000  F
  F65      1.0000 0.57290  0.47890  0.52080  Biso   1.000  F
  F66      1.0000 0.07290  0.97890  0.52080  Biso   1.000  F
  F67      1.0000 0.42710  0.47890  0.97920  Biso   1.000  F
  F68      1.0000 0.92710  0.97890  0.97920  Biso   1.000  F
  F69      1.0000 0.42710  0.52110  0.47920  Biso   1.000  F
  F70      1.0000 0.92710  0.02110  0.47920  Biso   1.000  F
  F71      1.0000 0.57290  0.52110  0.02080  Biso   1.000  F
  F72      1.0000 0.07290  0.02110  0.02080  Biso   1.000  F
  F73      1.0000 0.91610  0.94300  0.68610  Biso   1.000  F
  F74      1.0000 0.41610  0.44300  0.68610  Biso   1.000  F
  F75      1.0000 0.08390  0.94300  0.81390  Biso   1.000  F
  F76      1.0000 0.58390  0.44300  0.81390  Biso   1.000  F
  F77      1.0000 0.08390  0.05700  0.31390  Biso   1.000  F
  F78      1.0000 0.58390  0.55700  0.31390  Biso   1.000  F
  F79      1.0000 0.91610  0.05700  0.18610  Biso   1.000  F
  F80      1.0000 0.41610  0.55700  0.18610  Biso   1.000  F
  F81      1.0000 0.58240  0.64820  0.46400  Biso   1.000  F
  F82      1.0000 0.08240  0.14820  0.46400  Biso   1.000  F
  F83      1.0000 0.41760  0.64820  0.03600  Biso   1.000  F
  F84      1.0000 0.91760  0.14820  0.03600  Biso   1.000  F
  F85      1.0000 0.41760  0.35180  0.53600  Biso   1.000  F
  F86      1.0000 0.91760  0.85180  0.53600  Biso   1.000  F
  F87      1.0000 0.58240  0.35180  0.96400  Biso   1.000  F
  F88      1.0000 0.08240  0.85180  0.96400  Biso   1.000  F
  F89      1.0000 0.63310  0.62290  0.56180  Biso   1.000  F
  F90      1.0000 0.13310  0.12290  0.56180  Biso   1.000  F
  F91      1.0000 0.36690  0.62290  0.93820  Biso   1.000  F
  F92      1.0000 0.86690  0.12290  0.93820  Biso   1.000  F
  F93      1.0000 0.36690  0.37710  0.43820  Biso   1.000  F
  F94      1.0000 0.86690  0.87710  0.43820  Biso   1.000  F
  F95      1.0000 0.63310  0.37710  0.06180  Biso   1.000  F
  F96      1.0000 0.13310  0.87710  0.06180  Biso   1.000  F
  F97      1.0000 0.85510  0.96100  0.70360  Biso   1.000  F
  F98      1.0000 0.35510  0.46100  0.70360  Biso   1.000  F
  F99      1.0000 0.14490  0.96100  0.79640  Biso   1.000  F
  F100     1.0000 0.64490  0.46100  0.79640  Biso   1.000  F
  F101     1.0000 0.14490  0.03900  0.29640  Biso   1.000  F
  F102     1.0000 0.64490  0.53900  0.29640  Biso   1.000  F
  F103     1.0000 0.85510  0.03900  0.20360  Biso   1.000  F
  F104     1.0000 0.35510  0.53900  0.20360  Biso   1.000  F
  F105     1.0000 0.53680  0.59550  0.43310  Biso   1.000  F
  F106     1.0000 0.03680  0.09550  0.43310  Biso   1.000  F
  F107     1.0000 0.46320  0.59550  0.06690  Biso   1.000  F
  F108     1.0000 0.96320  0.09550  0.06690  Biso   1.000  F
  F109     1.0000 0.46320  0.40450  0.56690  Biso   1.000  F
  F110     1.0000 0.96320  0.90450  0.56690  Biso   1.000  F
  F111     1.0000 0.53680  0.40450  0.93310  Biso   1.000  F
  F112     1.0000 0.03680  0.90450  0.93310  Biso   1.000  F
  F113     1.0000 0.87910  0.12990  0.67490  Biso   1.000  F
  F114     1.0000 0.37910  0.62990  0.67490  Biso   1.000  F
  F115     1.0000 0.12090  0.12990  0.82510  Biso   1.000  F
  F116     1.0000 0.62090  0.62990  0.82510  Biso   1.000  F
  F117     1.0000 0.12090  0.87010  0.32510  Biso   1.000  F
  F118     1.0000 0.62090  0.37010  0.32510  Biso   1.000  F
  F119     1.0000 0.87910  0.87010  0.17490  Biso   1.000  F
  F120     1.0000 0.37910  0.37010  0.17490  Biso   1.000  F
  F121     1.0000 0.72130  0.15930  0.39390  Biso   1.000  F
  F122     1.0000 0.22130  0.65930  0.39390  Biso   1.000  F
  F123     1.0000 0.27870  0.15930  0.10610  Biso   1.000  F
  F124     1.0000 0.77870  0.65930  0.10610  Biso   1.000  F
  F125     1.0000 0.27870  0.84070  0.60610  Biso   1.000  F
  F126     1.0000 0.77870  0.34070  0.60610  Biso   1.000  F
  F127     1.0000 0.72130  0.84070  0.89390  Biso   1.000  F
  F128     1.0000 0.22130  0.34070  0.89390  Biso   1.000  F
  F129     1.0000 0.80910  0.14570  0.42420  Biso   1.000  F
  F130     1.0000 0.30910  0.64570  0.42420  Biso   1.000  F
  F131     1.0000 0.19090  0.14570  0.07580  Biso   1.000  F
  F132     1.0000 0.69090  0.64570  0.07580  Biso   1.000  F
  F133     1.0000 0.19090  0.85430  0.57580  Biso   1.000  F
  F134     1.0000 0.69090  0.35430  0.57580  Biso   1.000  F
  F135     1.0000 0.80910  0.85430  0.92420  Biso   1.000  F
  F136     1.0000 0.30910  0.35430  0.92420  Biso   1.000  F
  F137     1.0000 0.78950  0.25700  0.46320  Biso   1.000  F
  F138     1.0000 0.28950  0.75700  0.46320  Biso   1.000  F
  F139     1.0000 0.21050  0.25700  0.03680  Biso   1.000  F
  F140     1.0000 0.71050  0.75700  0.03680  Biso   1.000  F
  F141     1.0000 0.21050  0.74300  0.53680  Biso   1.000  F
  F142     1.0000 0.71050  0.24300  0.53680  Biso   1.000  F
  F143     1.0000 0.78950  0.74300  0.96320  Biso   1.000  F
  F144     1.0000 0.28950  0.24300  0.96320  Biso   1.000  F
  F145     1.0000 0.73190  0.14890  0.39180  Biso   1.000  F
  F146     1.0000 0.23190  0.64890  0.39180  Biso   1.000  F
  F147     1.0000 0.26810  0.14890  0.10820  Biso   1.000  F
  F148     1.0000 0.76810  0.64890  0.10820  Biso   1.000  F
  F149     1.0000 0.26810  0.85110  0.60820  Biso   1.000  F
  F150     1.0000 0.76810  0.35110  0.60820  Biso   1.000  F
  F151     1.0000 0.73190  0.85110  0.89180  Biso   1.000  F
  F152     1.0000 0.23190  0.35110  0.89180  Biso   1.000  F
  F153     1.0000 0.79710  0.11630  0.40430  Biso   1.000  F
  F154     1.0000 0.29710  0.61630  0.40430  Biso   1.000  F
  F155     1.0000 0.20290  0.11630  0.09570  Biso   1.000  F
  F156     1.0000 0.70290  0.61630  0.09570  Biso   1.000  F
  F157     1.0000 0.20290  0.88370  0.59570  Biso   1.000  F
  F158     1.0000 0.70290  0.38370  0.59570  Biso   1.000  F
  F159     1.0000 0.79710  0.88370  0.90430  Biso   1.000  F
  F160     1.0000 0.29710  0.38370  0.90430  Biso   1.000  F
  F161     1.0000 0.78390  0.27810  0.46880  Biso   1.000  F
  F162     1.0000 0.28390  0.77810  0.46880  Biso   1.000  F
  F163     1.0000 0.21610  0.27810  0.03120  Biso   1.000  F
  F164     1.0000 0.71610  0.77810  0.03120  Biso   1.000  F
  F165     1.0000 0.21610  0.72190  0.53120  Biso   1.000  F
  F166     1.0000 0.71610  0.22190  0.53120  Biso   1.000  F
  F167     1.0000 0.78390  0.72190  0.96880  Biso   1.000  F
  F168     1.0000 0.28390  0.22190  0.96880  Biso   1.000  F
