data_image0
_cell_length_a       29.567
_cell_length_b       9.4951
_cell_length_c       24.457
_cell_angle_alpha    90
_cell_angle_beta     121.583
_cell_angle_gamma    90

_symmetry_space_group_name_H-M    "P 1"
_symmetry_int_tables_number       1

loop_
  _symmetry_equiv_pos_as_xyz
  'x, y, z'

loop_
  _atom_site_label
  _atom_site_occupancy
  _atom_site_fract_x
  _atom_site_fract_y
  _atom_site_fract_z
  _atom_site_thermal_displace_type
  _atom_site_B_iso_or_equiv
  _atom_site_type_symbol
  Cu1      1.0000 0.50000  0.00000  0.50000  Biso   1.000  Cu
  Cu2      1.0000 0.00000  0.50000  0.50000  Biso   1.000  Cu
  Cu3      1.0000 0.50000  0.00000  0.00000  Biso   1.000  Cu
  Cu4      1.0000 0.00000  0.50000  0.00000  Biso   1.000  Cu
  Cu5      1.0000 0.75000  0.75000  0.50000  Biso   1.000  Cu
  Cu6      1.0000 0.25000  0.25000  0.50000  Biso   1.000  Cu
  Cu7      1.0000 0.25000  0.75000  0.00000  Biso   1.000  Cu
  Cu8      1.0000 0.75000  0.25000  0.00000  Biso   1.000  Cu
  O1       1.0000 0.49949  0.90750  0.57390  Biso   1.000  O
  O2       1.0000 0.99949  0.40750  0.57390  Biso   1.000  O
  O3       1.0000 0.50051  0.90750  0.92610  Biso   1.000  O
  O4       1.0000 0.00051  0.40750  0.92610  Biso   1.000  O
  O5       1.0000 0.50051  0.09250  0.42610  Biso   1.000  O
  O6       1.0000 0.00051  0.59250  0.42610  Biso   1.000  O
  O7       1.0000 0.49949  0.09250  0.07390  Biso   1.000  O
  O8       1.0000 0.99949  0.59250  0.07390  Biso   1.000  O
  O9       1.0000 0.81351  0.83330  0.59332  Biso   1.000  O
  O10      1.0000 0.31351  0.33330  0.59332  Biso   1.000  O
  O11      1.0000 0.18649  0.83330  0.90668  Biso   1.000  O
  O12      1.0000 0.68649  0.33330  0.90668  Biso   1.000  O
  O13      1.0000 0.18649  0.16670  0.40668  Biso   1.000  O
  O14      1.0000 0.68649  0.66670  0.40668  Biso   1.000  O
  O15      1.0000 0.81351  0.16670  0.09332  Biso   1.000  O
  O16      1.0000 0.31351  0.66670  0.09332  Biso   1.000  O
  O17      1.0000 0.57386  0.12930  0.55765  Biso   1.000  O
  O18      1.0000 0.07386  0.62930  0.55765  Biso   1.000  O
  O19      1.0000 0.42614  0.12930  0.94235  Biso   1.000  O
  O20      1.0000 0.92614  0.62930  0.94235  Biso   1.000  O
  O21      1.0000 0.42614  0.87070  0.44235  Biso   1.000  O
  O22      1.0000 0.92614  0.37070  0.44235  Biso   1.000  O
  O23      1.0000 0.57386  0.87070  0.05765  Biso   1.000  O
  O24      1.0000 0.07386  0.37070  0.05765  Biso   1.000  O
  O25      1.0000 0.75989  0.91600  0.45790  Biso   1.000  O
  O26      1.0000 0.25989  0.41600  0.45790  Biso   1.000  O
  O27      1.0000 0.24011  0.91600  0.04210  Biso   1.000  O
  O28      1.0000 0.74011  0.41600  0.04210  Biso   1.000  O
  O29      1.0000 0.24011  0.08400  0.54210  Biso   1.000  O
  O30      1.0000 0.74011  0.58400  0.54210  Biso   1.000  O
  O31      1.0000 0.75989  0.08400  0.95790  Biso   1.000  O
  O32      1.0000 0.25989  0.58400  0.95790  Biso   1.000  O
  N1       1.0000 0.69726  0.86840  0.51496  Biso   1.000  N
  N2       1.0000 0.19726  0.36840  0.51496  Biso   1.000  N
  N3       1.0000 0.30274  0.86840  0.98504  Biso   1.000  N
  N4       1.0000 0.80274  0.36840  0.98504  Biso   1.000  N
  N5       1.0000 0.30274  0.13160  0.48504  Biso   1.000  N
  N6       1.0000 0.80274  0.63160  0.48504  Biso   1.000  N
  N7       1.0000 0.69726  0.13160  0.01496  Biso   1.000  N
  N8       1.0000 0.19726  0.63160  0.01496  Biso   1.000  N
  N9       1.0000 0.61495  0.09230  0.61208  Biso   1.000  N
  N10      1.0000 0.11495  0.59230  0.61208  Biso   1.000  N
  N11      1.0000 0.38505  0.09230  0.88792  Biso   1.000  N
  N12      1.0000 0.88505  0.59230  0.88792  Biso   1.000  N
  N13      1.0000 0.38505  0.90770  0.38792  Biso   1.000  N
  N14      1.0000 0.88505  0.40770  0.38792  Biso   1.000  N
  N15      1.0000 0.61495  0.90770  0.11208  Biso   1.000  N
  N16      1.0000 0.11495  0.40770  0.11208  Biso   1.000  N
  O33      1.0000 0.53940  0.83940  0.49450  Biso   1.000  O
  O34      1.0000 0.03940  0.33940  0.49450  Biso   1.000  O
  O35      1.0000 0.46060  0.83940  0.00550  Biso   1.000  O
  O36      1.0000 0.96060  0.33940  0.00550  Biso   1.000  O
  O37      1.0000 0.46060  0.16060  0.50550  Biso   1.000  O
  O38      1.0000 0.96060  0.66060  0.50550  Biso   1.000  O
  O39      1.0000 0.53940  0.16060  0.99450  Biso   1.000  O
  O40      1.0000 0.03940  0.66060  0.99450  Biso   1.000  O
  C1       1.0000 0.70338  0.88640  0.57234  Biso   1.000  C
  C2       1.0000 0.20338  0.38640  0.57234  Biso   1.000  C
  C3       1.0000 0.29662  0.88640  0.92766  Biso   1.000  C
  C4       1.0000 0.79662  0.38640  0.92766  Biso   1.000  C
  C5       1.0000 0.29662  0.11360  0.42766  Biso   1.000  C
  C6       1.0000 0.79662  0.61360  0.42766  Biso   1.000  C
  C7       1.0000 0.70338  0.11360  0.07234  Biso   1.000  C
  C8       1.0000 0.20338  0.61360  0.07234  Biso   1.000  C
  H1       1.0000 0.73220  0.84600  0.60740  Biso   1.000  H
  H2       1.0000 0.23220  0.34600  0.60740  Biso   1.000  H
  H3       1.0000 0.26780  0.84600  0.89260  Biso   1.000  H
  H4       1.0000 0.76780  0.34600  0.89260  Biso   1.000  H
  H5       1.0000 0.26780  0.15400  0.39260  Biso   1.000  H
  H6       1.0000 0.76780  0.65400  0.39260  Biso   1.000  H
  H7       1.0000 0.73220  0.15400  0.10740  Biso   1.000  H
  H8       1.0000 0.23220  0.65400  0.10740  Biso   1.000  H
  N17      1.0000 0.65278  0.94290  0.47319  Biso   1.000  N
  N18      1.0000 0.15278  0.44290  0.47319  Biso   1.000  N
  N19      1.0000 0.34722  0.94290  0.02681  Biso   1.000  N
  N20      1.0000 0.84722  0.44290  0.02681  Biso   1.000  N
  N21      1.0000 0.34722  0.05710  0.52681  Biso   1.000  N
  N22      1.0000 0.84722  0.55710  0.52681  Biso   1.000  N
  N23      1.0000 0.65278  0.05710  0.97319  Biso   1.000  N
  N24      1.0000 0.15278  0.55710  0.97319  Biso   1.000  N
  N25      1.0000 0.69205  0.00440  0.68260  Biso   1.000  N
  N26      1.0000 0.19205  0.50440  0.68260  Biso   1.000  N
  N27      1.0000 0.30795  0.00440  0.81740  Biso   1.000  N
  N28      1.0000 0.80795  0.50440  0.81740  Biso   1.000  N
  N29      1.0000 0.30795  0.99560  0.31740  Biso   1.000  N
  N30      1.0000 0.80795  0.49560  0.31740  Biso   1.000  N
  N31      1.0000 0.69205  0.99560  0.18260  Biso   1.000  N
  N32      1.0000 0.19205  0.49560  0.18260  Biso   1.000  N
  C9       1.0000 0.83054  0.95490  0.59909  Biso   1.000  C
  C10      1.0000 0.33054  0.45490  0.59909  Biso   1.000  C
  C11      1.0000 0.16946  0.95490  0.90091  Biso   1.000  C
  C12      1.0000 0.66946  0.45490  0.90091  Biso   1.000  C
  C13      1.0000 0.16946  0.04510  0.40091  Biso   1.000  C
  C14      1.0000 0.66946  0.54510  0.40091  Biso   1.000  C
  C15      1.0000 0.83054  0.04510  0.09909  Biso   1.000  C
  C16      1.0000 0.33054  0.54510  0.09909  Biso   1.000  C
  C17      1.0000 0.65655  0.02000  0.61928  Biso   1.000  C
  C18      1.0000 0.15655  0.52000  0.61928  Biso   1.000  C
  C19      1.0000 0.34345  0.02000  0.88072  Biso   1.000  C
  C20      1.0000 0.84345  0.52000  0.88072  Biso   1.000  C
  C21      1.0000 0.34345  0.98000  0.38072  Biso   1.000  C
  C22      1.0000 0.84345  0.48000  0.38072  Biso   1.000  C
  C23      1.0000 0.65655  0.98000  0.11928  Biso   1.000  C
  C24      1.0000 0.15655  0.48000  0.11928  Biso   1.000  C
  C25      1.0000 0.66328  0.97140  0.56846  Biso   1.000  C
  C26      1.0000 0.16328  0.47140  0.56846  Biso   1.000  C
  C27      1.0000 0.33672  0.97140  0.93154  Biso   1.000  C
  C28      1.0000 0.83672  0.47140  0.93154  Biso   1.000  C
  C29      1.0000 0.33672  0.02860  0.43154  Biso   1.000  C
  C30      1.0000 0.83672  0.52860  0.43154  Biso   1.000  C
  C31      1.0000 0.66328  0.02860  0.06846  Biso   1.000  C
  C32      1.0000 0.16328  0.52860  0.06846  Biso   1.000  C
  C33      1.0000 0.78501  0.02620  0.48625  Biso   1.000  C
  C34      1.0000 0.28501  0.52620  0.48625  Biso   1.000  C
  C35      1.0000 0.21499  0.02620  0.01375  Biso   1.000  C
  C36      1.0000 0.71499  0.52620  0.01375  Biso   1.000  C
  C37      1.0000 0.21499  0.97380  0.51375  Biso   1.000  C
  C38      1.0000 0.71499  0.47380  0.51375  Biso   1.000  C
  C39      1.0000 0.78501  0.97380  0.98625  Biso   1.000  C
  C40      1.0000 0.28501  0.47380  0.98625  Biso   1.000  C
  C41      1.0000 0.63169  0.00390  0.50381  Biso   1.000  C
  C42      1.0000 0.13169  0.50390  0.50381  Biso   1.000  C
  C43      1.0000 0.36831  0.00390  0.99619  Biso   1.000  C
  C44      1.0000 0.86831  0.50390  0.99619  Biso   1.000  C
  C45      1.0000 0.36831  0.99610  0.49619  Biso   1.000  C
  C46      1.0000 0.86831  0.49610  0.49619  Biso   1.000  C
  C47      1.0000 0.63169  0.99610  0.00381  Biso   1.000  C
  C48      1.0000 0.13169  0.49610  0.00381  Biso   1.000  C
  H9       1.0000 0.60300  0.05200  0.48400  Biso   1.000  H
  H10      1.0000 0.10300  0.55200  0.48400  Biso   1.000  H
  H11      1.0000 0.39700  0.05200  0.01600  Biso   1.000  H
  H12      1.0000 0.89700  0.55200  0.01600  Biso   1.000  H
  H13      1.0000 0.39700  0.94800  0.51600  Biso   1.000  H
  H14      1.0000 0.89700  0.44800  0.51600  Biso   1.000  H
  H15      1.0000 0.60300  0.94800  0.98400  Biso   1.000  H
  H16      1.0000 0.10300  0.44800  0.98400  Biso   1.000  H
  C49      1.0000 0.54891  0.72580  0.52420  Biso   1.000  C
  C50      1.0000 0.04891  0.22580  0.52420  Biso   1.000  C
  C51      1.0000 0.45109  0.72580  0.97580  Biso   1.000  C
  C52      1.0000 0.95109  0.22580  0.97580  Biso   1.000  C
  C53      1.0000 0.45109  0.27420  0.47580  Biso   1.000  C
  C54      1.0000 0.95109  0.77420  0.47580  Biso   1.000  C
  C55      1.0000 0.54891  0.27420  0.02420  Biso   1.000  C
  C56      1.0000 0.04891  0.77420  0.02420  Biso   1.000  C
  C57      1.0000 0.51343  0.78440  0.59176  Biso   1.000  C
  C58      1.0000 0.01343  0.28440  0.59176  Biso   1.000  C
  C59      1.0000 0.48657  0.78440  0.90824  Biso   1.000  C
  C60      1.0000 0.98657  0.28440  0.90824  Biso   1.000  C
  C61      1.0000 0.48657  0.21560  0.40824  Biso   1.000  C
  C62      1.0000 0.98657  0.71560  0.40824  Biso   1.000  C
  C63      1.0000 0.51343  0.21560  0.09176  Biso   1.000  C
  C64      1.0000 0.01343  0.71560  0.09176  Biso   1.000  C
  O41      1.0000 0.73641  0.94210  0.70666  Biso   1.000  O
  O42      1.0000 0.23641  0.44210  0.70666  Biso   1.000  O
  O43      1.0000 0.26359  0.94210  0.79334  Biso   1.000  O
  O44      1.0000 0.76359  0.44210  0.79334  Biso   1.000  O
  O45      1.0000 0.26359  0.05790  0.29334  Biso   1.000  O
  O46      1.0000 0.76359  0.55790  0.29334  Biso   1.000  O
  O47      1.0000 0.73641  0.05790  0.20666  Biso   1.000  O
  O48      1.0000 0.23641  0.55790  0.20666  Biso   1.000  O
  C65      1.0000 0.66965  0.05230  0.72244  Biso   1.000  C
  C66      1.0000 0.16965  0.55230  0.72244  Biso   1.000  C
  C67      1.0000 0.33035  0.05230  0.77756  Biso   1.000  C
  C68      1.0000 0.83035  0.55230  0.77756  Biso   1.000  C
  C69      1.0000 0.33035  0.94770  0.27756  Biso   1.000  C
  C70      1.0000 0.83035  0.44770  0.27756  Biso   1.000  C
  C71      1.0000 0.66965  0.94770  0.22244  Biso   1.000  C
  C72      1.0000 0.16965  0.44770  0.22244  Biso   1.000  C
  C73      1.0000 0.81863  0.05230  0.55076  Biso   1.000  C
  C74      1.0000 0.31863  0.55230  0.55076  Biso   1.000  C
  C75      1.0000 0.18137  0.05230  0.94924  Biso   1.000  C
  C76      1.0000 0.68137  0.55230  0.94924  Biso   1.000  C
  C77      1.0000 0.18137  0.94770  0.44924  Biso   1.000  C
  C78      1.0000 0.68137  0.44770  0.44924  Biso   1.000  C
  C79      1.0000 0.81863  0.94770  0.05076  Biso   1.000  C
  C80      1.0000 0.31863  0.44770  0.05076  Biso   1.000  C
  H17      1.0000 0.83350  0.14200  0.56340  Biso   1.000  H
  H18      1.0000 0.33350  0.64200  0.56340  Biso   1.000  H
  H19      1.0000 0.16650  0.14200  0.93660  Biso   1.000  H
  H20      1.0000 0.66650  0.64200  0.93660  Biso   1.000  H
  H21      1.0000 0.16650  0.85800  0.43660  Biso   1.000  H
  H22      1.0000 0.66650  0.35800  0.43660  Biso   1.000  H
  H23      1.0000 0.83350  0.85800  0.06340  Biso   1.000  H
  H24      1.0000 0.33350  0.35800  0.06340  Biso   1.000  H
  C81      1.0000 0.62608  0.15420  0.67486  Biso   1.000  C
  C82      1.0000 0.12608  0.65420  0.67486  Biso   1.000  C
  C83      1.0000 0.37392  0.15420  0.82514  Biso   1.000  C
  C84      1.0000 0.87392  0.65420  0.82514  Biso   1.000  C
  C85      1.0000 0.37392  0.84580  0.32514  Biso   1.000  C
  C86      1.0000 0.87392  0.34580  0.32514  Biso   1.000  C
  C87      1.0000 0.62608  0.84580  0.17486  Biso   1.000  C
  C88      1.0000 0.12608  0.34580  0.17486  Biso   1.000  C
  C89      1.0000 0.77530  0.14750  0.43970  Biso   1.000  C
  C90      1.0000 0.27530  0.64750  0.43970  Biso   1.000  C
  C91      1.0000 0.22470  0.14750  0.06030  Biso   1.000  C
  C92      1.0000 0.72470  0.64750  0.06030  Biso   1.000  C
  C93      1.0000 0.22470  0.85250  0.56030  Biso   1.000  C
  C94      1.0000 0.72470  0.35250  0.56030  Biso   1.000  C
  C95      1.0000 0.77530  0.85250  0.93970  Biso   1.000  C
  C96      1.0000 0.27530  0.35250  0.93970  Biso   1.000  C
  F1       1.0000 0.51792  0.82250  0.68992  Biso   1.000  F
  F2       1.0000 0.01792  0.32250  0.68992  Biso   1.000  F
  F3       1.0000 0.48208  0.82250  0.81008  Biso   1.000  F
  F4       1.0000 0.98208  0.32250  0.81008  Biso   1.000  F
  F5       1.0000 0.48208  0.17750  0.31008  Biso   1.000  F
  F6       1.0000 0.98208  0.67750  0.31008  Biso   1.000  F
  F7       1.0000 0.51792  0.17750  0.18992  Biso   1.000  F
  F8       1.0000 0.01792  0.67750  0.18992  Biso   1.000  F
  F9       1.0000 0.44792  0.72430  0.61357  Biso   1.000  F
  F10      1.0000 0.94792  0.22430  0.61357  Biso   1.000  F
  F11      1.0000 0.55208  0.72430  0.88643  Biso   1.000  F
  F12      1.0000 0.05208  0.22430  0.88643  Biso   1.000  F
  F13      1.0000 0.55208  0.27570  0.38643  Biso   1.000  F
  F14      1.0000 0.05208  0.77570  0.38643  Biso   1.000  F
  F15      1.0000 0.44792  0.27570  0.11357  Biso   1.000  F
  F16      1.0000 0.94792  0.77570  0.11357  Biso   1.000  F
  C97      1.0000 0.64610  0.30300  0.67650  Biso   1.000  C
  C98      1.0000 0.14610  0.80300  0.67650  Biso   1.000  C
  C99      1.0000 0.35390  0.30300  0.82350  Biso   1.000  C
  C100     1.0000 0.85390  0.80300  0.82350  Biso   1.000  C
  C101     1.0000 0.35390  0.69700  0.32350  Biso   1.000  C
  C102     1.0000 0.85390  0.19700  0.32350  Biso   1.000  C
  C103     1.0000 0.64610  0.69700  0.17650  Biso   1.000  C
  C104     1.0000 0.14610  0.19700  0.17650  Biso   1.000  C
  H25      1.0000 0.67690  0.30600  0.67400  Biso   1.000  H
  H26      1.0000 0.17690  0.80600  0.67400  Biso   1.000  H
  H27      1.0000 0.32310  0.30600  0.82600  Biso   1.000  H
  H28      1.0000 0.82310  0.80600  0.82600  Biso   1.000  H
  H29      1.0000 0.32310  0.69400  0.32600  Biso   1.000  H
  H30      1.0000 0.82310  0.19400  0.32600  Biso   1.000  H
  H31      1.0000 0.67690  0.69400  0.17400  Biso   1.000  H
  H32      1.0000 0.17690  0.19400  0.17400  Biso   1.000  H
  H33      1.0000 0.65120  0.35200  0.71180  Biso   1.000  H
  H34      1.0000 0.15120  0.85200  0.71180  Biso   1.000  H
  H35      1.0000 0.34880  0.35200  0.78820  Biso   1.000  H
  H36      1.0000 0.84880  0.85200  0.78820  Biso   1.000  H
  H37      1.0000 0.34880  0.64800  0.28820  Biso   1.000  H
  H38      1.0000 0.84880  0.14800  0.28820  Biso   1.000  H
  H39      1.0000 0.65120  0.64800  0.21180  Biso   1.000  H
  H40      1.0000 0.15120  0.14800  0.21180  Biso   1.000  H
  H41      1.0000 0.61740  0.35000  0.64050  Biso   1.000  H
  H42      1.0000 0.11740  0.85000  0.64050  Biso   1.000  H
  H43      1.0000 0.38260  0.35000  0.85950  Biso   1.000  H
  H44      1.0000 0.88260  0.85000  0.85950  Biso   1.000  H
  H45      1.0000 0.38260  0.65000  0.35950  Biso   1.000  H
  H46      1.0000 0.88260  0.15000  0.35950  Biso   1.000  H
  H47      1.0000 0.61740  0.65000  0.14050  Biso   1.000  H
  H48      1.0000 0.11740  0.15000  0.14050  Biso   1.000  H
  C105     1.0000 0.57546  0.15740  0.67680  Biso   1.000  C
  C106     1.0000 0.07546  0.65740  0.67680  Biso   1.000  C
  C107     1.0000 0.42454  0.15740  0.82320  Biso   1.000  C
  C108     1.0000 0.92454  0.65740  0.82320  Biso   1.000  C
  C109     1.0000 0.42454  0.84260  0.32320  Biso   1.000  C
  C110     1.0000 0.92454  0.34260  0.32320  Biso   1.000  C
  C111     1.0000 0.57546  0.84260  0.17680  Biso   1.000  C
  C112     1.0000 0.07546  0.34260  0.17680  Biso   1.000  C
  H49      1.0000 0.54650  0.22700  0.63900  Biso   1.000  H
  H50      1.0000 0.04650  0.72700  0.63900  Biso   1.000  H
  H51      1.0000 0.45350  0.22700  0.86100  Biso   1.000  H
  H52      1.0000 0.95350  0.72700  0.86100  Biso   1.000  H
  H53      1.0000 0.45350  0.77300  0.36100  Biso   1.000  H
  H54      1.0000 0.95350  0.27300  0.36100  Biso   1.000  H
  H55      1.0000 0.54650  0.77300  0.13900  Biso   1.000  H
  H56      1.0000 0.04650  0.27300  0.13900  Biso   1.000  H
  H57      1.0000 0.58370  0.18700  0.71500  Biso   1.000  H
  H58      1.0000 0.08370  0.68700  0.71500  Biso   1.000  H
  H59      1.0000 0.41630  0.18700  0.78500  Biso   1.000  H
  H60      1.0000 0.91630  0.68700  0.78500  Biso   1.000  H
  H61      1.0000 0.41630  0.81300  0.28500  Biso   1.000  H
  H62      1.0000 0.91630  0.31300  0.28500  Biso   1.000  H
  H63      1.0000 0.58370  0.81300  0.21500  Biso   1.000  H
  H64      1.0000 0.08370  0.31300  0.21500  Biso   1.000  H
  H65      1.0000 0.55770  0.07200  0.66870  Biso   1.000  H
  H66      1.0000 0.05770  0.57200  0.66870  Biso   1.000  H
  H67      1.0000 0.44230  0.07200  0.83130  Biso   1.000  H
  H68      1.0000 0.94230  0.57200  0.83130  Biso   1.000  H
  H69      1.0000 0.44230  0.92800  0.33130  Biso   1.000  H
  H70      1.0000 0.94230  0.42800  0.33130  Biso   1.000  H
  H71      1.0000 0.55770  0.92800  0.16870  Biso   1.000  H
  H72      1.0000 0.05770  0.42800  0.16870  Biso   1.000  H
  C113     1.0000 0.63222  0.95230  0.40413  Biso   1.000  C
  C114     1.0000 0.13222  0.45230  0.40413  Biso   1.000  C
  C115     1.0000 0.36778  0.95230  0.09587  Biso   1.000  C
  C116     1.0000 0.86778  0.45230  0.09587  Biso   1.000  C
  C117     1.0000 0.36778  0.04770  0.59587  Biso   1.000  C
  C118     1.0000 0.86778  0.54770  0.59587  Biso   1.000  C
  C119     1.0000 0.63222  0.04770  0.90413  Biso   1.000  C
  C120     1.0000 0.13222  0.54770  0.90413  Biso   1.000  C
  H73      1.0000 0.65730  0.91200  0.39780  Biso   1.000  H
  H74      1.0000 0.15730  0.41200  0.39780  Biso   1.000  H
  H75      1.0000 0.34270  0.91200  0.10220  Biso   1.000  H
  H76      1.0000 0.84270  0.41200  0.10220  Biso   1.000  H
  H77      1.0000 0.34270  0.08800  0.60220  Biso   1.000  H
  H78      1.0000 0.84270  0.58800  0.60220  Biso   1.000  H
  H79      1.0000 0.65730  0.08800  0.89780  Biso   1.000  H
  H80      1.0000 0.15730  0.58800  0.89780  Biso   1.000  H
  H81      1.0000 0.62490  0.04800  0.38970  Biso   1.000  H
  H82      1.0000 0.12490  0.54800  0.38970  Biso   1.000  H
  H83      1.0000 0.37510  0.04800  0.11030  Biso   1.000  H
  H84      1.0000 0.87510  0.54800  0.11030  Biso   1.000  H
  H85      1.0000 0.37510  0.95200  0.61030  Biso   1.000  H
  H86      1.0000 0.87510  0.45200  0.61030  Biso   1.000  H
  H87      1.0000 0.62490  0.95200  0.88970  Biso   1.000  H
  H88      1.0000 0.12490  0.45200  0.88970  Biso   1.000  H
  C121     1.0000 0.86776  0.00500  0.66850  Biso   1.000  C
  C122     1.0000 0.36776  0.50500  0.66850  Biso   1.000  C
  C123     1.0000 0.13224  0.00500  0.83150  Biso   1.000  C
  C124     1.0000 0.63224  0.50500  0.83150  Biso   1.000  C
  C125     1.0000 0.13224  0.99500  0.33150  Biso   1.000  C
  C126     1.0000 0.63224  0.49500  0.33150  Biso   1.000  C
  C127     1.0000 0.86776  0.99500  0.16850  Biso   1.000  C
  C128     1.0000 0.36776  0.49500  0.16850  Biso   1.000  C
  C129     1.0000 0.64870  0.91920  0.73650  Biso   1.000  C
  C130     1.0000 0.14870  0.41920  0.73650  Biso   1.000  C
  C131     1.0000 0.35130  0.91920  0.76350  Biso   1.000  C
  C132     1.0000 0.85130  0.41920  0.76350  Biso   1.000  C
  C133     1.0000 0.35130  0.08080  0.26350  Biso   1.000  C
  C134     1.0000 0.85130  0.58080  0.26350  Biso   1.000  C
  C135     1.0000 0.64870  0.08080  0.23650  Biso   1.000  C
  C136     1.0000 0.14870  0.58080  0.23650  Biso   1.000  C
  H89      1.0000 0.62180  0.88000  0.69780  Biso   1.000  H
  H90      1.0000 0.12180  0.38000  0.69780  Biso   1.000  H
  H91      1.0000 0.37820  0.88000  0.80220  Biso   1.000  H
  H92      1.0000 0.87820  0.38000  0.80220  Biso   1.000  H
  H93      1.0000 0.37820  0.12000  0.30220  Biso   1.000  H
  H94      1.0000 0.87820  0.62000  0.30220  Biso   1.000  H
  H95      1.0000 0.62180  0.12000  0.19780  Biso   1.000  H
  H96      1.0000 0.12180  0.62000  0.19780  Biso   1.000  H
  H97      1.0000 0.63540  0.94700  0.76400  Biso   1.000  H
  H98      1.0000 0.13540  0.44700  0.76400  Biso   1.000  H
  H99      1.0000 0.36460  0.94700  0.73600  Biso   1.000  H
  H100     1.0000 0.86460  0.44700  0.73600  Biso   1.000  H
  H101     1.0000 0.36460  0.05300  0.23600  Biso   1.000  H
  H102     1.0000 0.86460  0.55300  0.23600  Biso   1.000  H
  H103     1.0000 0.63540  0.05300  0.26400  Biso   1.000  H
  H104     1.0000 0.13540  0.55300  0.26400  Biso   1.000  H
  H105     1.0000 0.68010  0.85500  0.75870  Biso   1.000  H
  H106     1.0000 0.18010  0.35500  0.75870  Biso   1.000  H
  H107     1.0000 0.31990  0.85500  0.74130  Biso   1.000  H
  H108     1.0000 0.81990  0.35500  0.74130  Biso   1.000  H
  H109     1.0000 0.31990  0.14500  0.24130  Biso   1.000  H
  H110     1.0000 0.81990  0.64500  0.24130  Biso   1.000  H
  H111     1.0000 0.68010  0.14500  0.25870  Biso   1.000  H
  H112     1.0000 0.18010  0.64500  0.25870  Biso   1.000  H
  F17      1.0000 0.51977  0.61020  0.66568  Biso   1.000  F
  F18      1.0000 0.01977  0.11020  0.66568  Biso   1.000  F
  F19      1.0000 0.48023  0.61020  0.83432  Biso   1.000  F
  F20      1.0000 0.98023  0.11020  0.83432  Biso   1.000  F
  F21      1.0000 0.48023  0.38980  0.33432  Biso   1.000  F
  F22      1.0000 0.98023  0.88980  0.33432  Biso   1.000  F
  F23      1.0000 0.51977  0.38980  0.16568  Biso   1.000  F
  F24      1.0000 0.01977  0.88980  0.16568  Biso   1.000  F
  C137     1.0000 0.53858  0.69250  0.57180  Biso   1.000  C
  C138     1.0000 0.03858  0.19250  0.57180  Biso   1.000  C
  C139     1.0000 0.46142  0.69250  0.92820  Biso   1.000  C
  C140     1.0000 0.96142  0.19250  0.92820  Biso   1.000  C
  C141     1.0000 0.46142  0.30750  0.42820  Biso   1.000  C
  C142     1.0000 0.96142  0.80750  0.42820  Biso   1.000  C
  C143     1.0000 0.53858  0.30750  0.07180  Biso   1.000  C
  C144     1.0000 0.03858  0.80750  0.07180  Biso   1.000  C
  H113     1.0000 0.54480  0.61500  0.58530  Biso   1.000  H
  H114     1.0000 0.04480  0.11500  0.58530  Biso   1.000  H
  H115     1.0000 0.45520  0.61500  0.91470  Biso   1.000  H
  H116     1.0000 0.95520  0.11500  0.91470  Biso   1.000  H
  H117     1.0000 0.45520  0.38500  0.41470  Biso   1.000  H
  H118     1.0000 0.95520  0.88500  0.41470  Biso   1.000  H
  H119     1.0000 0.54480  0.38500  0.08530  Biso   1.000  H
  H120     1.0000 0.04480  0.88500  0.08530  Biso   1.000  H
  C145     1.0000 0.71310  0.11840  0.78430  Biso   1.000  C
  C146     1.0000 0.21310  0.61840  0.78430  Biso   1.000  C
  C147     1.0000 0.28690  0.11840  0.71570  Biso   1.000  C
  C148     1.0000 0.78690  0.61840  0.71570  Biso   1.000  C
  C149     1.0000 0.28690  0.88160  0.21570  Biso   1.000  C
  C150     1.0000 0.78690  0.38160  0.21570  Biso   1.000  C
  C151     1.0000 0.71310  0.88160  0.28430  Biso   1.000  C
  C152     1.0000 0.21310  0.38160  0.28430  Biso   1.000  C
  H121     1.0000 0.73960  0.05100  0.80940  Biso   1.000  H
  H122     1.0000 0.23960  0.55100  0.80940  Biso   1.000  H
  H123     1.0000 0.26040  0.05100  0.69060  Biso   1.000  H
  H124     1.0000 0.76040  0.55100  0.69060  Biso   1.000  H
  H125     1.0000 0.26040  0.94900  0.19060  Biso   1.000  H
  H126     1.0000 0.76040  0.44900  0.19060  Biso   1.000  H
  H127     1.0000 0.73960  0.94900  0.30940  Biso   1.000  H
  H128     1.0000 0.23960  0.44900  0.30940  Biso   1.000  H
  H129     1.0000 0.69830  0.14800  0.80850  Biso   1.000  H
  H130     1.0000 0.19830  0.64800  0.80850  Biso   1.000  H
  H131     1.0000 0.30170  0.14800  0.69150  Biso   1.000  H
  H132     1.0000 0.80170  0.64800  0.69150  Biso   1.000  H
  H133     1.0000 0.30170  0.85200  0.19150  Biso   1.000  H
  H134     1.0000 0.80170  0.35200  0.19150  Biso   1.000  H
  H135     1.0000 0.69830  0.85200  0.30850  Biso   1.000  H
  H136     1.0000 0.19830  0.35200  0.30850  Biso   1.000  H
  H137     1.0000 0.72980  0.19100  0.77570  Biso   1.000  H
  H138     1.0000 0.22980  0.69100  0.77570  Biso   1.000  H
  H139     1.0000 0.27020  0.19100  0.72430  Biso   1.000  H
  H140     1.0000 0.77020  0.69100  0.72430  Biso   1.000  H
  H141     1.0000 0.27020  0.80900  0.22430  Biso   1.000  H
  H142     1.0000 0.77020  0.30900  0.22430  Biso   1.000  H
  H143     1.0000 0.72980  0.80900  0.27570  Biso   1.000  H
  H144     1.0000 0.22980  0.30900  0.27570  Biso   1.000  H
  C153     1.0000 0.49995  0.73310  0.64080  Biso   1.000  C
  C154     1.0000 0.99995  0.23310  0.64080  Biso   1.000  C
  C155     1.0000 0.50005  0.73310  0.85920  Biso   1.000  C
  C156     1.0000 0.00005  0.23310  0.85920  Biso   1.000  C
  C157     1.0000 0.50005  0.26690  0.35920  Biso   1.000  C
  C158     1.0000 0.00005  0.76690  0.35920  Biso   1.000  C
  C159     1.0000 0.49995  0.26690  0.14080  Biso   1.000  C
  C160     1.0000 0.99995  0.76690  0.14080  Biso   1.000  C
  C161     1.0000 0.57912  0.88340  0.36480  Biso   1.000  C
  C162     1.0000 0.07912  0.38340  0.36480  Biso   1.000  C
  C163     1.0000 0.42088  0.88340  0.13520  Biso   1.000  C
  C164     1.0000 0.92088  0.38340  0.13520  Biso   1.000  C
  C165     1.0000 0.42088  0.11660  0.63520  Biso   1.000  C
  C166     1.0000 0.92088  0.61660  0.63520  Biso   1.000  C
  C167     1.0000 0.57912  0.11660  0.86480  Biso   1.000  C
  C168     1.0000 0.07912  0.61660  0.86480  Biso   1.000  C
  H145     1.0000 0.56700  0.89230  0.32010  Biso   1.000  H
  H146     1.0000 0.06700  0.39230  0.32010  Biso   1.000  H
  H147     1.0000 0.43300  0.89230  0.17990  Biso   1.000  H
  H148     1.0000 0.93300  0.39230  0.17990  Biso   1.000  H
  H149     1.0000 0.43300  0.10770  0.67990  Biso   1.000  H
  H150     1.0000 0.93300  0.60770  0.67990  Biso   1.000  H
  H151     1.0000 0.56700  0.10770  0.82010  Biso   1.000  H
  H152     1.0000 0.06700  0.60770  0.82010  Biso   1.000  H
  H153     1.0000 0.55420  0.92820  0.37310  Biso   1.000  H
  H154     1.0000 0.05420  0.42820  0.37310  Biso   1.000  H
  H155     1.0000 0.44580  0.92820  0.12690  Biso   1.000  H
  H156     1.0000 0.94580  0.42820  0.12690  Biso   1.000  H
  H157     1.0000 0.44580  0.07180  0.62690  Biso   1.000  H
  H158     1.0000 0.94580  0.57180  0.62690  Biso   1.000  H
  H159     1.0000 0.55420  0.07180  0.87310  Biso   1.000  H
  H160     1.0000 0.05420  0.57180  0.87310  Biso   1.000  H
  H161     1.0000 0.58200  0.78550  0.37590  Biso   1.000  H
  H162     1.0000 0.08200  0.28550  0.37590  Biso   1.000  H
  H163     1.0000 0.41800  0.78550  0.12410  Biso   1.000  H
  H164     1.0000 0.91800  0.28550  0.12410  Biso   1.000  H
  H165     1.0000 0.41800  0.21450  0.62410  Biso   1.000  H
  H166     1.0000 0.91800  0.71450  0.62410  Biso   1.000  H
  H167     1.0000 0.58200  0.21450  0.87590  Biso   1.000  H
  H168     1.0000 0.08200  0.71450  0.87590  Biso   1.000  H
  F25      1.0000 0.57410  0.50870  0.51590  Biso   1.000  F
  F26      1.0000 0.07410  0.00870  0.51590  Biso   1.000  F
  F27      1.0000 0.42590  0.50870  0.98410  Biso   1.000  F
  F28      1.0000 0.92590  0.00870  0.98410  Biso   1.000  F
  F29      1.0000 0.42590  0.49130  0.48410  Biso   1.000  F
  F30      1.0000 0.92590  0.99130  0.48410  Biso   1.000  F
  F31      1.0000 0.57410  0.49130  0.01590  Biso   1.000  F
  F32      1.0000 0.07410  0.99130  0.01590  Biso   1.000  F
  F33      1.0000 0.89570  0.91050  0.70610  Biso   1.000  F
  F34      1.0000 0.39570  0.41050  0.70610  Biso   1.000  F
  F35      1.0000 0.10430  0.91050  0.79390  Biso   1.000  F
  F36      1.0000 0.60430  0.41050  0.79390  Biso   1.000  F
  F37      1.0000 0.10430  0.08950  0.29390  Biso   1.000  F
  F38      1.0000 0.60430  0.58950  0.29390  Biso   1.000  F
  F39      1.0000 0.89570  0.08950  0.20610  Biso   1.000  F
  F40      1.0000 0.39570  0.58950  0.20610  Biso   1.000  F
  F41      1.0000 0.83600  0.03970  0.69260  Biso   1.000  F
  F42      1.0000 0.33600  0.53970  0.69260  Biso   1.000  F
  F43      1.0000 0.16400  0.03970  0.80740  Biso   1.000  F
  F44      1.0000 0.66400  0.53970  0.80740  Biso   1.000  F
  F45      1.0000 0.16400  0.96030  0.30740  Biso   1.000  F
  F46      1.0000 0.66400  0.46030  0.30740  Biso   1.000  F
  F47      1.0000 0.83600  0.96030  0.19260  Biso   1.000  F
  F48      1.0000 0.33600  0.46030  0.19260  Biso   1.000  F
  C169     1.0000 0.57430  0.61980  0.50250  Biso   1.000  C
  C170     1.0000 0.07430  0.11980  0.50250  Biso   1.000  C
  C171     1.0000 0.42570  0.61980  0.99750  Biso   1.000  C
  C172     1.0000 0.92570  0.11980  0.99750  Biso   1.000  C
  C173     1.0000 0.42570  0.38020  0.49750  Biso   1.000  C
  C174     1.0000 0.92570  0.88020  0.49750  Biso   1.000  C
  C175     1.0000 0.57430  0.38020  0.00250  Biso   1.000  C
  C176     1.0000 0.07430  0.88020  0.00250  Biso   1.000  C
  F49      1.0000 0.89370  0.11440  0.67500  Biso   1.000  F
  F50      1.0000 0.39370  0.61440  0.67500  Biso   1.000  F
  F51      1.0000 0.10630  0.11440  0.82500  Biso   1.000  F
  F52      1.0000 0.60630  0.61440  0.82500  Biso   1.000  F
  F53      1.0000 0.10630  0.88560  0.32500  Biso   1.000  F
  F54      1.0000 0.60630  0.38560  0.32500  Biso   1.000  F
  F55      1.0000 0.89370  0.88560  0.17500  Biso   1.000  F
  F56      1.0000 0.39370  0.38560  0.17500  Biso   1.000  F
  F57      1.0000 0.61310  0.65830  0.50210  Biso   1.000  F
  F58      1.0000 0.11310  0.15830  0.50210  Biso   1.000  F
  F59      1.0000 0.38690  0.65830  0.99790  Biso   1.000  F
  F60      1.0000 0.88690  0.15830  0.99790  Biso   1.000  F
  F61      1.0000 0.38690  0.34170  0.49790  Biso   1.000  F
  F62      1.0000 0.88690  0.84170  0.49790  Biso   1.000  F
  F63      1.0000 0.61310  0.34170  0.00210  Biso   1.000  F
  F64      1.0000 0.11310  0.84170  0.00210  Biso   1.000  F
  F65      1.0000 0.57210  0.47950  0.52360  Biso   1.000  F
  F66      1.0000 0.07210  0.97950  0.52360  Biso   1.000  F
  F67      1.0000 0.42790  0.47950  0.97640  Biso   1.000  F
  F68      1.0000 0.92790  0.97950  0.97640  Biso   1.000  F
  F69      1.0000 0.42790  0.52050  0.47640  Biso   1.000  F
  F70      1.0000 0.92790  0.02050  0.47640  Biso   1.000  F
  F71      1.0000 0.57210  0.52050  0.02360  Biso   1.000  F
  F72      1.0000 0.07210  0.02050  0.02360  Biso   1.000  F
  F73      1.0000 0.91770  0.95100  0.68770  Biso   1.000  F
  F74      1.0000 0.41770  0.45100  0.68770  Biso   1.000  F
  F75      1.0000 0.08230  0.95100  0.81230  Biso   1.000  F
  F76      1.0000 0.58230  0.45100  0.81230  Biso   1.000  F
  F77      1.0000 0.08230  0.04900  0.31230  Biso   1.000  F
  F78      1.0000 0.58230  0.54900  0.31230  Biso   1.000  F
  F79      1.0000 0.91770  0.04900  0.18770  Biso   1.000  F
  F80      1.0000 0.41770  0.54900  0.18770  Biso   1.000  F
  F81      1.0000 0.58260  0.64460  0.46490  Biso   1.000  F
  F82      1.0000 0.08260  0.14460  0.46490  Biso   1.000  F
  F83      1.0000 0.41740  0.64460  0.03510  Biso   1.000  F
  F84      1.0000 0.91740  0.14460  0.03510  Biso   1.000  F
  F85      1.0000 0.41740  0.35540  0.53510  Biso   1.000  F
  F86      1.0000 0.91740  0.85540  0.53510  Biso   1.000  F
  F87      1.0000 0.58260  0.35540  0.96490  Biso   1.000  F
  F88      1.0000 0.08260  0.85540  0.96490  Biso   1.000  F
  F89      1.0000 0.63250  0.62440  0.55960  Biso   1.000  F
  F90      1.0000 0.13250  0.12440  0.55960  Biso   1.000  F
  F91      1.0000 0.36750  0.62440  0.94040  Biso   1.000  F
  F92      1.0000 0.86750  0.12440  0.94040  Biso   1.000  F
  F93      1.0000 0.36750  0.37560  0.44040  Biso   1.000  F
  F94      1.0000 0.86750  0.87560  0.44040  Biso   1.000  F
  F95      1.0000 0.63250  0.37560  0.05960  Biso   1.000  F
  F96      1.0000 0.13250  0.87560  0.05960  Biso   1.000  F
  F97      1.0000 0.85720  0.96500  0.70670  Biso   1.000  F
  F98      1.0000 0.35720  0.46500  0.70670  Biso   1.000  F
  F99      1.0000 0.14280  0.96500  0.79330  Biso   1.000  F
  F100     1.0000 0.64280  0.46500  0.79330  Biso   1.000  F
  F101     1.0000 0.14280  0.03500  0.29330  Biso   1.000  F
  F102     1.0000 0.64280  0.53500  0.29330  Biso   1.000  F
  F103     1.0000 0.85720  0.03500  0.20670  Biso   1.000  F
  F104     1.0000 0.35720  0.53500  0.20670  Biso   1.000  F
  F105     1.0000 0.53700  0.59350  0.43370  Biso   1.000  F
  F106     1.0000 0.03700  0.09350  0.43370  Biso   1.000  F
  F107     1.0000 0.46300  0.59350  0.06630  Biso   1.000  F
  F108     1.0000 0.96300  0.09350  0.06630  Biso   1.000  F
  F109     1.0000 0.46300  0.40650  0.56630  Biso   1.000  F
  F110     1.0000 0.96300  0.90650  0.56630  Biso   1.000  F
  F111     1.0000 0.53700  0.40650  0.93370  Biso   1.000  F
  F112     1.0000 0.03700  0.90650  0.93370  Biso   1.000  F
  F113     1.0000 0.87900  0.13580  0.67590  Biso   1.000  F
  F114     1.0000 0.37900  0.63580  0.67590  Biso   1.000  F
  F115     1.0000 0.12100  0.13580  0.82410  Biso   1.000  F
  F116     1.0000 0.62100  0.63580  0.82410  Biso   1.000  F
  F117     1.0000 0.12100  0.86420  0.32410  Biso   1.000  F
  F118     1.0000 0.62100  0.36420  0.32410  Biso   1.000  F
  F119     1.0000 0.87900  0.86420  0.17590  Biso   1.000  F
  F120     1.0000 0.37900  0.36420  0.17590  Biso   1.000  F
  F121     1.0000 0.72230  0.15570  0.39530  Biso   1.000  F
  F122     1.0000 0.22230  0.65570  0.39530  Biso   1.000  F
  F123     1.0000 0.27770  0.15570  0.10470  Biso   1.000  F
  F124     1.0000 0.77770  0.65570  0.10470  Biso   1.000  F
  F125     1.0000 0.27770  0.84430  0.60470  Biso   1.000  F
  F126     1.0000 0.77770  0.34430  0.60470  Biso   1.000  F
  F127     1.0000 0.72230  0.84430  0.89530  Biso   1.000  F
  F128     1.0000 0.22230  0.34430  0.89530  Biso   1.000  F
  F129     1.0000 0.80630  0.14410  0.41990  Biso   1.000  F
  F130     1.0000 0.30630  0.64410  0.41990  Biso   1.000  F
  F131     1.0000 0.19370  0.14410  0.08010  Biso   1.000  F
  F132     1.0000 0.69370  0.64410  0.08010  Biso   1.000  F
  F133     1.0000 0.19370  0.85590  0.58010  Biso   1.000  F
  F134     1.0000 0.69370  0.35590  0.58010  Biso   1.000  F
  F135     1.0000 0.80630  0.85590  0.91990  Biso   1.000  F
  F136     1.0000 0.30630  0.35590  0.91990  Biso   1.000  F
  F137     1.0000 0.79050  0.26100  0.46540  Biso   1.000  F
  F138     1.0000 0.29050  0.76100  0.46540  Biso   1.000  F
  F139     1.0000 0.20950  0.26100  0.03460  Biso   1.000  F
  F140     1.0000 0.70950  0.76100  0.03460  Biso   1.000  F
  F141     1.0000 0.20950  0.73900  0.53460  Biso   1.000  F
  F142     1.0000 0.70950  0.23900  0.53460  Biso   1.000  F
  F143     1.0000 0.79050  0.73900  0.96540  Biso   1.000  F
  F144     1.0000 0.29050  0.23900  0.96540  Biso   1.000  F
  F145     1.0000 0.73000  0.15600  0.39240  Biso   1.000  F
  F146     1.0000 0.23000  0.65600  0.39240  Biso   1.000  F
  F147     1.0000 0.27000  0.15600  0.10760  Biso   1.000  F
  F148     1.0000 0.77000  0.65600  0.10760  Biso   1.000  F
  F149     1.0000 0.27000  0.84400  0.60760  Biso   1.000  F
  F150     1.0000 0.77000  0.34400  0.60760  Biso   1.000  F
  F151     1.0000 0.73000  0.84400  0.89240  Biso   1.000  F
  F152     1.0000 0.23000  0.34400  0.89240  Biso   1.000  F
  F153     1.0000 0.80040  0.11460  0.40690  Biso   1.000  F
  F154     1.0000 0.30040  0.61460  0.40690  Biso   1.000  F
  F155     1.0000 0.19960  0.11460  0.09310  Biso   1.000  F
  F156     1.0000 0.69960  0.61460  0.09310  Biso   1.000  F
  F157     1.0000 0.19960  0.88540  0.59310  Biso   1.000  F
  F158     1.0000 0.69960  0.38540  0.59310  Biso   1.000  F
  F159     1.0000 0.80040  0.88540  0.90690  Biso   1.000  F
  F160     1.0000 0.30040  0.38540  0.90690  Biso   1.000  F
  F161     1.0000 0.78510  0.27940  0.46940  Biso   1.000  F
  F162     1.0000 0.28510  0.77940  0.46940  Biso   1.000  F
  F163     1.0000 0.21490  0.27940  0.03060  Biso   1.000  F
  F164     1.0000 0.71490  0.77940  0.03060  Biso   1.000  F
  F165     1.0000 0.21490  0.72060  0.53060  Biso   1.000  F
  F166     1.0000 0.71490  0.22060  0.53060  Biso   1.000  F
  F167     1.0000 0.78510  0.72060  0.96940  Biso   1.000  F
  F168     1.0000 0.28510  0.22060  0.96940  Biso   1.000  F
