data_image0
_cell_length_a       8.0083
_cell_length_b       12.3677
_cell_length_c       13.1673
_cell_angle_alpha    63.661
_cell_angle_beta     88.82
_cell_angle_gamma    77.488

_symmetry_space_group_name_H-M    "P 1"
_symmetry_int_tables_number       1

loop_
  _symmetry_equiv_pos_as_xyz
  'x, y, z'

loop_
  _atom_site_label
  _atom_site_occupancy
  _atom_site_fract_x
  _atom_site_fract_y
  _atom_site_fract_z
  _atom_site_thermal_displace_type
  _atom_site_B_iso_or_equiv
  _atom_site_type_symbol
  Cu1      1.0000 0.01901  0.38972  0.96072  Biso   1.000  Cu
  Cu2      1.0000 0.98099  0.61028  0.03928  Biso   1.000  Cu
  O1       1.0000 0.16054  0.27562  0.10795  Biso   1.000  O
  O2       1.0000 0.83946  0.72438  0.89205  Biso   1.000  O
  N1       1.0000 0.20817  0.31998  0.88113  Biso   1.000  N
  N2       1.0000 0.79183  0.68002  0.11887  Biso   1.000  N
  C1       1.0000 0.39980  0.13230  0.28984  Biso   1.000  C
  C2       1.0000 0.60020  0.86770  0.71016  Biso   1.000  C
  H1       1.0000 0.41320  0.11580  0.22350  Biso   1.000  H
  H2       1.0000 0.58680  0.88420  0.77650  Biso   1.000  H
  H3       1.0000 0.44770  0.05600  0.35880  Biso   1.000  H
  H4       1.0000 0.55230  0.94400  0.64120  Biso   1.000  H
  H5       1.0000 0.46050  0.19620  0.28140  Biso   1.000  H
  H6       1.0000 0.53950  0.80380  0.71860  Biso   1.000  H
  N3       1.0000 0.21750  0.17541  0.29839  Biso   1.000  N
  N4       1.0000 0.78250  0.82459  0.70161  Biso   1.000  N
  C3       1.0000 0.11310  0.24497  0.20627  Biso   1.000  C
  C4       1.0000 0.88690  0.75503  0.79373  Biso   1.000  C
  H7       1.0000 0.99590  0.27350  0.21440  Biso   1.000  H
  H8       1.0000 0.00410  0.72650  0.78560  Biso   1.000  H
  C5       1.0000 0.15840  0.14030  0.41221  Biso   1.000  C
  C6       1.0000 0.84160  0.85970  0.58779  Biso   1.000  C
  H9       1.0000 0.03420  0.17360  0.40590  Biso   1.000  H
  H10      1.0000 0.96580  0.82640  0.59410  Biso   1.000  H
  H11      1.0000 0.21730  0.17410  0.45190  Biso   1.000  H
  H12      1.0000 0.78270  0.82590  0.54810  Biso   1.000  H
  H13      1.0000 0.18400  0.04970  0.45510  Biso   1.000  H
  H14      1.0000 0.81600  0.95030  0.54490  Biso   1.000  H
  C7       1.0000 0.36550  0.26480  0.93600  Biso   1.000  C
  C8       1.0000 0.63450  0.73520  0.06400  Biso   1.000  C
  H15      1.0000 0.38770  0.26770  0.00520  Biso   1.000  H
  H16      1.0000 0.61230  0.73230  0.99480  Biso   1.000  H
  C9       1.0000 0.18110  0.31912  0.78022  Biso   1.000  C
  C10      1.0000 0.81890  0.68088  0.21978  Biso   1.000  C
  C11      1.0000 0.46630  0.19910  0.79720  Biso   1.000  C
  C12      1.0000 0.53370  0.80090  0.20280  Biso   1.000  C
  H17      1.0000 0.55280  0.15540  0.76980  Biso   1.000  H
  H18      1.0000 0.44720  0.84460  0.23020  Biso   1.000  H
  C13      1.0000 0.30850  0.25860  0.73781  Biso   1.000  C
  C14      1.0000 0.69150  0.74140  0.26219  Biso   1.000  C
  H19      1.0000 0.28610  0.25850  0.66730  Biso   1.000  H
  H20      1.0000 0.71390  0.74150  0.33270  Biso   1.000  H
  C15      1.0000 0.01210  0.38780  0.71195  Biso   1.000  C
  C16      1.0000 0.98790  0.61220  0.28805  Biso   1.000  C
  H21      1.0000 0.92790  0.33570  0.74270  Biso   1.000  H
  H22      1.0000 0.07210  0.66430  0.25730  Biso   1.000  H
  H23      1.0000 0.02530  0.40150  0.63250  Biso   1.000  H
  H24      1.0000 0.97470  0.59850  0.36750  Biso   1.000  H
  C17      1.0000 0.49670  0.20400  0.89720  Biso   1.000  C
  C18      1.0000 0.50330  0.79600  0.10280  Biso   1.000  C
  H25      1.0000 0.60610  0.16620  0.93890  Biso   1.000  H
  H26      1.0000 0.39390  0.83380  0.06110  Biso   1.000  H
  O3       1.0000 0.87930  0.20906  0.99745  Biso   1.000  O
  O4       1.0000 0.12070  0.79094  0.00255  Biso   1.000  O
  N5       1.0000 0.91870  0.05159  0.17672  Biso   1.000  N
  N6       1.0000 0.08130  0.94841  0.82328  Biso   1.000  N
  C19      1.0000 0.86790  0.00360  0.29290  Biso   1.000  C
  C20      1.0000 0.13210  0.99640  0.70710  Biso   1.000  C
  H27      1.0000 0.78850  0.07010  0.30250  Biso   1.000  H
  H28      1.0000 0.21150  0.92990  0.69750  Biso   1.000  H
  H29      1.0000 0.97000  0.97240  0.34640  Biso   1.000  H
  H30      1.0000 0.03000  0.02760  0.65360  Biso   1.000  H
  H31      1.0000 0.81120  0.93590  0.30760  Biso   1.000  H
  H32      1.0000 0.18880  0.06410  0.69240  Biso   1.000  H
  C21      1.0000 0.05960  0.97350  0.15220  Biso   1.000  C
  C22      1.0000 0.94040  0.02650  0.84780  Biso   1.000  C
  H33      1.0000 0.01670  0.91280  0.13780  Biso   1.000  H
  H34      1.0000 0.98330  0.08720  0.86220  Biso   1.000  H
  H35      1.0000 0.14630  0.93000  0.21740  Biso   1.000  H
  H36      1.0000 0.85370  0.07000  0.78260  Biso   1.000  H
  H37      1.0000 0.11130  0.02490  0.08490  Biso   1.000  H
  H38      1.0000 0.88870  0.97510  0.91510  Biso   1.000  H
  C23      1.0000 0.84330  0.16260  0.09660  Biso   1.000  C
  C24      1.0000 0.15670  0.83740  0.90340  Biso   1.000  C
  H39      1.0000 0.75310  0.21070  0.11750  Biso   1.000  H
  H40      1.0000 0.24690  0.78930  0.88250  Biso   1.000  H
  O5       1.0000 0.85336  0.44598  0.04564  Biso   1.000  O
  O6       1.0000 0.14664  0.55402  0.95436  Biso   1.000  O
  N7       1.0000 0.86721  0.49153  0.81981  Biso   1.000  N
  N8       1.0000 0.13279  0.50847  0.18019  Biso   1.000  N
  C25      1.0000 0.68360  0.47048  0.02228  Biso   1.000  C
  C26      1.0000 0.31640  0.52952  0.97772  Biso   1.000  C
  C27      1.0000 0.94110  0.51259  0.71174  Biso   1.000  C
  C28      1.0000 0.05890  0.48741  0.28826  Biso   1.000  C
  H41      1.0000 0.03410  0.55670  0.70210  Biso   1.000  H
  H42      1.0000 0.96590  0.44330  0.29790  Biso   1.000  H
  H43      1.0000 0.85170  0.56450  0.64770  Biso   1.000  H
  H44      1.0000 0.14830  0.43550  0.35230  Biso   1.000  H
  C29      1.0000 0.60530  0.51308  0.91203  Biso   1.000  C
  C30      1.0000 0.39470  0.48692  0.08797  Biso   1.000  C
  C31      1.0000 0.70340  0.52901  0.81496  Biso   1.000  C
  C32      1.0000 0.29660  0.47099  0.18504  Biso   1.000  C
  H45      1.0000 0.64210  0.57040  0.74190  Biso   1.000  H
  H46      1.0000 0.35790  0.42960  0.25810  Biso   1.000  H
  C33      1.0000 0.42570  0.54310  0.89108  Biso   1.000  C
  C34      1.0000 0.57430  0.45690  0.10892  Biso   1.000  C
  H47      1.0000 0.37720  0.57360  0.81550  Biso   1.000  H
  H48      1.0000 0.62280  0.42640  0.18450  Biso   1.000  H
  S1       1.0000 0.37087  0.76292  0.51187  Biso   1.000  S
  S2       1.0000 0.62913  0.23708  0.48813  Biso   1.000  S
  F1       1.0000 0.34600  0.61820  0.41882  Biso   1.000  F
  F2       1.0000 0.65400  0.38180  0.58118  Biso   1.000  F
  F3       1.0000 0.33390  0.53572  0.60053  Biso   1.000  F
  F4       1.0000 0.66610  0.46428  0.39947  Biso   1.000  F
  O7       1.0000 0.29340  0.77241  0.60796  Biso   1.000  O
  O8       1.0000 0.70660  0.22759  0.39204  Biso   1.000  O
  F5       1.0000 0.11713  0.67153  0.49062  Biso   1.000  F
  F6       1.0000 0.88287  0.32847  0.50938  Biso   1.000  F
  O9       1.0000 0.55365  0.71593  0.52784  Biso   1.000  O
  O10      1.0000 0.44635  0.28407  0.47216  Biso   1.000  O
  O11      1.0000 0.30750  0.86622  0.40382  Biso   1.000  O
  O12      1.0000 0.69250  0.13378  0.59618  Biso   1.000  O
  C35      1.0000 0.28970  0.64060  0.50460  Biso   1.000  C
  C36      1.0000 0.71030  0.35940  0.49540  Biso   1.000  C
