data_image0
_cell_length_a       7.873
_cell_length_b       11.3337
_cell_length_c       12.3291
_cell_angle_alpha    110.619
_cell_angle_beta     96.191
_cell_angle_gamma    96.164

_symmetry_space_group_name_H-M    "P 1"
_symmetry_int_tables_number       1

loop_
  _symmetry_equiv_pos_as_xyz
  'x, y, z'

loop_
  _atom_site_label
  _atom_site_occupancy
  _atom_site_fract_x
  _atom_site_fract_y
  _atom_site_fract_z
  _atom_site_thermal_displace_type
  _atom_site_B_iso_or_equiv
  _atom_site_type_symbol
  Cu1      1.0000 0.99886  0.12294  0.95098  Biso   1.000  Cu
  Cu2      1.0000 0.00114  0.87706  0.04902  Biso   1.000  Cu
  O1       1.0000 0.85700  0.06300  0.04420  Biso   1.000  O
  O2       1.0000 0.14300  0.93700  0.95580  Biso   1.000  O
  O3       1.0000 0.16420  0.22270  0.09980  Biso   1.000  O
  O4       1.0000 0.83580  0.77730  0.90020  Biso   1.000  O
  N1       1.0000 0.82470  0.04370  0.80850  Biso   1.000  N
  N2       1.0000 0.17530  0.95630  0.19150  Biso   1.000  N
  N3       1.0000 0.17910  0.18420  0.86190  Biso   1.000  N
  N4       1.0000 0.82090  0.81580  0.13810  Biso   1.000  N
  N5       1.0000 0.24620  0.30960  0.29570  Biso   1.000  N
  N6       1.0000 0.75380  0.69040  0.70430  Biso   1.000  N
  C1       1.0000 0.44790  0.25650  0.75820  Biso   1.000  C
  C2       1.0000 0.55210  0.74350  0.24180  Biso   1.000  C
  H1       1.0000 0.54070  0.28050  0.72320  Biso   1.000  H
  H2       1.0000 0.45930  0.71950  0.27680  Biso   1.000  H
  C3       1.0000 0.66700  0.00040  0.80830  Biso   1.000  C
  C4       1.0000 0.33300  0.99960  0.19170  Biso   1.000  C
  H3       1.0000 0.59400  0.96580  0.73430  Biso   1.000  H
  H4       1.0000 0.40600  0.03420  0.26570  Biso   1.000  H
  N7       1.0000 0.91190  0.46520  0.18960  Biso   1.000  N
  N8       1.0000 0.08810  0.53480  0.81040  Biso   1.000  N
  C5       1.0000 0.58890  0.99870  0.90860  Biso   1.000  C
  C6       1.0000 0.41110  0.00130  0.09140  Biso   1.000  C
  O5       1.0000 0.85400  0.32050  0.00150  Biso   1.000  O
  O6       1.0000 0.14600  0.67950  0.99850  Biso   1.000  O
  C7       1.0000 0.68270  0.03590  0.02140  Biso   1.000  C
  C8       1.0000 0.31730  0.96410  0.97860  Biso   1.000  C
  C9       1.0000 0.30170  0.28480  0.92230  Biso   1.000  C
  C10      1.0000 0.69830  0.71520  0.07770  Biso   1.000  C
  H5       1.0000 0.29580  0.33200  0.00210  Biso   1.000  H
  H6       1.0000 0.70420  0.66800  0.99790  Biso   1.000  H
  C11      1.0000 0.13330  0.24630  0.20170  Biso   1.000  C
  C12      1.0000 0.86670  0.75370  0.79830  Biso   1.000  C
  H7       1.0000 0.02070  0.21650  0.21160  Biso   1.000  H
  H8       1.0000 0.97930  0.78350  0.78840  Biso   1.000  H
  C13      1.0000 0.59100  0.03650  0.11120  Biso   1.000  C
  C14      1.0000 0.40900  0.96350  0.88880  Biso   1.000  C
  H9       1.0000 0.65190  0.06160  0.18860  Biso   1.000  H
  H10      1.0000 0.34810  0.93840  0.81140  Biso   1.000  H
  C15      1.0000 0.86860  0.04120  0.69460  Biso   1.000  C
  C16      1.0000 0.13140  0.95880  0.30540  Biso   1.000  C
  H11      1.0000 0.86230  0.12580  0.68920  Biso   1.000  H
  H12      1.0000 0.13770  0.87420  0.31080  Biso   1.000  H
  H13      1.0000 0.78280  0.97740  0.63060  Biso   1.000  H
  H14      1.0000 0.21720  0.02260  0.36940  Biso   1.000  H
  C17      1.0000 0.18700  0.11960  0.74820  Biso   1.000  C
  C18      1.0000 0.81300  0.88040  0.25180  Biso   1.000  C
  C19      1.0000 0.32110  0.15440  0.69530  Biso   1.000  C
  C20      1.0000 0.67890  0.84560  0.30470  Biso   1.000  C
  H15      1.0000 0.32510  0.10720  0.61510  Biso   1.000  H
  H16      1.0000 0.67490  0.89280  0.38490  Biso   1.000  H
  C21      1.0000 0.20980  0.33450  0.41520  Biso   1.000  C
  C22      1.0000 0.79020  0.66550  0.58480  Biso   1.000  C
  H17      1.0000 0.09240  0.29340  0.41190  Biso   1.000  H
  H18      1.0000 0.90760  0.70660  0.58810  Biso   1.000  H
  H19      1.0000 0.21960  0.42680  0.45730  Biso   1.000  H
  H20      1.0000 0.78040  0.57320  0.54270  Biso   1.000  H
  H21      1.0000 0.29310  0.30010  0.45620  Biso   1.000  H
  H22      1.0000 0.70690  0.69990  0.54380  Biso   1.000  H
  C23      1.0000 0.42030  0.35950  0.28580  Biso   1.000  C
  C24      1.0000 0.57970  0.64050  0.71420  Biso   1.000  C
  H23      1.0000 0.43800  0.32470  0.20370  Biso   1.000  H
  H24      1.0000 0.56200  0.67530  0.79630  Biso   1.000  H
  H25      1.0000 0.50560  0.33460  0.33420  Biso   1.000  H
  H26      1.0000 0.49440  0.66540  0.66580  Biso   1.000  H
  H27      1.0000 0.43420  0.45280  0.31270  Biso   1.000  H
  H28      1.0000 0.56580  0.54720  0.68730  Biso   1.000  H
  C25      1.0000 0.04810  0.00830  0.67850  Biso   1.000  C
  C26      1.0000 0.95190  0.99170  0.32150  Biso   1.000  C
  H29      1.0000 0.06430  0.93570  0.70350  Biso   1.000  H
  H30      1.0000 0.93570  0.06430  0.29650  Biso   1.000  H
  H31      1.0000 0.05920  0.98140  0.59430  Biso   1.000  H
  H32      1.0000 0.94080  0.01860  0.40570  Biso   1.000  H
  C27      1.0000 0.86550  0.50820  0.30600  Biso   1.000  C
  C28      1.0000 0.13450  0.49180  0.69400  Biso   1.000  C
  H33      1.0000 0.81900  0.58830  0.32110  Biso   1.000  H
  H34      1.0000 0.18100  0.41170  0.67890  Biso   1.000  H
  H35      1.0000 0.96830  0.52200  0.36400  Biso   1.000  H
  H36      1.0000 0.03170  0.47800  0.63600  Biso   1.000  H
  H37      1.0000 0.77770  0.44330  0.31170  Biso   1.000  H
  H38      1.0000 0.22230  0.55670  0.68830  Biso   1.000  H
  C29      1.0000 0.82370  0.36190  0.10310  Biso   1.000  C
  C30      1.0000 0.17630  0.63810  0.89690  Biso   1.000  C
  H39      1.0000 0.72950  0.31640  0.12130  Biso   1.000  H
  H40      1.0000 0.27050  0.68360  0.87870  Biso   1.000  H
  C31      1.0000 0.06170  0.53810  0.17000  Biso   1.000  C
  C32      1.0000 0.93830  0.46190  0.83000  Biso   1.000  C
  H41      1.0000 0.10630  0.48440  0.10120  Biso   1.000  H
  H42      1.0000 0.89370  0.51560  0.89880  Biso   1.000  H
  H43      1.0000 0.15190  0.56560  0.23910  Biso   1.000  H
  H44      1.0000 0.84810  0.43440  0.76090  Biso   1.000  H
  H45      1.0000 0.02770  0.61310  0.15670  Biso   1.000  H
  H46      1.0000 0.97230  0.38690  0.84330  Biso   1.000  H
  C33      1.0000 0.43570  0.32200  0.87250  Biso   1.000  C
  C34      1.0000 0.56430  0.67800  0.12750  Biso   1.000  C
  H47      1.0000 0.52020  0.39380  0.91820  Biso   1.000  H
  H48      1.0000 0.47980  0.60620  0.08180  Biso   1.000  H
  F1       1.0000 0.75820  0.25480  0.38720  Biso   1.000  F
  F2       1.0000 0.24180  0.74520  0.61280  Biso   1.000  F
  F3       1.0000 0.85750  0.22570  0.55270  Biso   1.000  F
  F4       1.0000 0.14250  0.77430  0.44730  Biso   1.000  F
  B1       1.0000 0.71420  0.24580  0.49070  Biso   1.000  B
  B2       1.0000 0.28580  0.75420  0.50930  Biso   1.000  B
  F5       1.0000 0.66170  0.35900  0.55590  Biso   1.000  F
  F6       1.0000 0.33830  0.64100  0.44410  Biso   1.000  F
  F7       1.0000 0.58220  0.14750  0.46370  Biso   1.000  F
  F8       1.0000 0.41780  0.85250  0.53630  Biso   1.000  F
