data_image0
_cell_length_a       14.888
_cell_length_b       7.0906
_cell_length_c       10.944
_cell_angle_alpha    90
_cell_angle_beta     96.525
_cell_angle_gamma    90

_symmetry_space_group_name_H-M    "P 1"
_symmetry_int_tables_number       1

loop_
  _symmetry_equiv_pos_as_xyz
  'x, y, z'

loop_
  _atom_site_label
  _atom_site_occupancy
  _atom_site_fract_x
  _atom_site_fract_y
  _atom_site_fract_z
  _atom_site_thermal_displace_type
  _atom_site_B_iso_or_equiv
  _atom_site_type_symbol
  U1       1.0000 0.00000  0.00000  0.00000  Biso   1.000  U
  U2       1.0000 0.50000  0.50000  0.00000  Biso   1.000  U
  Cu1      1.0000 0.00000  0.00000  0.50000  Biso   1.000  Cu
  Cu2      1.0000 0.50000  0.50000  0.50000  Biso   1.000  Cu
  O1       1.0000 0.00000  0.75210  0.00000  Biso   1.000  O
  O2       1.0000 0.50000  0.25210  0.00000  Biso   1.000  O
  O3       1.0000 0.00000  0.24790  0.00000  Biso   1.000  O
  O4       1.0000 0.50000  0.74790  0.00000  Biso   1.000  O
  O5       1.0000 0.87100  0.00000  0.83300  Biso   1.000  O
  O6       1.0000 0.37100  0.50000  0.83300  Biso   1.000  O
  O7       1.0000 0.12900  0.00000  0.16700  Biso   1.000  O
  O8       1.0000 0.62900  0.50000  0.16700  Biso   1.000  O
  O9       1.0000 0.72590  0.00000  0.75100  Biso   1.000  O
  O10      1.0000 0.22590  0.50000  0.75100  Biso   1.000  O
  O11      1.0000 0.27410  0.00000  0.24900  Biso   1.000  O
  O12      1.0000 0.77410  0.50000  0.24900  Biso   1.000  O
  O13      1.0000 0.97180  0.00000  0.21260  Biso   1.000  O
  O14      1.0000 0.47180  0.50000  0.21260  Biso   1.000  O
  O15      1.0000 0.02820  0.00000  0.78740  Biso   1.000  O
  O16      1.0000 0.52820  0.50000  0.78740  Biso   1.000  O
  O17      1.0000 0.89330  0.00000  0.37500  Biso   1.000  O
  O18      1.0000 0.39330  0.50000  0.37500  Biso   1.000  O
  O19      1.0000 0.10670  0.00000  0.62500  Biso   1.000  O
  O20      1.0000 0.60670  0.50000  0.62500  Biso   1.000  O
  O21      1.0000 0.93880  0.78400  0.58300  Biso   1.000  O
  O22      1.0000 0.43880  0.28400  0.58300  Biso   1.000  O
  O23      1.0000 0.06120  0.78400  0.41700  Biso   1.000  O
  O24      1.0000 0.56120  0.28400  0.41700  Biso   1.000  O
  O25      1.0000 0.06120  0.21600  0.41700  Biso   1.000  O
  O26      1.0000 0.56120  0.71600  0.41700  Biso   1.000  O
  O27      1.0000 0.93880  0.21600  0.58300  Biso   1.000  O
  O28      1.0000 0.43880  0.71600  0.58300  Biso   1.000  O
  N1       1.0000 0.83110  0.00000  0.05540  Biso   1.000  N
  N2       1.0000 0.33110  0.50000  0.05540  Biso   1.000  N
  N3       1.0000 0.16890  0.00000  0.94460  Biso   1.000  N
  N4       1.0000 0.66890  0.50000  0.94460  Biso   1.000  N
  C1       1.0000 0.76050  0.00000  0.96720  Biso   1.000  C
  C2       1.0000 0.26050  0.50000  0.96720  Biso   1.000  C
  C3       1.0000 0.23950  0.00000  0.03280  Biso   1.000  C
  C4       1.0000 0.73950  0.50000  0.03280  Biso   1.000  C
  C5       1.0000 0.67340  0.00000  0.99850  Biso   1.000  C
  C6       1.0000 0.17340  0.50000  0.99850  Biso   1.000  C
  C7       1.0000 0.32660  0.00000  0.00150  Biso   1.000  C
  C8       1.0000 0.82660  0.50000  0.00150  Biso   1.000  C
  H1       1.0000 0.62500  0.00000  0.93680  Biso   1.000  H
  H2       1.0000 0.12500  0.50000  0.93680  Biso   1.000  H
  H3       1.0000 0.37500  0.00000  0.06320  Biso   1.000  H
  H4       1.0000 0.87500  0.50000  0.06320  Biso   1.000  H
  C9       1.0000 0.65700  0.00000  0.11940  Biso   1.000  C
  C10      1.0000 0.15700  0.50000  0.11940  Biso   1.000  C
  C11      1.0000 0.34300  0.00000  0.88060  Biso   1.000  C
  C12      1.0000 0.84300  0.50000  0.88060  Biso   1.000  C
  H5       1.0000 0.59820  0.00000  0.14040  Biso   1.000  H
  H6       1.0000 0.09820  0.50000  0.14040  Biso   1.000  H
  H7       1.0000 0.40180  0.00000  0.85960  Biso   1.000  H
  H8       1.0000 0.90180  0.50000  0.85960  Biso   1.000  H
  C13      1.0000 0.72960  0.00000  0.20830  Biso   1.000  C
  C14      1.0000 0.22960  0.50000  0.20830  Biso   1.000  C
  C15      1.0000 0.27040  0.00000  0.79170  Biso   1.000  C
  C16      1.0000 0.77040  0.50000  0.79170  Biso   1.000  C
  H9       1.0000 0.72110  0.00000  0.29110  Biso   1.000  H
  H10      1.0000 0.22110  0.50000  0.29110  Biso   1.000  H
  H11      1.0000 0.27890  0.00000  0.70890  Biso   1.000  H
  H12      1.0000 0.77890  0.50000  0.70890  Biso   1.000  H
  C17      1.0000 0.81490  0.00000  0.17330  Biso   1.000  C
  C18      1.0000 0.31490  0.50000  0.17330  Biso   1.000  C
  C19      1.0000 0.18510  0.00000  0.82670  Biso   1.000  C
  C20      1.0000 0.68510  0.50000  0.82670  Biso   1.000  C
  C21      1.0000 0.78640  0.00000  0.84020  Biso   1.000  C
  C22      1.0000 0.28640  0.50000  0.84020  Biso   1.000  C
  C23      1.0000 0.21360  0.00000  0.15980  Biso   1.000  C
  C24      1.0000 0.71360  0.50000  0.15980  Biso   1.000  C
  C25      1.0000 0.90050  0.00000  0.26260  Biso   1.000  C
  C26      1.0000 0.40050  0.50000  0.26260  Biso   1.000  C
  C27      1.0000 0.09950  0.00000  0.73740  Biso   1.000  C
  C28      1.0000 0.59950  0.50000  0.73740  Biso   1.000  C
  O29      1.0000 0.53350  0.00000  0.69090  Biso   1.000  O
  O30      1.0000 0.03350  0.50000  0.69090  Biso   1.000  O
  O31      1.0000 0.46650  0.00000  0.30910  Biso   1.000  O
  O32      1.0000 0.96650  0.50000  0.30910  Biso   1.000  O
  O33      1.0000 0.90300  0.78300  0.61200  Biso   1.000  O
  O34      1.0000 0.40300  0.28300  0.61200  Biso   1.000  O
  O35      1.0000 0.09700  0.78300  0.38800  Biso   1.000  O
  O36      1.0000 0.59700  0.28300  0.38800  Biso   1.000  O
  O37      1.0000 0.09700  0.21700  0.38800  Biso   1.000  O
  O38      1.0000 0.59700  0.71700  0.38800  Biso   1.000  O
  O39      1.0000 0.90300  0.21700  0.61200  Biso   1.000  O
  O40      1.0000 0.40300  0.71700  0.61200  Biso   1.000  O
  O41      1.0000 0.74600  0.85600  0.52350  Biso   1.000  O
  O42      1.0000 0.24600  0.35600  0.52350  Biso   1.000  O
  O43      1.0000 0.25400  0.85600  0.47650  Biso   1.000  O
  O44      1.0000 0.75400  0.35600  0.47650  Biso   1.000  O
  O45      1.0000 0.25400  0.14400  0.47650  Biso   1.000  O
  O46      1.0000 0.75400  0.64400  0.47650  Biso   1.000  O
  O47      1.0000 0.74600  0.14400  0.52350  Biso   1.000  O
  O48      1.0000 0.24600  0.64400  0.52350  Biso   1.000  O
