data_image0
_cell_length_a       12.405
_cell_length_b       19.716
_cell_length_c       17.612
_cell_angle_alpha    90
_cell_angle_beta     93.23
_cell_angle_gamma    90

_symmetry_space_group_name_H-M    "P 1"
_symmetry_int_tables_number       1

loop_
  _symmetry_equiv_pos_as_xyz
  'x, y, z'

loop_
  _atom_site_label
  _atom_site_occupancy
  _atom_site_fract_x
  _atom_site_fract_y
  _atom_site_fract_z
  _atom_site_thermal_displace_type
  _atom_site_B_iso_or_equiv
  _atom_site_type_symbol
  Cu1      1.0000 0.22120  0.21580  0.14620  Biso   1.000  Cu
  Cu2      1.0000 0.77880  0.71580  0.35380  Biso   1.000  Cu
  Cu3      1.0000 0.77880  0.78420  0.85380  Biso   1.000  Cu
  Cu4      1.0000 0.22120  0.28420  0.64620  Biso   1.000  Cu
  Cu5      1.0000 0.23690  0.26660  0.00620  Biso   1.000  Cu
  Cu6      1.0000 0.76310  0.76660  0.49380  Biso   1.000  Cu
  Cu7      1.0000 0.76310  0.73340  0.99380  Biso   1.000  Cu
  Cu8      1.0000 0.23690  0.23340  0.50620  Biso   1.000  Cu
  C1       1.0000 0.67310  0.26870  0.22030  Biso   1.000  C
  C2       1.0000 0.32690  0.76870  0.27970  Biso   1.000  C
  C3       1.0000 0.32690  0.73130  0.77970  Biso   1.000  C
  C4       1.0000 0.67310  0.23130  0.72030  Biso   1.000  C
  C5       1.0000 0.69840  0.24410  0.29350  Biso   1.000  C
  C6       1.0000 0.30160  0.74410  0.20650  Biso   1.000  C
  C7       1.0000 0.30160  0.75590  0.70650  Biso   1.000  C
  C8       1.0000 0.69840  0.25590  0.79350  Biso   1.000  C
  C9       1.0000 0.61760  0.22530  0.34950  Biso   1.000  C
  C10      1.0000 0.38240  0.72530  0.15050  Biso   1.000  C
  C11      1.0000 0.38240  0.77470  0.65050  Biso   1.000  C
  C12      1.0000 0.61760  0.27470  0.84950  Biso   1.000  C
  O1       1.0000 0.64220  0.22940  0.41680  Biso   1.000  O
  O2       1.0000 0.35780  0.72940  0.08320  Biso   1.000  O
  O3       1.0000 0.35780  0.77060  0.58320  Biso   1.000  O
  O4       1.0000 0.64220  0.27060  0.91680  Biso   1.000  O
  C13      1.0000 0.51000  0.19850  0.32370  Biso   1.000  C
  C14      1.0000 0.49000  0.69850  0.17630  Biso   1.000  C
  C15      1.0000 0.49000  0.80150  0.67630  Biso   1.000  C
  C16      1.0000 0.51000  0.30150  0.82370  Biso   1.000  C
  C17      1.0000 0.80710  0.23690  0.31660  Biso   1.000  C
  C18      1.0000 0.19290  0.73690  0.18340  Biso   1.000  C
  C19      1.0000 0.19290  0.76310  0.68340  Biso   1.000  C
  C20      1.0000 0.80710  0.26310  0.81660  Biso   1.000  C
  C21      1.0000 0.88790  0.25240  0.26980  Biso   1.000  C
  C22      1.0000 0.11210  0.75240  0.23020  Biso   1.000  C
  C23      1.0000 0.11210  0.74760  0.73020  Biso   1.000  C
  C24      1.0000 0.88790  0.24760  0.76980  Biso   1.000  C
  C25      1.0000 0.86190  0.27660  0.19830  Biso   1.000  C
  C26      1.0000 0.13810  0.77660  0.30170  Biso   1.000  C
  C27      1.0000 0.13810  0.72340  0.80170  Biso   1.000  C
  C28      1.0000 0.86190  0.22340  0.69830  Biso   1.000  C
  C29      1.0000 0.75560  0.28560  0.17320  Biso   1.000  C
  C30      1.0000 0.24440  0.78560  0.32680  Biso   1.000  C
  C31      1.0000 0.24440  0.71440  0.82680  Biso   1.000  C
  C32      1.0000 0.75560  0.21440  0.67320  Biso   1.000  C
  O5       1.0000 0.56680  0.27670  0.20100  Biso   1.000  O
  O6       1.0000 0.43320  0.77670  0.29900  Biso   1.000  O
  O7       1.0000 0.43320  0.72330  0.79900  Biso   1.000  O
  O8       1.0000 0.56680  0.22330  0.70100  Biso   1.000  O
  C33      1.0000 0.53320  0.30130  0.12840  Biso   1.000  C
  C34      1.0000 0.46680  0.80130  0.37160  Biso   1.000  C
  C35      1.0000 0.46680  0.69870  0.87160  Biso   1.000  C
  C36      1.0000 0.53320  0.19870  0.62840  Biso   1.000  C
  C37      1.0000 0.41760  0.28090  0.11030  Biso   1.000  C
  C38      1.0000 0.58240  0.78090  0.38970  Biso   1.000  C
  C39      1.0000 0.58240  0.71910  0.88970  Biso   1.000  C
  C40      1.0000 0.41760  0.21910  0.61030  Biso   1.000  C
  O9       1.0000 0.36450  0.25730  0.16270  Biso   1.000  O
  O10      1.0000 0.63550  0.75730  0.33730  Biso   1.000  O
  O11      1.0000 0.63550  0.74270  0.83730  Biso   1.000  O
  O12      1.0000 0.36450  0.24270  0.66270  Biso   1.000  O
  O13      1.0000 0.38360  0.28990  0.04240  Biso   1.000  O
  O14      1.0000 0.61640  0.78990  0.45760  Biso   1.000  O
  O15      1.0000 0.61640  0.71010  0.95760  Biso   1.000  O
  O16      1.0000 0.38360  0.21010  0.54240  Biso   1.000  O
  C41      1.0000 0.78370  0.12520  0.07880  Biso   1.000  C
  C42      1.0000 0.21630  0.62520  0.42120  Biso   1.000  C
  C43      1.0000 0.21630  0.87480  0.92120  Biso   1.000  C
  C44      1.0000 0.78370  0.37480  0.57880  Biso   1.000  C
  C45      1.0000 0.75650  0.08150  0.13570  Biso   1.000  C
  C46      1.0000 0.24350  0.58150  0.36430  Biso   1.000  C
  C47      1.0000 0.24350  0.91850  0.86430  Biso   1.000  C
  C48      1.0000 0.75650  0.41850  0.63570  Biso   1.000  C
  C49      1.0000 0.83730  0.03970  0.18050  Biso   1.000  C
  C50      1.0000 0.16270  0.53970  0.31950  Biso   1.000  C
  C51      1.0000 0.16270  0.96030  0.81950  Biso   1.000  C
  C52      1.0000 0.83730  0.46030  0.68050  Biso   1.000  C
  O17      1.0000 0.82440  0.97880  0.18320  Biso   1.000  O
  O18      1.0000 0.17560  0.47880  0.31680  Biso   1.000  O
  O19      1.0000 0.17560  0.02120  0.81680  Biso   1.000  O
  O20      1.0000 0.82440  0.52120  0.68320  Biso   1.000  O
  C53      1.0000 0.92900  0.07380  0.22320  Biso   1.000  C
  C54      1.0000 0.07100  0.57380  0.27680  Biso   1.000  C
  C55      1.0000 0.07100  0.92620  0.77680  Biso   1.000  C
  C56      1.0000 0.92900  0.42620  0.72320  Biso   1.000  C
  C57      1.0000 0.64950  0.07450  0.15210  Biso   1.000  C
  C58      1.0000 0.35050  0.57450  0.34790  Biso   1.000  C
  C59      1.0000 0.35050  0.92550  0.84790  Biso   1.000  C
  C60      1.0000 0.64950  0.42550  0.65210  Biso   1.000  C
  C61      1.0000 0.57040  0.10940  0.11160  Biso   1.000  C
  C62      1.0000 0.42960  0.60940  0.38840  Biso   1.000  C
  C63      1.0000 0.42960  0.89060  0.88840  Biso   1.000  C
  C64      1.0000 0.57040  0.39060  0.61160  Biso   1.000  C
  C65      1.0000 0.59730  0.15000  0.05250  Biso   1.000  C
  C66      1.0000 0.40270  0.65000  0.44750  Biso   1.000  C
  C67      1.0000 0.40270  0.85000  0.94750  Biso   1.000  C
  C68      1.0000 0.59730  0.35000  0.55250  Biso   1.000  C
  C69      1.0000 0.70320  0.15790  0.03480  Biso   1.000  C
  C70      1.0000 0.29680  0.65790  0.46520  Biso   1.000  C
  C71      1.0000 0.29680  0.84210  0.96520  Biso   1.000  C
  C72      1.0000 0.70320  0.34210  0.53480  Biso   1.000  C
  O21      1.0000 0.89120  0.13090  0.06760  Biso   1.000  O
  O22      1.0000 0.10880  0.63090  0.43240  Biso   1.000  O
  O23      1.0000 0.10880  0.86910  0.93240  Biso   1.000  O
  O24      1.0000 0.89120  0.36910  0.56760  Biso   1.000  O
  C73      1.0000 0.92520  0.18320  0.01910  Biso   1.000  C
  C74      1.0000 0.07480  0.68320  0.48090  Biso   1.000  C
  C75      1.0000 0.07480  0.81680  0.98090  Biso   1.000  C
  C76      1.0000 0.92520  0.31680  0.51910  Biso   1.000  C
  C77      1.0000 0.04160  0.20110  0.04070  Biso   1.000  C
  C78      1.0000 0.95840  0.70110  0.45930  Biso   1.000  C
  C79      1.0000 0.95840  0.79890  0.95930  Biso   1.000  C
  C80      1.0000 0.04160  0.29890  0.54070  Biso   1.000  C
  O25      1.0000 0.08700  0.23470  0.99140  Biso   1.000  O
  O26      1.0000 0.91300  0.73470  0.50860  Biso   1.000  O
  O27      1.0000 0.91300  0.76530  0.00860  Biso   1.000  O
  O28      1.0000 0.08700  0.26530  0.49140  Biso   1.000  O
  O29      1.0000 0.08070  0.18340  0.10420  Biso   1.000  O
  O30      1.0000 0.91930  0.68340  0.39580  Biso   1.000  O
  O31      1.0000 0.91930  0.81660  0.89580  Biso   1.000  O
  O32      1.0000 0.08070  0.31660  0.60420  Biso   1.000  O
  C81      1.0000 0.21920  0.49850  0.09300  Biso   1.000  C
  C82      1.0000 0.78080  0.99850  0.40700  Biso   1.000  C
  C83      1.0000 0.78080  0.50150  0.90700  Biso   1.000  C
  C84      1.0000 0.21920  0.00150  0.59300  Biso   1.000  C
  C85      1.0000 0.22500  0.55280  0.04290  Biso   1.000  C
  C86      1.0000 0.77500  0.05280  0.45710  Biso   1.000  C
  C87      1.0000 0.77500  0.44720  0.95710  Biso   1.000  C
  C88      1.0000 0.22500  0.94720  0.54290  Biso   1.000  C
  C89      1.0000 0.12610  0.58910  0.00900  Biso   1.000  C
  C90      1.0000 0.87390  0.08910  0.49100  Biso   1.000  C
  C91      1.0000 0.87390  0.41090  0.99100  Biso   1.000  C
  C92      1.0000 0.12610  0.91090  0.50900  Biso   1.000  C
  O33      1.0000 0.13000  0.61410  0.94660  Biso   1.000  O
  O34      1.0000 0.87000  0.11410  0.55340  Biso   1.000  O
  O35      1.0000 0.87000  0.38590  0.05340  Biso   1.000  O
  O36      1.0000 0.13000  0.88590  0.44660  Biso   1.000  O
  C93      1.0000 0.02940  0.59770  0.05250  Biso   1.000  C
  C94      1.0000 0.97060  0.09770  0.44750  Biso   1.000  C
  C95      1.0000 0.97060  0.40230  0.94750  Biso   1.000  C
  C96      1.0000 0.02940  0.90230  0.55250  Biso   1.000  C
  C97      1.0000 0.32530  0.57730  0.02570  Biso   1.000  C
  C98      1.0000 0.67470  0.07730  0.47430  Biso   1.000  C
  C99      1.0000 0.67470  0.42270  0.97430  Biso   1.000  C
  C100     1.0000 0.32530  0.92270  0.52570  Biso   1.000  C
  C101     1.0000 0.41700  0.55130  0.05910  Biso   1.000  C
  C102     1.0000 0.58300  0.05130  0.44090  Biso   1.000  C
  C103     1.0000 0.58300  0.44870  0.94090  Biso   1.000  C
  C104     1.0000 0.41700  0.94870  0.55910  Biso   1.000  C
  C105     1.0000 0.41060  0.49980  0.11160  Biso   1.000  C
  C106     1.0000 0.58940  0.99980  0.38840  Biso   1.000  C
  C107     1.0000 0.58940  0.50020  0.88840  Biso   1.000  C
  C108     1.0000 0.41060  0.00020  0.61160  Biso   1.000  C
  C109     1.0000 0.31230  0.47300  0.12870  Biso   1.000  C
  C110     1.0000 0.68770  0.97300  0.37130  Biso   1.000  C
  C111     1.0000 0.68770  0.52700  0.87130  Biso   1.000  C
  C112     1.0000 0.31230  0.02700  0.62870  Biso   1.000  C
  O37      1.0000 0.11850  0.47320  0.10220  Biso   1.000  O
  O38      1.0000 0.88150  0.97320  0.39780  Biso   1.000  O
  O39      1.0000 0.88150  0.52680  0.89780  Biso   1.000  O
  O40      1.0000 0.11850  0.02680  0.60220  Biso   1.000  O
  C113     1.0000 0.10710  0.41670  0.15110  Biso   1.000  C
  C114     1.0000 0.89290  0.91670  0.34890  Biso   1.000  C
  C115     1.0000 0.89290  0.58330  0.84890  Biso   1.000  C
  C116     1.0000 0.10710  0.08330  0.65110  Biso   1.000  C
  C117     1.0000 0.15290  0.35160  0.12190  Biso   1.000  C
  C118     1.0000 0.84710  0.85160  0.37810  Biso   1.000  C
  C119     1.0000 0.84710  0.64840  0.87810  Biso   1.000  C
  C120     1.0000 0.15290  0.14840  0.62190  Biso   1.000  C
  O41      1.0000 0.15390  0.30340  0.16870  Biso   1.000  O
  O42      1.0000 0.84610  0.80340  0.33130  Biso   1.000  O
  O43      1.0000 0.84610  0.69660  0.83130  Biso   1.000  O
  O44      1.0000 0.15390  0.19660  0.66870  Biso   1.000  O
  O45      1.0000 0.18400  0.34880  0.05610  Biso   1.000  O
  O46      1.0000 0.81600  0.84880  0.44390  Biso   1.000  O
  O47      1.0000 0.81600  0.65120  0.94390  Biso   1.000  O
  O48      1.0000 0.18400  0.15120  0.55610  Biso   1.000  O
  C121     1.0000 0.26100  0.98660  0.09270  Biso   1.000  C
  C122     1.0000 0.73900  0.48660  0.40730  Biso   1.000  C
  C123     1.0000 0.73900  0.01340  0.90730  Biso   1.000  C
  C124     1.0000 0.26100  0.51340  0.59270  Biso   1.000  C
  C125     1.0000 0.27590  0.94930  0.15950  Biso   1.000  C
  C126     1.0000 0.72410  0.44930  0.34050  Biso   1.000  C
  C127     1.0000 0.72410  0.05070  0.84050  Biso   1.000  C
  C128     1.0000 0.27590  0.55070  0.65950  Biso   1.000  C
  C129     1.0000 0.38240  0.93520  0.19970  Biso   1.000  C
  C130     1.0000 0.61760  0.43520  0.30030  Biso   1.000  C
  C131     1.0000 0.61760  0.06480  0.80030  Biso   1.000  C
  C132     1.0000 0.38240  0.56480  0.69970  Biso   1.000  C
  O49      1.0000 0.38970  0.93810  0.26770  Biso   1.000  O
  O50      1.0000 0.61030  0.43810  0.23230  Biso   1.000  O
  O51      1.0000 0.61030  0.06190  0.73230  Biso   1.000  O
  O52      1.0000 0.38970  0.56190  0.76770  Biso   1.000  O
  C133     1.0000 0.47550  0.91230  0.15510  Biso   1.000  C
  C134     1.0000 0.52450  0.41230  0.34490  Biso   1.000  C
  C135     1.0000 0.52450  0.08770  0.84490  Biso   1.000  C
  C136     1.0000 0.47550  0.58770  0.65510  Biso   1.000  C
  C137     1.0000 0.18510  0.92440  0.19350  Biso   1.000  C
  C138     1.0000 0.81490  0.42440  0.30650  Biso   1.000  C
  C139     1.0000 0.81490  0.07560  0.80650  Biso   1.000  C
  C140     1.0000 0.18510  0.57560  0.69350  Biso   1.000  C
  C141     1.0000 0.08380  0.93410  0.16120  Biso   1.000  C
  C142     1.0000 0.91620  0.43410  0.33880  Biso   1.000  C
  C143     1.0000 0.91620  0.06590  0.83880  Biso   1.000  C
  C144     1.0000 0.08380  0.56590  0.66120  Biso   1.000  C
  C145     1.0000 0.07080  0.97150  0.09620  Biso   1.000  C
  C146     1.0000 0.92920  0.47150  0.40380  Biso   1.000  C
  C147     1.0000 0.92920  0.02850  0.90380  Biso   1.000  C
  C148     1.0000 0.07080  0.52850  0.59620  Biso   1.000  C
  C149     1.0000 0.15810  0.99840  0.06150  Biso   1.000  C
  C150     1.0000 0.84190  0.49840  0.43850  Biso   1.000  C
  C151     1.0000 0.84190  0.00160  0.93850  Biso   1.000  C
  C152     1.0000 0.15810  0.50160  0.56150  Biso   1.000  C
  O53      1.0000 0.35190  0.01160  0.06200  Biso   1.000  O
  O54      1.0000 0.64810  0.51160  0.43800  Biso   1.000  O
  O55      1.0000 0.64810  0.98840  0.93800  Biso   1.000  O
  O56      1.0000 0.35190  0.48840  0.56200  Biso   1.000  O
  C153     1.0000 0.34000  0.06110  0.00420  Biso   1.000  C
  C154     1.0000 0.66000  0.56110  0.49580  Biso   1.000  C
  C155     1.0000 0.66000  0.93890  0.99580  Biso   1.000  C
  C156     1.0000 0.34000  0.43890  0.50420  Biso   1.000  C
  C157     1.0000 0.29980  0.12910  0.03150  Biso   1.000  C
  C158     1.0000 0.70020  0.62910  0.46850  Biso   1.000  C
  C159     1.0000 0.70020  0.87090  0.96850  Biso   1.000  C
  C160     1.0000 0.29980  0.37090  0.53150  Biso   1.000  C
  O57      1.0000 0.28410  0.17330  0.98110  Biso   1.000  O
  O58      1.0000 0.71590  0.67330  0.51890  Biso   1.000  O
  O59      1.0000 0.71590  0.82670  0.01890  Biso   1.000  O
  O60      1.0000 0.28410  0.32670  0.48110  Biso   1.000  O
  O61      1.0000 0.28830  0.13620  0.10110  Biso   1.000  O
  O62      1.0000 0.71170  0.63620  0.39890  Biso   1.000  O
  O63      1.0000 0.71170  0.86380  0.89890  Biso   1.000  O
  O64      1.0000 0.28830  0.36380  0.60110  Biso   1.000  O
  N1       1.0000 0.24160  0.31980  0.89730  Biso   1.000  N
  N2       1.0000 0.75840  0.81980  0.60270  Biso   1.000  N
  N3       1.0000 0.75840  0.68020  0.10270  Biso   1.000  N
  N4       1.0000 0.24160  0.18020  0.39730  Biso   1.000  N
  C161     1.0000 0.22490  0.29130  0.82810  Biso   1.000  C
  C162     1.0000 0.77510  0.79130  0.67190  Biso   1.000  C
  C163     1.0000 0.77510  0.70870  0.17190  Biso   1.000  C
  C164     1.0000 0.22490  0.20870  0.32810  Biso   1.000  C
  N5       1.0000 0.21300  0.22480  0.82490  Biso   1.000  N
  N6       1.0000 0.78700  0.72480  0.67510  Biso   1.000  N
  N7       1.0000 0.78700  0.77520  0.17510  Biso   1.000  N
  N8       1.0000 0.21300  0.27520  0.32490  Biso   1.000  N
  N9       1.0000 0.22020  0.17310  0.26260  Biso   1.000  N
  N10      1.0000 0.77980  0.67310  0.23740  Biso   1.000  N
  N11      1.0000 0.77980  0.82690  0.73740  Biso   1.000  N
  N12      1.0000 0.22020  0.32690  0.76260  Biso   1.000  N
  C165     1.0000 0.23190  0.39340  0.76820  Biso   1.000  C
  C166     1.0000 0.76810  0.89340  0.73180  Biso   1.000  C
  C167     1.0000 0.76810  0.60660  0.23180  Biso   1.000  C
  C168     1.0000 0.23190  0.10660  0.26820  Biso   1.000  C
  C169     1.0000 0.24960  0.42650  0.83600  Biso   1.000  C
  C170     1.0000 0.75040  0.92650  0.66400  Biso   1.000  C
  C171     1.0000 0.75040  0.57350  0.16400  Biso   1.000  C
  C172     1.0000 0.24960  0.07350  0.33600  Biso   1.000  C
  C173     1.0000 0.25400  0.38670  0.89980  Biso   1.000  C
  C174     1.0000 0.74600  0.88670  0.60020  Biso   1.000  C
  C175     1.0000 0.74600  0.61330  0.10020  Biso   1.000  C
  C176     1.0000 0.25400  0.11330  0.39980  Biso   1.000  C
  H1       1.0000 0.51740  0.16840  0.28820  Biso   1.000  H
  H2       1.0000 0.48260  0.66840  0.21180  Biso   1.000  H
  H3       1.0000 0.48260  0.83160  0.71180  Biso   1.000  H
  H4       1.0000 0.51740  0.33160  0.78820  Biso   1.000  H
  H5       1.0000 0.46970  0.23160  0.30590  Biso   1.000  H
  H6       1.0000 0.53030  0.73160  0.19410  Biso   1.000  H
  H7       1.0000 0.53030  0.76840  0.69410  Biso   1.000  H
  H8       1.0000 0.46970  0.26840  0.80590  Biso   1.000  H
  H9       1.0000 0.47980  0.17980  0.36190  Biso   1.000  H
  H10      1.0000 0.52020  0.67980  0.13810  Biso   1.000  H
  H11      1.0000 0.52020  0.82020  0.63810  Biso   1.000  H
  H12      1.0000 0.47980  0.32020  0.86190  Biso   1.000  H
  H13      1.0000 0.82470  0.22170  0.36370  Biso   1.000  H
  H14      1.0000 0.17530  0.72170  0.13630  Biso   1.000  H
  H15      1.0000 0.17530  0.77830  0.63630  Biso   1.000  H
  H16      1.0000 0.82470  0.27830  0.86370  Biso   1.000  H
  H17      1.0000 0.95730  0.24670  0.28580  Biso   1.000  H
  H18      1.0000 0.04270  0.74670  0.21420  Biso   1.000  H
  H19      1.0000 0.04270  0.75330  0.71420  Biso   1.000  H
  H20      1.0000 0.95730  0.25330  0.78580  Biso   1.000  H
  H21      1.0000 0.91960  0.28760  0.16450  Biso   1.000  H
  H22      1.0000 0.08040  0.78760  0.33550  Biso   1.000  H
  H23      1.0000 0.08040  0.71240  0.83550  Biso   1.000  H
  H24      1.0000 0.91960  0.21240  0.66450  Biso   1.000  H
  H25      1.0000 0.73810  0.30400  0.12220  Biso   1.000  H
  H26      1.0000 0.26190  0.80400  0.37780  Biso   1.000  H
  H27      1.0000 0.26190  0.69600  0.87780  Biso   1.000  H
  H28      1.0000 0.73810  0.19600  0.62220  Biso   1.000  H
  H29      1.0000 0.57760  0.28320  0.09160  Biso   1.000  H
  H30      1.0000 0.42240  0.78320  0.40840  Biso   1.000  H
  H31      1.0000 0.42240  0.71680  0.90840  Biso   1.000  H
  H32      1.0000 0.57760  0.21680  0.59160  Biso   1.000  H
  H33      1.0000 0.53930  0.34900  0.12740  Biso   1.000  H
  H34      1.0000 0.46070  0.84900  0.37260  Biso   1.000  H
  H35      1.0000 0.46070  0.65100  0.87260  Biso   1.000  H
  H36      1.0000 0.53930  0.15100  0.62740  Biso   1.000  H
  H37      1.0000 0.90370  0.10580  0.25300  Biso   1.000  H
  H38      1.0000 0.09630  0.60580  0.24700  Biso   1.000  H
  H39      1.0000 0.09630  0.89420  0.74700  Biso   1.000  H
  H40      1.0000 0.90370  0.39420  0.75300  Biso   1.000  H
  H41      1.0000 0.97230  0.09240  0.19060  Biso   1.000  H
  H42      1.0000 0.02770  0.59240  0.30940  Biso   1.000  H
  H43      1.0000 0.02770  0.90760  0.80940  Biso   1.000  H
  H44      1.0000 0.97230  0.40760  0.69060  Biso   1.000  H
  H45      1.0000 0.96570  0.04340  0.25160  Biso   1.000  H
  H46      1.0000 0.03430  0.54340  0.24840  Biso   1.000  H
  H47      1.0000 0.03430  0.95660  0.74840  Biso   1.000  H
  H48      1.0000 0.96570  0.45660  0.75160  Biso   1.000  H
  H49      1.0000 0.62950  0.04320  0.19460  Biso   1.000  H
  H50      1.0000 0.37050  0.54320  0.30540  Biso   1.000  H
  H51      1.0000 0.37050  0.95680  0.80540  Biso   1.000  H
  H52      1.0000 0.62950  0.45680  0.69460  Biso   1.000  H
  H53      1.0000 0.50410  0.10590  0.12310  Biso   1.000  H
  H54      1.0000 0.49590  0.60590  0.37690  Biso   1.000  H
  H55      1.0000 0.49590  0.89410  0.87690  Biso   1.000  H
  H56      1.0000 0.50410  0.39410  0.62310  Biso   1.000  H
  H57      1.0000 0.54760  0.17080  0.02630  Biso   1.000  H
  H58      1.0000 0.45240  0.67080  0.47370  Biso   1.000  H
  H59      1.0000 0.45240  0.82920  0.97370  Biso   1.000  H
  H60      1.0000 0.54760  0.32920  0.52630  Biso   1.000  H
  H61      1.0000 0.71980  0.18340  0.99570  Biso   1.000  H
  H62      1.0000 0.28020  0.68340  0.50430  Biso   1.000  H
  H63      1.0000 0.28020  0.81660  0.00430  Biso   1.000  H
  H64      1.0000 0.71980  0.31660  0.49570  Biso   1.000  H
  H65      1.0000 0.88080  0.22200  0.02370  Biso   1.000  H
  H66      1.0000 0.11920  0.72200  0.47630  Biso   1.000  H
  H67      1.0000 0.11920  0.77800  0.97630  Biso   1.000  H
  H68      1.0000 0.88080  0.27800  0.52370  Biso   1.000  H
  H69      1.0000 0.91880  0.16830  0.96770  Biso   1.000  H
  H70      1.0000 0.08120  0.66830  0.53230  Biso   1.000  H
  H71      1.0000 0.08120  0.83170  0.03230  Biso   1.000  H
  H72      1.0000 0.91880  0.33170  0.46770  Biso   1.000  H
  H73      1.0000 0.04830  0.59560  0.10330  Biso   1.000  H
  H74      1.0000 0.95170  0.09560  0.39670  Biso   1.000  H
  H75      1.0000 0.95170  0.40440  0.89670  Biso   1.000  H
  H76      1.0000 0.04830  0.90440  0.60330  Biso   1.000  H
  H77      1.0000 0.98110  0.56400  0.03990  Biso   1.000  H
  H78      1.0000 0.01890  0.06400  0.46010  Biso   1.000  H
  H79      1.0000 0.01890  0.43600  0.96010  Biso   1.000  H
  H80      1.0000 0.98110  0.93600  0.53990  Biso   1.000  H
  H81      1.0000 0.99860  0.63890  0.04130  Biso   1.000  H
  H82      1.0000 0.00140  0.13890  0.45870  Biso   1.000  H
  H83      1.0000 0.00140  0.36110  0.95870  Biso   1.000  H
  H84      1.0000 0.99860  0.86110  0.54130  Biso   1.000  H
  H85      1.0000 0.32950  0.61160  0.99140  Biso   1.000  H
  H86      1.0000 0.67050  0.11160  0.50860  Biso   1.000  H
  H87      1.0000 0.67050  0.38840  0.00860  Biso   1.000  H
  H88      1.0000 0.32950  0.88840  0.49140  Biso   1.000  H
  H89      1.0000 0.48610  0.56860  0.04640  Biso   1.000  H
  H90      1.0000 0.51390  0.06860  0.45360  Biso   1.000  H
  H91      1.0000 0.51390  0.43140  0.95360  Biso   1.000  H
  H92      1.0000 0.48610  0.93140  0.54640  Biso   1.000  H
  H93      1.0000 0.46850  0.48420  0.13390  Biso   1.000  H
  H94      1.0000 0.53150  0.98420  0.36610  Biso   1.000  H
  H95      1.0000 0.53150  0.51580  0.86610  Biso   1.000  H
  H96      1.0000 0.46850  0.01580  0.63390  Biso   1.000  H
  H97      1.0000 0.30860  0.43690  0.16510  Biso   1.000  H
  H98      1.0000 0.69140  0.93690  0.33490  Biso   1.000  H
  H99      1.0000 0.69140  0.56310  0.83490  Biso   1.000  H
  H100     1.0000 0.30860  0.06310  0.66510  Biso   1.000  H
  H101     1.0000 0.03230  0.41020  0.15850  Biso   1.000  H
  H102     1.0000 0.96770  0.91020  0.34150  Biso   1.000  H
  H103     1.0000 0.96770  0.58980  0.84150  Biso   1.000  H
  H104     1.0000 0.03230  0.08980  0.65850  Biso   1.000  H
  H105     1.0000 0.14210  0.42680  0.19940  Biso   1.000  H
  H106     1.0000 0.85790  0.92680  0.30060  Biso   1.000  H
  H107     1.0000 0.85790  0.57320  0.80060  Biso   1.000  H
  H108     1.0000 0.14210  0.07320  0.69940  Biso   1.000  H
  H109     1.0000 0.50090  0.94950  0.12610  Biso   1.000  H
  H110     1.0000 0.49910  0.44950  0.37390  Biso   1.000  H
  H111     1.0000 0.49910  0.05050  0.87390  Biso   1.000  H
  H112     1.0000 0.50090  0.55050  0.62610  Biso   1.000  H
  H113     1.0000 0.45220  0.87630  0.12140  Biso   1.000  H
  H114     1.0000 0.54780  0.37630  0.37860  Biso   1.000  H
  H115     1.0000 0.54780  0.12370  0.87860  Biso   1.000  H
  H116     1.0000 0.45220  0.62370  0.62140  Biso   1.000  H
  H117     1.0000 0.53270  0.89630  0.18930  Biso   1.000  H
  H118     1.0000 0.46730  0.39630  0.31070  Biso   1.000  H
  H119     1.0000 0.46730  0.10370  0.81070  Biso   1.000  H
  H120     1.0000 0.53270  0.60370  0.68930  Biso   1.000  H
  H121     1.0000 0.19410  0.89990  0.24060  Biso   1.000  H
  H122     1.0000 0.80590  0.39990  0.25940  Biso   1.000  H
  H123     1.0000 0.80590  0.10010  0.75940  Biso   1.000  H
  H124     1.0000 0.19410  0.60010  0.74060  Biso   1.000  H
  H125     1.0000 0.01820  0.91360  0.18550  Biso   1.000  H
  H126     1.0000 0.98180  0.41360  0.31450  Biso   1.000  H
  H127     1.0000 0.98180  0.08640  0.81450  Biso   1.000  H
  H128     1.0000 0.01820  0.58640  0.68550  Biso   1.000  H
  H129     1.0000 0.00210  0.97900  0.07490  Biso   1.000  H
  H130     1.0000 0.99790  0.47900  0.42510  Biso   1.000  H
  H131     1.0000 0.99790  0.02100  0.92510  Biso   1.000  H
  H132     1.0000 0.00210  0.52100  0.57490  Biso   1.000  H
  H133     1.0000 0.14700  0.02630  0.01410  Biso   1.000  H
  H134     1.0000 0.85300  0.52630  0.48590  Biso   1.000  H
  H135     1.0000 0.85300  0.97370  0.98590  Biso   1.000  H
  H136     1.0000 0.14700  0.47370  0.51410  Biso   1.000  H
  H137     1.0000 0.29200  0.04510  0.96620  Biso   1.000  H
  H138     1.0000 0.70800  0.54510  0.53380  Biso   1.000  H
  H139     1.0000 0.70800  0.95490  0.03380  Biso   1.000  H
  H140     1.0000 0.29200  0.45490  0.46620  Biso   1.000  H
  H141     1.0000 0.40600  0.06740  0.98320  Biso   1.000  H
  H142     1.0000 0.59400  0.56740  0.51680  Biso   1.000  H
  H143     1.0000 0.59400  0.93260  0.01680  Biso   1.000  H
  H144     1.0000 0.40600  0.43260  0.48320  Biso   1.000  H
  H145     1.0000 0.23460  0.20980  0.86740  Biso   1.000  H
  H146     1.0000 0.76540  0.70980  0.63260  Biso   1.000  H
  H147     1.0000 0.76540  0.79020  0.13260  Biso   1.000  H
  H148     1.0000 0.23460  0.29020  0.36740  Biso   1.000  H
  H149     1.0000 0.19880  0.20710  0.78730  Biso   1.000  H
  H150     1.0000 0.80120  0.70710  0.71270  Biso   1.000  H
  H151     1.0000 0.80120  0.79290  0.21270  Biso   1.000  H
  H152     1.0000 0.19880  0.29290  0.28730  Biso   1.000  H
  H153     1.0000 0.22820  0.41720  0.72680  Biso   1.000  H
  H154     1.0000 0.77180  0.91720  0.77320  Biso   1.000  H
  H155     1.0000 0.77180  0.58280  0.27320  Biso   1.000  H
  H156     1.0000 0.22820  0.08280  0.22680  Biso   1.000  H
  H157     1.0000 0.25760  0.47080  0.83850  Biso   1.000  H
  H158     1.0000 0.74240  0.97080  0.66150  Biso   1.000  H
  H159     1.0000 0.74240  0.52920  0.16150  Biso   1.000  H
  H160     1.0000 0.25760  0.02920  0.33850  Biso   1.000  H
  H161     1.0000 0.26650  0.40790  0.94810  Biso   1.000  H
  H162     1.0000 0.73350  0.90790  0.55190  Biso   1.000  H
  H163     1.0000 0.73350  0.59210  0.05190  Biso   1.000  H
  H164     1.0000 0.26650  0.09210  0.44810  Biso   1.000  H
