data_image0
_cell_length_a       8.219
_cell_length_b       9.7788
_cell_length_c       24.498
_cell_angle_alpha    90
_cell_angle_beta     95.36
_cell_angle_gamma    90

_symmetry_space_group_name_H-M    "P 1"
_symmetry_int_tables_number       1

loop_
  _symmetry_equiv_pos_as_xyz
  'x, y, z'

loop_
  _atom_site_label
  _atom_site_occupancy
  _atom_site_fract_x
  _atom_site_fract_y
  _atom_site_fract_z
  _atom_site_thermal_displace_type
  _atom_site_B_iso_or_equiv
  _atom_site_type_symbol
  Cu1      1.0000 0.41640  0.11080  0.01040  Biso   1.000  Cu
  Cu2      1.0000 0.58360  0.61080  0.48960  Biso   1.000  Cu
  Cu3      1.0000 0.58360  0.88920  0.98960  Biso   1.000  Cu
  Cu4      1.0000 0.41640  0.38920  0.51040  Biso   1.000  Cu
  C1       1.0000 0.86300  0.36600  0.95250  Biso   1.000  C
  C2       1.0000 0.13700  0.86600  0.54750  Biso   1.000  C
  C3       1.0000 0.13700  0.63400  0.04750  Biso   1.000  C
  C4       1.0000 0.86300  0.13400  0.45250  Biso   1.000  C
  C5       1.0000 0.78550  0.48960  0.93720  Biso   1.000  C
  C6       1.0000 0.21450  0.98960  0.56280  Biso   1.000  C
  C7       1.0000 0.21450  0.51040  0.06280  Biso   1.000  C
  C8       1.0000 0.78550  0.01040  0.43720  Biso   1.000  C
  C9       1.0000 0.75900  0.52120  0.88190  Biso   1.000  C
  C10      1.0000 0.24100  0.02120  0.61810  Biso   1.000  C
  C11      1.0000 0.24100  0.47880  0.11810  Biso   1.000  C
  C12      1.0000 0.75900  0.97880  0.38190  Biso   1.000  C
  C13      1.0000 0.80440  0.43090  0.84220  Biso   1.000  C
  C14      1.0000 0.19560  0.93090  0.65780  Biso   1.000  C
  C15      1.0000 0.19560  0.56910  0.15780  Biso   1.000  C
  C16      1.0000 0.80440  0.06910  0.34220  Biso   1.000  C
  C17      1.0000 0.87640  0.31010  0.85770  Biso   1.000  C
  C18      1.0000 0.12360  0.81010  0.64230  Biso   1.000  C
  C19      1.0000 0.12360  0.68990  0.14230  Biso   1.000  C
  C20      1.0000 0.87640  0.18990  0.35770  Biso   1.000  C
  C21      1.0000 0.90620  0.27610  0.91210  Biso   1.000  C
  C22      1.0000 0.09380  0.77610  0.58790  Biso   1.000  C
  C23      1.0000 0.09380  0.72390  0.08790  Biso   1.000  C
  C24      1.0000 0.90620  0.22390  0.41210  Biso   1.000  C
  O1       1.0000 0.90230  0.34440  0.00700  Biso   1.000  O
  O2       1.0000 0.09770  0.84440  0.49300  Biso   1.000  O
  O3       1.0000 0.09770  0.65560  0.99300  Biso   1.000  O
  O4       1.0000 0.90230  0.15560  0.50700  Biso   1.000  O
  C25      1.0000 0.92370  0.20580  0.02540  Biso   1.000  C
  C26      1.0000 0.07630  0.70580  0.47460  Biso   1.000  C
  C27      1.0000 0.07630  0.79420  0.97460  Biso   1.000  C
  C28      1.0000 0.92370  0.29420  0.52540  Biso   1.000  C
  C29      1.0000 0.76520  0.12640  0.01770  Biso   1.000  C
  C30      1.0000 0.23480  0.62640  0.48230  Biso   1.000  C
  C31      1.0000 0.23480  0.87360  0.98230  Biso   1.000  C
  C32      1.0000 0.76520  0.37360  0.51770  Biso   1.000  C
  O5       1.0000 0.63680  0.19020  0.02220  Biso   1.000  O
  O6       1.0000 0.36320  0.69020  0.47780  Biso   1.000  O
  O7       1.0000 0.36320  0.80980  0.97780  Biso   1.000  O
  O8       1.0000 0.63680  0.30980  0.52220  Biso   1.000  O
  O9       1.0000 0.22110  0.99890  0.99280  Biso   1.000  O
  O10      1.0000 0.77890  0.49890  0.50720  Biso   1.000  O
  O11      1.0000 0.77890  0.00110  0.00720  Biso   1.000  O
  O12      1.0000 0.22110  0.50110  0.49280  Biso   1.000  O
  C33      1.0000 0.72660  0.58990  0.97670  Biso   1.000  C
  C34      1.0000 0.27340  0.08990  0.52330  Biso   1.000  C
  C35      1.0000 0.27340  0.41010  0.02330  Biso   1.000  C
  C36      1.0000 0.72660  0.91010  0.47670  Biso   1.000  C
  O13      1.0000 0.29760  0.29180  0.03910  Biso   1.000  O
  O14      1.0000 0.70240  0.79180  0.46090  Biso   1.000  O
  O15      1.0000 0.70240  0.70820  0.96090  Biso   1.000  O
  O16      1.0000 0.29760  0.20820  0.53910  Biso   1.000  O
  C37      1.0000 0.69210  0.54900  0.03270  Biso   1.000  C
  C38      1.0000 0.30790  0.04900  0.46730  Biso   1.000  C
  C39      1.0000 0.30790  0.45100  0.96730  Biso   1.000  C
  C40      1.0000 0.69210  0.95100  0.53270  Biso   1.000  C
  C41      1.0000 0.36550  0.91290  0.23580  Biso   1.000  C
  C42      1.0000 0.63450  0.41290  0.26420  Biso   1.000  C
  C43      1.0000 0.63450  0.08710  0.76420  Biso   1.000  C
  C44      1.0000 0.36550  0.58710  0.73580  Biso   1.000  C
  C45      1.0000 0.26230  0.99670  0.26330  Biso   1.000  C
  C46      1.0000 0.73770  0.49670  0.23670  Biso   1.000  C
  C47      1.0000 0.73770  0.00330  0.73670  Biso   1.000  C
  C48      1.0000 0.26230  0.50330  0.76330  Biso   1.000  C
  C49      1.0000 0.23970  0.96550  0.31700  Biso   1.000  C
  C50      1.0000 0.76030  0.46550  0.18300  Biso   1.000  C
  C51      1.0000 0.76030  0.03450  0.68300  Biso   1.000  C
  C52      1.0000 0.23970  0.53450  0.81700  Biso   1.000  C
  C53      1.0000 0.31250  0.85420  0.34330  Biso   1.000  C
  C54      1.0000 0.68750  0.35420  0.15670  Biso   1.000  C
  C55      1.0000 0.68750  0.14580  0.65670  Biso   1.000  C
  C56      1.0000 0.31250  0.64580  0.84330  Biso   1.000  C
  C57      1.0000 0.41270  0.77260  0.31540  Biso   1.000  C
  C58      1.0000 0.58730  0.27260  0.18460  Biso   1.000  C
  C59      1.0000 0.58730  0.22740  0.68460  Biso   1.000  C
  C60      1.0000 0.41270  0.72740  0.81540  Biso   1.000  C
  C61      1.0000 0.44050  0.80140  0.26260  Biso   1.000  C
  C62      1.0000 0.55950  0.30140  0.23740  Biso   1.000  C
  C63      1.0000 0.55950  0.19860  0.73740  Biso   1.000  C
  C64      1.0000 0.44050  0.69860  0.76260  Biso   1.000  C
  O17      1.0000 0.39140  0.95020  0.18370  Biso   1.000  O
  O18      1.0000 0.60860  0.45020  0.31630  Biso   1.000  O
  O19      1.0000 0.60860  0.04980  0.81630  Biso   1.000  O
  O20      1.0000 0.39140  0.54980  0.68370  Biso   1.000  O
  C65      1.0000 0.50020  0.87150  0.15530  Biso   1.000  C
  C66      1.0000 0.49980  0.37150  0.34470  Biso   1.000  C
  C67      1.0000 0.49980  0.12850  0.84470  Biso   1.000  C
  C68      1.0000 0.50020  0.62850  0.65530  Biso   1.000  C
  C69      1.0000 0.50330  0.92600  0.09800  Biso   1.000  C
  C70      1.0000 0.49670  0.42600  0.40200  Biso   1.000  C
  C71      1.0000 0.49670  0.07400  0.90200  Biso   1.000  C
  C72      1.0000 0.50330  0.57400  0.59800  Biso   1.000  C
  O21      1.0000 0.43220  0.03580  0.08500  Biso   1.000  O
  O22      1.0000 0.56780  0.53580  0.41500  Biso   1.000  O
  O23      1.0000 0.56780  0.96420  0.91500  Biso   1.000  O
  O24      1.0000 0.43220  0.46420  0.58500  Biso   1.000  O
  O25      1.0000 0.42090  0.14870  0.93250  Biso   1.000  O
  O26      1.0000 0.57910  0.64870  0.56750  Biso   1.000  O
  O27      1.0000 0.57910  0.85130  0.06750  Biso   1.000  O
  O28      1.0000 0.42090  0.35130  0.43250  Biso   1.000  O
  C73      1.0000 0.17200  0.11670  0.23760  Biso   1.000  C
  C74      1.0000 0.82800  0.61670  0.26240  Biso   1.000  C
  C75      1.0000 0.82800  0.88330  0.76240  Biso   1.000  C
  C76      1.0000 0.17200  0.38330  0.73760  Biso   1.000  C
  O29      1.0000 0.15520  0.21810  0.26480  Biso   1.000  O
  O30      1.0000 0.84480  0.71810  0.23520  Biso   1.000  O
  O31      1.0000 0.84480  0.78190  0.73520  Biso   1.000  O
  O32      1.0000 0.15520  0.28190  0.76480  Biso   1.000  O
  C77      1.0000 0.09830  0.10920  0.17970  Biso   1.000  C
  C78      1.0000 0.90170  0.60920  0.32030  Biso   1.000  C
  C79      1.0000 0.90170  0.89080  0.82030  Biso   1.000  C
  C80      1.0000 0.09830  0.39080  0.67970  Biso   1.000  C
  H1       1.0000 0.69480  0.60940  0.87020  Biso   1.000  H
  H2       1.0000 0.30520  0.10940  0.62980  Biso   1.000  H
  H3       1.0000 0.30520  0.39060  0.12980  Biso   1.000  H
  H4       1.0000 0.69480  0.89060  0.37020  Biso   1.000  H
  H5       1.0000 0.79510  0.45130  0.81140  Biso   1.000  H
  H6       1.0000 0.20490  0.95130  0.68860  Biso   1.000  H
  H7       1.0000 0.20490  0.54870  0.18860  Biso   1.000  H
  H8       1.0000 0.79510  0.04870  0.31140  Biso   1.000  H
  H9       1.0000 0.91940  0.25670  0.83450  Biso   1.000  H
  H10      1.0000 0.08060  0.75670  0.66550  Biso   1.000  H
  H11      1.0000 0.08060  0.74330  0.16550  Biso   1.000  H
  H12      1.0000 0.91940  0.24330  0.33450  Biso   1.000  H
  H13      1.0000 0.94930  0.19820  0.91960  Biso   1.000  H
  H14      1.0000 0.05070  0.69820  0.58040  Biso   1.000  H
  H15      1.0000 0.05070  0.80180  0.08040  Biso   1.000  H
  H16      1.0000 0.94930  0.30180  0.41960  Biso   1.000  H
  H17      1.0000 0.60630  0.61370  0.04530  Biso   1.000  H
  H18      1.0000 0.39370  0.11370  0.45470  Biso   1.000  H
  H19      1.0000 0.39370  0.38630  0.95470  Biso   1.000  H
  H20      1.0000 0.60630  0.88630  0.54530  Biso   1.000  H
  H21      1.0000 0.65560  0.45910  0.03490  Biso   1.000  H
  H22      1.0000 0.34440  0.95910  0.46510  Biso   1.000  H
  H23      1.0000 0.34440  0.54090  0.96510  Biso   1.000  H
  H24      1.0000 0.65560  0.04090  0.53490  Biso   1.000  H
  H25      1.0000 0.79680  0.55480  0.05600  Biso   1.000  H
  H26      1.0000 0.20320  0.05480  0.44400  Biso   1.000  H
  H27      1.0000 0.20320  0.44520  0.94400  Biso   1.000  H
  H28      1.0000 0.79680  0.94520  0.55600  Biso   1.000  H
  H29      1.0000 0.95650  0.21520  0.06280  Biso   1.000  H
  H30      1.0000 0.04350  0.71520  0.43720  Biso   1.000  H
  H31      1.0000 0.04350  0.78480  0.93720  Biso   1.000  H
  H32      1.0000 0.95650  0.28480  0.56280  Biso   1.000  H
  H33      1.0000 0.00530  0.15890  0.00710  Biso   1.000  H
  H34      1.0000 0.99470  0.65890  0.49290  Biso   1.000  H
  H35      1.0000 0.99470  0.84110  0.99290  Biso   1.000  H
  H36      1.0000 0.00530  0.34110  0.50710  Biso   1.000  H
  H37      1.0000 0.16340  0.01300  0.33170  Biso   1.000  H
  H38      1.0000 0.83660  0.51300  0.16830  Biso   1.000  H
  H39      1.0000 0.83660  0.98700  0.66830  Biso   1.000  H
  H40      1.0000 0.16340  0.48700  0.83170  Biso   1.000  H
  H41      1.0000 0.29730  0.83360  0.37940  Biso   1.000  H
  H42      1.0000 0.70270  0.33360  0.12060  Biso   1.000  H
  H43      1.0000 0.70270  0.16640  0.62060  Biso   1.000  H
  H44      1.0000 0.29730  0.66640  0.87940  Biso   1.000  H
  H45      1.0000 0.45690  0.69220  0.33250  Biso   1.000  H
  H46      1.0000 0.54310  0.19220  0.16750  Biso   1.000  H
  H47      1.0000 0.54310  0.30780  0.66750  Biso   1.000  H
  H48      1.0000 0.45690  0.80780  0.83250  Biso   1.000  H
  H49      1.0000 0.49340  0.75130  0.24730  Biso   1.000  H
  H50      1.0000 0.50660  0.25130  0.25270  Biso   1.000  H
  H51      1.0000 0.50660  0.24870  0.75270  Biso   1.000  H
  H52      1.0000 0.49340  0.74870  0.74730  Biso   1.000  H
  H53      1.0000 0.01830  0.18280  0.17180  Biso   1.000  H
  H54      1.0000 0.98170  0.68280  0.32820  Biso   1.000  H
  H55      1.0000 0.98170  0.81720  0.82820  Biso   1.000  H
  H56      1.0000 0.01830  0.31720  0.67180  Biso   1.000  H
  H57      1.0000 0.21580  0.11850  0.14940  Biso   1.000  H
  H58      1.0000 0.78420  0.61850  0.35060  Biso   1.000  H
  H59      1.0000 0.78420  0.88150  0.85060  Biso   1.000  H
  H60      1.0000 0.21580  0.38150  0.64940  Biso   1.000  H
  H61      1.0000 0.04380  0.02500  0.16980  Biso   1.000  H
  H62      1.0000 0.95620  0.52500  0.33020  Biso   1.000  H
  H63      1.0000 0.95620  0.97500  0.83020  Biso   1.000  H
  H64      1.0000 0.04380  0.47500  0.66980  Biso   1.000  H
  H65      1.0000 0.45590  0.77530  0.15080  Biso   1.000  H
  H66      1.0000 0.54410  0.27530  0.34920  Biso   1.000  H
  H67      1.0000 0.54410  0.22470  0.84920  Biso   1.000  H
  H68      1.0000 0.45590  0.72470  0.65080  Biso   1.000  H
  H69      1.0000 0.61620  0.88360  0.17030  Biso   1.000  H
  H70      1.0000 0.38380  0.38360  0.32970  Biso   1.000  H
  H71      1.0000 0.38380  0.11640  0.82970  Biso   1.000  H
  H72      1.0000 0.61620  0.61640  0.67030  Biso   1.000  H
