data_image0
_cell_length_a       10.3223
_cell_length_b       8.3892
_cell_length_c       19.9025
_cell_angle_alpha    90
_cell_angle_beta     97.533
_cell_angle_gamma    90

_symmetry_space_group_name_H-M    "P 1"
_symmetry_int_tables_number       1

loop_
  _symmetry_equiv_pos_as_xyz
  'x, y, z'

loop_
  _atom_site_label
  _atom_site_occupancy
  _atom_site_fract_x
  _atom_site_fract_y
  _atom_site_fract_z
  _atom_site_thermal_displace_type
  _atom_site_B_iso_or_equiv
  _atom_site_type_symbol
  Cu1      1.0000 0.39772  0.24319  0.34282  Biso   1.000  Cu
  Cu2      1.0000 0.10228  0.74319  0.15718  Biso   1.000  Cu
  Cu3      1.0000 0.60228  0.75681  0.65718  Biso   1.000  Cu
  Cu4      1.0000 0.89772  0.25681  0.84282  Biso   1.000  Cu
  O1       1.0000 0.44060  0.31840  0.43277  Biso   1.000  O
  O2       1.0000 0.05940  0.81840  0.06723  Biso   1.000  O
  O3       1.0000 0.55940  0.68160  0.56723  Biso   1.000  O
  O4       1.0000 0.94060  0.18160  0.93277  Biso   1.000  O
  O5       1.0000 0.35280  0.14290  0.25317  Biso   1.000  O
  O6       1.0000 0.14720  0.64290  0.24683  Biso   1.000  O
  O7       1.0000 0.64720  0.85710  0.74683  Biso   1.000  O
  O8       1.0000 0.85280  0.35710  0.75317  Biso   1.000  O
  O9       1.0000 0.28370  0.47880  0.30623  Biso   1.000  O
  O10      1.0000 0.21630  0.97880  0.19377  Biso   1.000  O
  O11      1.0000 0.71630  0.52120  0.69377  Biso   1.000  O
  O12      1.0000 0.78370  0.02120  0.80623  Biso   1.000  O
  N1       1.0000 0.26630  0.09900  0.36704  Biso   1.000  N
  N2       1.0000 0.23370  0.59900  0.13296  Biso   1.000  N
  N3       1.0000 0.73370  0.90100  0.63296  Biso   1.000  N
  N4       1.0000 0.76630  0.40100  0.86704  Biso   1.000  N
  N5       1.0000 0.56670  0.31420  0.31467  Biso   1.000  N
  N6       1.0000 0.93330  0.81420  0.18533  Biso   1.000  N
  N7       1.0000 0.43330  0.68580  0.68533  Biso   1.000  N
  N8       1.0000 0.06670  0.18580  0.81467  Biso   1.000  N
  N9       1.0000 0.60490  0.27610  0.25509  Biso   1.000  N
  N10      1.0000 0.89510  0.77610  0.24491  Biso   1.000  N
  N11      1.0000 0.39510  0.72390  0.74491  Biso   1.000  N
  N12      1.0000 0.10490  0.22390  0.75509  Biso   1.000  N
  H1       1.0000 0.55700  0.22730  0.22290  Biso   1.000  H
  H2       1.0000 0.94300  0.72730  0.27710  Biso   1.000  H
  H3       1.0000 0.44300  0.77270  0.77710  Biso   1.000  H
  H4       1.0000 0.05700  0.27270  0.72290  Biso   1.000  H
  N13      1.0000 0.48320  0.18470  0.11912  Biso   1.000  N
  N14      1.0000 0.01680  0.68470  0.38088  Biso   1.000  N
  N15      1.0000 0.51680  0.81530  0.88088  Biso   1.000  N
  N16      1.0000 0.98320  0.31530  0.61912  Biso   1.000  N
  N17      1.0000 0.37160  0.10870  0.09822  Biso   1.000  N
  N18      1.0000 0.12840  0.60870  0.40178  Biso   1.000  N
  N19      1.0000 0.62840  0.89130  0.90178  Biso   1.000  N
  N20      1.0000 0.87160  0.39130  0.59822  Biso   1.000  N
  H5       1.0000 0.32400  0.06330  0.12510  Biso   1.000  H
  H6       1.0000 0.17600  0.56330  0.37490  Biso   1.000  H
  H7       1.0000 0.67600  0.93670  0.87490  Biso   1.000  H
  H8       1.0000 0.82400  0.43670  0.62510  Biso   1.000  H
  C1       1.0000 0.42180  0.23880  0.48733  Biso   1.000  C
  C2       1.0000 0.07820  0.73880  0.01267  Biso   1.000  C
  C3       1.0000 0.57820  0.76120  0.51267  Biso   1.000  C
  C4       1.0000 0.92180  0.26120  0.98733  Biso   1.000  C
  C5       1.0000 0.48670  0.28990  0.55041  Biso   1.000  C
  C6       1.0000 0.01330  0.78990  0.94959  Biso   1.000  C
  C7       1.0000 0.51330  0.71010  0.44959  Biso   1.000  C
  C8       1.0000 0.98670  0.21010  0.05041  Biso   1.000  C
  H9       1.0000 0.53710  0.38200  0.55240  Biso   1.000  H
  H10      1.0000 0.96290  0.88200  0.94760  Biso   1.000  H
  H11      1.0000 0.46290  0.61800  0.44760  Biso   1.000  H
  H12      1.0000 0.03710  0.11800  0.05240  Biso   1.000  H
  C9       1.0000 0.47720  0.20700  0.60904  Biso   1.000  C
  C10      1.0000 0.02280  0.70700  0.89096  Biso   1.000  C
  C11      1.0000 0.52280  0.79300  0.39096  Biso   1.000  C
  C12      1.0000 0.97720  0.29300  0.10904  Biso   1.000  C
  H13      1.0000 0.52190  0.24340  0.64980  Biso   1.000  H
  H14      1.0000 0.97810  0.74340  0.85020  Biso   1.000  H
  H15      1.0000 0.47810  0.75660  0.35020  Biso   1.000  H
  H16      1.0000 0.02190  0.25660  0.14980  Biso   1.000  H
  C13      1.0000 0.40210  0.06960  0.60852  Biso   1.000  C
  C14      1.0000 0.09790  0.56960  0.89148  Biso   1.000  C
  C15      1.0000 0.59790  0.93040  0.39148  Biso   1.000  C
  C16      1.0000 0.90210  0.43040  0.10852  Biso   1.000  C
  H17      1.0000 0.39790  0.01240  0.64820  Biso   1.000  H
  H18      1.0000 0.10210  0.51240  0.85180  Biso   1.000  H
  H19      1.0000 0.60210  0.98760  0.35180  Biso   1.000  H
  H20      1.0000 0.89790  0.48760  0.14820  Biso   1.000  H
  C17      1.0000 0.33430  0.02000  0.54837  Biso   1.000  C
  C18      1.0000 0.16570  0.52000  0.95163  Biso   1.000  C
  C19      1.0000 0.66570  0.98000  0.45163  Biso   1.000  C
  C20      1.0000 0.83430  0.48000  0.04837  Biso   1.000  C
  H21      1.0000 0.28250  0.92920  0.54800  Biso   1.000  H
  H22      1.0000 0.21750  0.42920  0.95200  Biso   1.000  H
  H23      1.0000 0.71750  0.07080  0.45200  Biso   1.000  H
  H24      1.0000 0.78250  0.57080  0.04800  Biso   1.000  H
  C21      1.0000 0.34050  0.10200  0.48704  Biso   1.000  C
  C22      1.0000 0.15950  0.60200  0.01296  Biso   1.000  C
  C23      1.0000 0.65950  0.89800  0.51296  Biso   1.000  C
  C24      1.0000 0.84050  0.39800  0.98704  Biso   1.000  C
  C25      1.0000 0.26440  0.04250  0.42709  Biso   1.000  C
  C26      1.0000 0.23560  0.54250  0.07291  Biso   1.000  C
  C27      1.0000 0.73560  0.95750  0.57291  Biso   1.000  C
  C28      1.0000 0.76440  0.45750  0.92709  Biso   1.000  C
  H25      1.0000 0.20940  0.95660  0.43180  Biso   1.000  H
  H26      1.0000 0.29060  0.45660  0.06820  Biso   1.000  H
  H27      1.0000 0.79060  0.04340  0.56820  Biso   1.000  H
  H28      1.0000 0.70940  0.54340  0.93180  Biso   1.000  H
  C29      1.0000 0.18230  0.03200  0.30860  Biso   1.000  C
  C30      1.0000 0.31770  0.53200  0.19140  Biso   1.000  C
  C31      1.0000 0.81770  0.96800  0.69140  Biso   1.000  C
  C32      1.0000 0.68230  0.46800  0.80860  Biso   1.000  C
  H29      1.0000 0.16540  0.91910  0.31660  Biso   1.000  H
  H30      1.0000 0.33460  0.41910  0.18340  Biso   1.000  H
  H31      1.0000 0.83460  0.08090  0.68340  Biso   1.000  H
  H32      1.0000 0.66540  0.58090  0.81660  Biso   1.000  H
  C33      1.0000 0.25470  0.04960  0.24761  Biso   1.000  C
  C34      1.0000 0.24530  0.54960  0.25239  Biso   1.000  C
  C35      1.0000 0.74530  0.95040  0.75239  Biso   1.000  C
  C36      1.0000 0.75470  0.45040  0.74761  Biso   1.000  C
  C37      1.0000 0.05340  0.12410  0.29810  Biso   1.000  C
  C38      1.0000 0.44660  0.62410  0.20190  Biso   1.000  C
  C39      1.0000 0.94660  0.87590  0.70190  Biso   1.000  C
  C40      1.0000 0.55340  0.37590  0.79810  Biso   1.000  C
  H33      1.0000 0.00890  0.11160  0.33720  Biso   1.000  H
  H34      1.0000 0.49110  0.61160  0.16280  Biso   1.000  H
  H35      1.0000 0.99110  0.88840  0.66280  Biso   1.000  H
  H36      1.0000 0.50890  0.38840  0.83720  Biso   1.000  H
  H37      1.0000 0.99950  0.08340  0.25880  Biso   1.000  H
  H38      1.0000 0.50050  0.58340  0.24120  Biso   1.000  H
  H39      1.0000 0.00050  0.91660  0.74120  Biso   1.000  H
  H40      1.0000 0.49950  0.41660  0.75880  Biso   1.000  H
  H41      1.0000 0.07080  0.23500  0.29150  Biso   1.000  H
  H42      1.0000 0.42920  0.73500  0.20850  Biso   1.000  H
  H43      1.0000 0.92920  0.76500  0.70850  Biso   1.000  H
  H44      1.0000 0.57080  0.26500  0.79150  Biso   1.000  H
  C41      1.0000 0.72670  0.32380  0.25220  Biso   1.000  C
  C42      1.0000 0.77330  0.82380  0.24780  Biso   1.000  C
  C43      1.0000 0.27330  0.67620  0.74780  Biso   1.000  C
  C44      1.0000 0.22670  0.17620  0.75220  Biso   1.000  C
  H45      1.0000 0.77370  0.30950  0.21580  Biso   1.000  H
  H46      1.0000 0.72630  0.80950  0.28420  Biso   1.000  H
  H47      1.0000 0.22630  0.69050  0.78420  Biso   1.000  H
  H48      1.0000 0.27370  0.19050  0.71580  Biso   1.000  H
  C45      1.0000 0.77100  0.39740  0.31190  Biso   1.000  C
  C46      1.0000 0.72900  0.89740  0.18810  Biso   1.000  C
  C47      1.0000 0.22900  0.60260  0.68810  Biso   1.000  C
  C48      1.0000 0.27100  0.10260  0.81190  Biso   1.000  C
  H49      1.0000 0.85270  0.44280  0.32460  Biso   1.000  H
  H50      1.0000 0.64730  0.94280  0.17540  Biso   1.000  H
  H51      1.0000 0.14730  0.55720  0.67540  Biso   1.000  H
  H52      1.0000 0.35270  0.05720  0.82460  Biso   1.000  H
  C49      1.0000 0.66770  0.38960  0.34930  Biso   1.000  C
  C50      1.0000 0.83230  0.88960  0.15070  Biso   1.000  C
  C51      1.0000 0.33230  0.61040  0.65070  Biso   1.000  C
  C52      1.0000 0.16770  0.11040  0.84930  Biso   1.000  C
  H53      1.0000 0.66850  0.43110  0.39270  Biso   1.000  H
  H54      1.0000 0.83150  0.93110  0.10730  Biso   1.000  H
  H55      1.0000 0.33150  0.56890  0.60730  Biso   1.000  H
  H56      1.0000 0.16850  0.06890  0.89270  Biso   1.000  H
  C53      1.0000 0.52480  0.23400  0.06290  Biso   1.000  C
  C54      1.0000 0.97520  0.73400  0.43710  Biso   1.000  C
  C55      1.0000 0.47520  0.76600  0.93710  Biso   1.000  C
  C56      1.0000 0.02480  0.26600  0.56290  Biso   1.000  C
  H57      1.0000 0.60220  0.28960  0.06130  Biso   1.000  H
  H58      1.0000 0.89780  0.78960  0.43870  Biso   1.000  H
  H59      1.0000 0.39780  0.71040  0.93870  Biso   1.000  H
  H60      1.0000 0.10220  0.21040  0.56130  Biso   1.000  H
  C57      1.0000 0.43780  0.19210  0.00640  Biso   1.000  C
  C58      1.0000 0.06220  0.69210  0.49360  Biso   1.000  C
  C59      1.0000 0.56220  0.80790  0.99360  Biso   1.000  C
  C60      1.0000 0.93780  0.30790  0.50640  Biso   1.000  C
  H61      1.0000 0.44420  0.21500  0.96120  Biso   1.000  H
  H62      1.0000 0.05580  0.71500  0.53880  Biso   1.000  H
  H63      1.0000 0.55580  0.78500  0.03880  Biso   1.000  H
  H64      1.0000 0.94420  0.28500  0.46120  Biso   1.000  H
  C61      1.0000 0.34240  0.11110  0.03130  Biso   1.000  C
  C62      1.0000 0.15760  0.61110  0.46870  Biso   1.000  C
  C63      1.0000 0.65760  0.88890  0.96870  Biso   1.000  C
  C64      1.0000 0.84240  0.38890  0.53130  Biso   1.000  C
  H65      1.0000 0.26950  0.06520  0.00630  Biso   1.000  H
  H66      1.0000 0.23050  0.56520  0.49370  Biso   1.000  H
  H67      1.0000 0.73050  0.93480  0.99370  Biso   1.000  H
  H68      1.0000 0.76950  0.43480  0.50630  Biso   1.000  H
