data_image0
_cell_length_a       6.796
_cell_length_b       10.4144
_cell_length_c       11.553
_cell_angle_alpha    75.33
_cell_angle_beta     77.048
_cell_angle_gamma    78.875

_symmetry_space_group_name_H-M    "P 1"
_symmetry_int_tables_number       1

loop_
  _symmetry_equiv_pos_as_xyz
  'x, y, z'

loop_
  _atom_site_label
  _atom_site_occupancy
  _atom_site_fract_x
  _atom_site_fract_y
  _atom_site_fract_z
  _atom_site_thermal_displace_type
  _atom_site_B_iso_or_equiv
  _atom_site_type_symbol
  Cu1      1.0000 0.50000  0.50000  0.00000  Biso   1.000  Cu
  S1       1.0000 0.92560  0.57119  0.73911  Biso   1.000  S
  S2       1.0000 0.07440  0.42881  0.26089  Biso   1.000  S
  O1       1.0000 0.82090  0.56110  0.86490  Biso   1.000  O
  O2       1.0000 0.17910  0.43890  0.13510  Biso   1.000  O
  O3       1.0000 0.13250  0.59930  0.72340  Biso   1.000  O
  O4       1.0000 0.86750  0.40070  0.27660  Biso   1.000  O
  O5       1.0000 0.91600  0.45810  0.69060  Biso   1.000  O
  O6       1.0000 0.08400  0.54190  0.30940  Biso   1.000  O
  O7       1.0000 0.85460  0.07850  0.82090  Biso   1.000  O
  O8       1.0000 0.14540  0.92150  0.17910  Biso   1.000  O
  O9       1.0000 0.38910  0.44640  0.87800  Biso   1.000  O
  O10      1.0000 0.61090  0.55360  0.12200  Biso   1.000  O
  H1       1.0000 0.32010  0.49000  0.84090  Biso   1.000  H
  H2       1.0000 0.67990  0.51000  0.15910  Biso   1.000  H
  H3       1.0000 0.42520  0.37970  0.85330  Biso   1.000  H
  H4       1.0000 0.57480  0.62030  0.14670  Biso   1.000  H
  O11      1.0000 0.53410  0.25210  0.75590  Biso   1.000  O
  O12      1.0000 0.46590  0.74790  0.24410  Biso   1.000  O
  H5       1.0000 0.65460  0.20060  0.77790  Biso   1.000  H
  H6       1.0000 0.34540  0.79940  0.22210  Biso   1.000  H
  H7       1.0000 0.56550  0.29790  0.67900  Biso   1.000  H
  H8       1.0000 0.43450  0.70210  0.32100  Biso   1.000  H
  O13      1.0000 0.70460  0.39240  0.53700  Biso   1.000  O
  O14      1.0000 0.29540  0.60760  0.46300  Biso   1.000  O
  H9       1.0000 0.80050  0.41440  0.58050  Biso   1.000  H
  H10      1.0000 0.19950  0.58560  0.41950  Biso   1.000  H
  H11      1.0000 0.74080  0.40420  0.46400  Biso   1.000  H
  H12      1.0000 0.25920  0.59580  0.53600  Biso   1.000  H
  N1       1.0000 0.35620  0.68860  0.95220  Biso   1.000  N
  N2       1.0000 0.64380  0.31140  0.04780  Biso   1.000  N
  N3       1.0000 0.13390  0.18160  0.76910  Biso   1.000  N
  N4       1.0000 0.86610  0.81840  0.23090  Biso   1.000  N
  H13      1.0000 0.06730  0.25800  0.74090  Biso   1.000  H
  H14      1.0000 0.93270  0.74200  0.25910  Biso   1.000  H
  H15      1.0000 0.26270  0.17410  0.76730  Biso   1.000  H
  H16      1.0000 0.73730  0.82590  0.23270  Biso   1.000  H
  C1       1.0000 0.15620  0.70990  0.95330  Biso   1.000  C
  C2       1.0000 0.84380  0.29010  0.04670  Biso   1.000  C
  H17      1.0000 0.08290  0.63800  0.98420  Biso   1.000  H
  H18      1.0000 0.91710  0.36200  0.01580  Biso   1.000  H
  C3       1.0000 0.05410  0.83460  0.91010  Biso   1.000  C
  C4       1.0000 0.94590  0.16540  0.08990  Biso   1.000  C
  H19      1.0000 0.91420  0.84590  0.91270  Biso   1.000  H
  H20      1.0000 0.08580  0.15410  0.08730  Biso   1.000  H
  C5       1.0000 0.16010  0.94330  0.86290  Biso   1.000  C
  C6       1.0000 0.83990  0.05670  0.13710  Biso   1.000  C
  C7       1.0000 0.36780  0.92140  0.86370  Biso   1.000  C
  C8       1.0000 0.63220  0.07860  0.13630  Biso   1.000  C
  H21      1.0000 0.44450  0.99170  0.83380  Biso   1.000  H
  H22      1.0000 0.55550  0.00830  0.16620  Biso   1.000  H
  C9       1.0000 0.45830  0.79430  0.90940  Biso   1.000  C
  C10      1.0000 0.54170  0.20570  0.09060  Biso   1.000  C
  H23      1.0000 0.59710  0.78070  0.91070  Biso   1.000  H
  H24      1.0000 0.40290  0.21930  0.08930  Biso   1.000  H
  C11      1.0000 0.03830  0.07580  0.81510  Biso   1.000  C
  C12      1.0000 0.96170  0.92420  0.18490  Biso   1.000  C
  C13      1.0000 0.79210  0.71360  0.65380  Biso   1.000  C
  C14      1.0000 0.20790  0.28640  0.34620  Biso   1.000  C
  C15      1.0000 0.61600  0.70140  0.61940  Biso   1.000  C
  C16      1.0000 0.38400  0.29860  0.38060  Biso   1.000  C
  H25      1.0000 0.57280  0.61800  0.63650  Biso   1.000  H
  H26      1.0000 0.42720  0.38200  0.36350  Biso   1.000  H
  C17      1.0000 0.50350  0.81460  0.55890  Biso   1.000  C
  C18      1.0000 0.49650  0.18540  0.44110  Biso   1.000  C
  H27      1.0000 0.38530  0.80520  0.53600  Biso   1.000  H
  H28      1.0000 0.61470  0.19480  0.46400  Biso   1.000  H
  C19      1.0000 0.56110  0.93990  0.53190  Biso   1.000  C
  C20      1.0000 0.43890  0.06010  0.46810  Biso   1.000  C
  C21      1.0000 0.73710  0.95090  0.57060  Biso   1.000  C
  C22      1.0000 0.26290  0.04910  0.42940  Biso   1.000  C
  H29      1.0000 0.77760  0.03470  0.55640  Biso   1.000  H
  H30      1.0000 0.22240  0.96530  0.44360  Biso   1.000  H
  C23      1.0000 0.85220  0.83850  0.62980  Biso   1.000  C
  C24      1.0000 0.14780  0.16150  0.37020  Biso   1.000  C
  H31      1.0000 0.97010  0.84740  0.65340  Biso   1.000  H
  H32      1.0000 0.02990  0.15260  0.34660  Biso   1.000  H
