data_image0
_cell_length_a       7.6522
_cell_length_b       10.0262
_cell_length_c       16.727
_cell_angle_alpha    72.832
_cell_angle_beta     78.101
_cell_angle_gamma    79.01

_symmetry_space_group_name_H-M    "P 1"
_symmetry_int_tables_number       1

loop_
  _symmetry_equiv_pos_as_xyz
  'x, y, z'

loop_
  _atom_site_label
  _atom_site_occupancy
  _atom_site_fract_x
  _atom_site_fract_y
  _atom_site_fract_z
  _atom_site_thermal_displace_type
  _atom_site_B_iso_or_equiv
  _atom_site_type_symbol
  C1       1.0000 0.82590  0.46630  0.74120  Biso   1.000  C
  C2       1.0000 0.17410  0.53370  0.25880  Biso   1.000  C
  C3       1.0000 0.83440  0.31980  0.77200  Biso   1.000  C
  C4       1.0000 0.16560  0.68020  0.22800  Biso   1.000  C
  H1       1.0000 0.86050  0.27320  0.82600  Biso   1.000  H
  H2       1.0000 0.13950  0.72680  0.17400  Biso   1.000  H
  C5       1.0000 0.80220  0.24580  0.71870  Biso   1.000  C
  C6       1.0000 0.19780  0.75420  0.28130  Biso   1.000  C
  C7       1.0000 0.77700  0.31050  0.63700  Biso   1.000  C
  C8       1.0000 0.22300  0.68950  0.36300  Biso   1.000  C
  H3       1.0000 0.76250  0.25770  0.60210  Biso   1.000  H
  H4       1.0000 0.23750  0.74230  0.39790  Biso   1.000  H
  C9       1.0000 0.77320  0.45770  0.60590  Biso   1.000  C
  C10      1.0000 0.22680  0.54230  0.39410  Biso   1.000  C
  C11      1.0000 0.79560  0.53400  0.65950  Biso   1.000  C
  C12      1.0000 0.20440  0.46600  0.34050  Biso   1.000  C
  H5       1.0000 0.79020  0.63140  0.64000  Biso   1.000  H
  H6       1.0000 0.20980  0.36860  0.36000  Biso   1.000  H
  C13      1.0000 0.84970  0.55090  0.79790  Biso   1.000  C
  C14      1.0000 0.15030  0.44910  0.20210  Biso   1.000  C
  C15      1.0000 0.80690  0.08760  0.75030  Biso   1.000  C
  C16      1.0000 0.19310  0.91240  0.24970  Biso   1.000  C
  C17      1.0000 0.75900  0.48110  0.45500  Biso   1.000  C
  C18      1.0000 0.24100  0.51890  0.54500  Biso   1.000  C
  C19      1.0000 0.72180  0.58790  0.37270  Biso   1.000  C
  C20      1.0000 0.27820  0.41210  0.62730  Biso   1.000  C
  C21      1.0000 0.69740  0.53620  0.31050  Biso   1.000  C
  C22      1.0000 0.30260  0.46380  0.68950  Biso   1.000  C
  H7       1.0000 0.70310  0.43980  0.31850  Biso   1.000  H
  H8       1.0000 0.29690  0.56020  0.68150  Biso   1.000  H
  C23      1.0000 0.66390  0.63070  0.23450  Biso   1.000  C
  C24      1.0000 0.33610  0.36930  0.76550  Biso   1.000  C
  H9       1.0000 0.64680  0.59390  0.19220  Biso   1.000  H
  H10      1.0000 0.35320  0.40610  0.80780  Biso   1.000  H
  C25      1.0000 0.68320  0.81460  0.27920  Biso   1.000  C
  C26      1.0000 0.31680  0.18540  0.72080  Biso   1.000  C
  H11      1.0000 0.68100  0.91120  0.26940  Biso   1.000  H
  H12      1.0000 0.31900  0.08880  0.73060  Biso   1.000  H
  C27      1.0000 0.71650  0.72750  0.35730  Biso   1.000  C
  C28      1.0000 0.28350  0.27250  0.64270  Biso   1.000  C
  H13      1.0000 0.73510  0.76550  0.39880  Biso   1.000  H
  H14      1.0000 0.26490  0.23450  0.60120  Biso   1.000  H
  C29      1.0000 0.57650  0.69030  0.96200  Biso   1.000  C
  C30      1.0000 0.42350  0.30970  0.03800  Biso   1.000  C
  H15      1.0000 0.64960  0.60350  0.97240  Biso   1.000  H
  H16      1.0000 0.35040  0.39650  0.02760  Biso   1.000  H
  C31      1.0000 0.40630  0.71730  0.00280  Biso   1.000  C
  C32      1.0000 0.59370  0.28270  0.99720  Biso   1.000  C
  H17      1.0000 0.34160  0.65460  0.04600  Biso   1.000  H
  H18      1.0000 0.65840  0.34540  0.95400  Biso   1.000  H
  C33      1.0000 0.48060  0.90850  0.90640  Biso   1.000  C
  C34      1.0000 0.51940  0.09150  0.09360  Biso   1.000  C
  H19      1.0000 0.47390  0.00000  0.87130  Biso   1.000  H
  H20      1.0000 0.52610  0.00000  0.12870  Biso   1.000  H
  C35      1.0000 0.17120  0.93030  0.98390  Biso   1.000  C
  C36      1.0000 0.82880  0.06970  0.01610  Biso   1.000  C
  C37      1.0000 0.14610  0.07280  0.97310  Biso   1.000  C
  C38      1.0000 0.85390  0.92720  0.02690  Biso   1.000  C
  H21      1.0000 0.24470  0.12210  0.95430  Biso   1.000  H
  H22      1.0000 0.75530  0.87790  0.04570  Biso   1.000  H
  C39      1.0000 0.02450  0.85570  0.01020  Biso   1.000  C
  C40      1.0000 0.97550  0.14430  0.98980  Biso   1.000  C
  H23      1.0000 0.04110  0.75910  0.01650  Biso   1.000  H
  H24      1.0000 0.95890  0.24090  0.98350  Biso   1.000  H
  C41      1.0000 0.26210  0.76100  0.79440  Biso   1.000  C
  C42      1.0000 0.73790  0.23900  0.20560  Biso   1.000  C
  H25      1.0000 0.27340  0.71090  0.85000  Biso   1.000  H
  H26      1.0000 0.72660  0.28910  0.15000  Biso   1.000  H
  C43      1.0000 0.40080  0.79210  0.73130  Biso   1.000  C
  C44      1.0000 0.59920  0.20790  0.26870  Biso   1.000  C
  H27      1.0000 0.52300  0.76930  0.73500  Biso   1.000  H
  H28      1.0000 0.47700  0.23070  0.26500  Biso   1.000  H
  C45      1.0000 0.14630  0.87580  0.68280  Biso   1.000  C
  C46      1.0000 0.85370  0.12420  0.31720  Biso   1.000  C
  H29      1.0000 0.06440  0.92110  0.64600  Biso   1.000  H
  H30      1.0000 0.93560  0.07890  0.35400  Biso   1.000  H
  C47      1.0000 0.41780  0.92980  0.57880  Biso   1.000  C
  C48      1.0000 0.58220  0.07020  0.42120  Biso   1.000  C
  C49      1.0000 0.34370  0.94620  0.50780  Biso   1.000  C
  C50      1.0000 0.65630  0.05380  0.49220  Biso   1.000  C
  H31      1.0000 0.23670  0.91090  0.51320  Biso   1.000  H
  H32      1.0000 0.76330  0.08910  0.48680  Biso   1.000  H
  C51      1.0000 0.57420  0.98540  0.57180  Biso   1.000  C
  C52      1.0000 0.42580  0.01460  0.42820  Biso   1.000  C
  H33      1.0000 0.62340  0.97700  0.61980  Biso   1.000  H
  H34      1.0000 0.37660  0.02300  0.38020  Biso   1.000  H
  Cu1      1.0000 0.84655  0.82708  0.81954  Biso   1.000  Cu
  Cu2      1.0000 0.15345  0.17292  0.18046  Biso   1.000  Cu
  N1       1.0000 0.65420  0.76670  0.21730  Biso   1.000  N
  N2       1.0000 0.34580  0.23330  0.78270  Biso   1.000  N
  N3       1.0000 0.74610  0.53080  0.52210  Biso   1.000  N
  N4       1.0000 0.25390  0.46920  0.47790  Biso   1.000  N
  H35      1.0000 0.71690  0.62060  0.51300  Biso   1.000  H
  H36      1.0000 0.28310  0.37940  0.48700  Biso   1.000  H
  N5       1.0000 0.10100  0.81420  0.76480  Biso   1.000  N
  N6       1.0000 0.89900  0.18580  0.23520  Biso   1.000  N
  N7       1.0000 0.32600  0.86380  0.66050  Biso   1.000  N
  N8       1.0000 0.67400  0.13620  0.33950  Biso   1.000  N
  N9       1.0000 0.62300  0.80940  0.90393  Biso   1.000  N
  N10      1.0000 0.37700  0.19060  0.09607  Biso   1.000  N
  N11      1.0000 0.34990  0.85680  0.96659  Biso   1.000  N
  N12      1.0000 0.65010  0.14320  0.03341  Biso   1.000  N
  O1       1.0000 0.89710  0.48980  0.86641  Biso   1.000  O
  O2       1.0000 0.10290  0.51020  0.13359  Biso   1.000  O
  O3       1.0000 0.80840  0.68300  0.77137  Biso   1.000  O
  O4       1.0000 0.19160  0.31700  0.22863  Biso   1.000  O
  O5       1.0000 0.84660  0.02530  0.82217  Biso   1.000  O
  O6       1.0000 0.15340  0.97470  0.17783  Biso   1.000  O
  O7       1.0000 0.76940  0.02460  0.70330  Biso   1.000  O
  O8       1.0000 0.23060  0.97540  0.29670  Biso   1.000  O
  O9       1.0000 0.78930  0.35800  0.45940  Biso   1.000  O
  O10      1.0000 0.21070  0.64200  0.54060  Biso   1.000  O
