data_image0
_cell_length_a       7.5575
_cell_length_b       9.3285
_cell_length_c       16.6741
_cell_angle_alpha    90
_cell_angle_beta     90
_cell_angle_gamma    90

_symmetry_space_group_name_H-M    "P 1"
_symmetry_int_tables_number       1

loop_
  _symmetry_equiv_pos_as_xyz
  'x, y, z'

loop_
  _atom_site_label
  _atom_site_occupancy
  _atom_site_fract_x
  _atom_site_fract_y
  _atom_site_fract_z
  _atom_site_thermal_displace_type
  _atom_site_B_iso_or_equiv
  _atom_site_type_symbol
  Cu1      1.0000 0.32621  0.49207  0.55385  Biso   1.000  Cu
  Cu2      1.0000 0.17379  0.50793  0.05385  Biso   1.000  Cu
  Cu3      1.0000 0.67379  0.99207  0.94615  Biso   1.000  Cu
  Cu4      1.0000 0.82621  0.00793  0.44615  Biso   1.000  Cu
  Cu5      1.0000 0.67379  0.50793  0.44615  Biso   1.000  Cu
  Cu6      1.0000 0.82621  0.49207  0.94615  Biso   1.000  Cu
  Cu7      1.0000 0.32621  0.00793  0.05385  Biso   1.000  Cu
  Cu8      1.0000 0.17379  0.99207  0.55385  Biso   1.000  Cu
  Se1      1.0000 0.98535  0.30827  0.49786  Biso   1.000  Se
  Se2      1.0000 0.51465  0.69173  0.99786  Biso   1.000  Se
  Se3      1.0000 0.01465  0.80827  0.00214  Biso   1.000  Se
  Se4      1.0000 0.48535  0.19173  0.50214  Biso   1.000  Se
  Se5      1.0000 0.01465  0.69173  0.50214  Biso   1.000  Se
  Se6      1.0000 0.48535  0.30827  0.00214  Biso   1.000  Se
  Se7      1.0000 0.98535  0.19173  0.99786  Biso   1.000  Se
  Se8      1.0000 0.51465  0.80827  0.49786  Biso   1.000  Se
  O1       1.0000 0.17370  0.39230  0.46620  Biso   1.000  O
  O2       1.0000 0.32630  0.60770  0.96620  Biso   1.000  O
  O3       1.0000 0.82630  0.89230  0.03380  Biso   1.000  O
  O4       1.0000 0.67370  0.10770  0.53380  Biso   1.000  O
  O5       1.0000 0.82630  0.60770  0.53380  Biso   1.000  O
  O6       1.0000 0.67370  0.39230  0.03380  Biso   1.000  O
  O7       1.0000 0.17370  0.10770  0.96620  Biso   1.000  O
  O8       1.0000 0.32630  0.89230  0.46620  Biso   1.000  O
  O9       1.0000 0.84220  0.35680  0.42560  Biso   1.000  O
  O10      1.0000 0.65780  0.64320  0.92560  Biso   1.000  O
  O11      1.0000 0.15780  0.85680  0.07440  Biso   1.000  O
  O12      1.0000 0.34220  0.14320  0.57440  Biso   1.000  O
  O13      1.0000 0.15780  0.64320  0.57440  Biso   1.000  O
  O14      1.0000 0.34220  0.35680  0.07440  Biso   1.000  O
  O15      1.0000 0.84220  0.14320  0.92560  Biso   1.000  O
  O16      1.0000 0.65780  0.85680  0.42560  Biso   1.000  O
  O17      1.0000 0.02580  0.13510  0.46950  Biso   1.000  O
  O18      1.0000 0.47420  0.86490  0.96950  Biso   1.000  O
  O19      1.0000 0.97420  0.63510  0.03050  Biso   1.000  O
  O20      1.0000 0.52580  0.36490  0.53050  Biso   1.000  O
  O21      1.0000 0.97420  0.86490  0.53050  Biso   1.000  O
  O22      1.0000 0.52580  0.13510  0.03050  Biso   1.000  O
  O23      1.0000 0.02580  0.36490  0.96950  Biso   1.000  O
  O24      1.0000 0.47420  0.63510  0.46950  Biso   1.000  O
  N1       1.0000 0.37980  0.48520  0.67150  Biso   1.000  N
  N2       1.0000 0.12020  0.51480  0.17150  Biso   1.000  N
  N3       1.0000 0.62020  0.98520  0.82850  Biso   1.000  N
  N4       1.0000 0.87980  0.01480  0.32850  Biso   1.000  N
  N5       1.0000 0.62020  0.51480  0.32850  Biso   1.000  N
  N6       1.0000 0.87980  0.48520  0.82850  Biso   1.000  N
  N7       1.0000 0.37980  0.01480  0.17150  Biso   1.000  N
  N8       1.0000 0.12020  0.98520  0.67150  Biso   1.000  N
  N9       1.0000 0.36390  0.51370  0.80110  Biso   1.000  N
  N10      1.0000 0.13610  0.48630  0.30110  Biso   1.000  N
  N11      1.0000 0.63610  0.01370  0.69890  Biso   1.000  N
  N12      1.0000 0.86390  0.98630  0.19890  Biso   1.000  N
  N13      1.0000 0.63610  0.48630  0.19890  Biso   1.000  N
  N14      1.0000 0.86390  0.51370  0.69890  Biso   1.000  N
  N15      1.0000 0.36390  0.98630  0.30110  Biso   1.000  N
  N16      1.0000 0.13610  0.01370  0.80110  Biso   1.000  N
  H1       1.0000 0.33950  0.55160  0.84680  Biso   1.000  H
  H2       1.0000 0.16050  0.44840  0.34680  Biso   1.000  H
  H3       1.0000 0.66050  0.05160  0.65320  Biso   1.000  H
  H4       1.0000 0.83950  0.94840  0.15320  Biso   1.000  H
  H5       1.0000 0.66050  0.44840  0.15320  Biso   1.000  H
  H6       1.0000 0.83950  0.55160  0.65320  Biso   1.000  H
  H7       1.0000 0.33950  0.94840  0.34680  Biso   1.000  H
  H8       1.0000 0.16050  0.05160  0.84680  Biso   1.000  H
  C1       1.0000 0.45690  0.39050  0.78910  Biso   1.000  C
  C2       1.0000 0.04310  0.60950  0.28910  Biso   1.000  C
  C3       1.0000 0.54310  0.89050  0.71090  Biso   1.000  C
  C4       1.0000 0.95690  0.10950  0.21090  Biso   1.000  C
  C5       1.0000 0.54310  0.60950  0.21090  Biso   1.000  C
  C6       1.0000 0.95690  0.39050  0.71090  Biso   1.000  C
  C7       1.0000 0.45690  0.10950  0.28910  Biso   1.000  C
  C8       1.0000 0.04310  0.89050  0.78910  Biso   1.000  C
  H9       1.0000 0.50240  0.32990  0.82830  Biso   1.000  H
  H10      1.0000 0.99760  0.67010  0.32830  Biso   1.000  H
  H11      1.0000 0.49760  0.82990  0.67170  Biso   1.000  H
  H12      1.0000 0.00240  0.17010  0.17170  Biso   1.000  H
  H13      1.0000 0.49760  0.67010  0.17170  Biso   1.000  H
  H14      1.0000 0.00240  0.32990  0.67170  Biso   1.000  H
  H15      1.0000 0.50240  0.17010  0.32830  Biso   1.000  H
  H16      1.0000 0.99760  0.82990  0.82830  Biso   1.000  H
  C9       1.0000 0.46990  0.37400  0.70810  Biso   1.000  C
  C10      1.0000 0.03010  0.62600  0.20810  Biso   1.000  C
  C11      1.0000 0.53010  0.87400  0.79190  Biso   1.000  C
  C12      1.0000 0.96990  0.12600  0.29190  Biso   1.000  C
  C13      1.0000 0.53010  0.62600  0.29190  Biso   1.000  C
  C14      1.0000 0.96990  0.37400  0.79190  Biso   1.000  C
  C15      1.0000 0.46990  0.12600  0.20810  Biso   1.000  C
  C16      1.0000 0.03010  0.87400  0.70810  Biso   1.000  C
  H17      1.0000 0.52930  0.30040  0.68180  Biso   1.000  H
  H18      1.0000 0.97070  0.69960  0.18180  Biso   1.000  H
  H19      1.0000 0.47070  0.80040  0.81820  Biso   1.000  H
  H20      1.0000 0.02930  0.19960  0.31820  Biso   1.000  H
  H21      1.0000 0.47070  0.69960  0.31820  Biso   1.000  H
  H22      1.0000 0.02930  0.30040  0.81820  Biso   1.000  H
  H23      1.0000 0.52930  0.19960  0.18180  Biso   1.000  H
  H24      1.0000 0.97070  0.80040  0.68180  Biso   1.000  H
  C17      1.0000 0.31750  0.56520  0.72970  Biso   1.000  C
  C18      1.0000 0.18250  0.43480  0.22970  Biso   1.000  C
  C19      1.0000 0.68250  0.06520  0.77030  Biso   1.000  C
  C20      1.0000 0.81750  0.93480  0.27030  Biso   1.000  C
  C21      1.0000 0.68250  0.43480  0.27030  Biso   1.000  C
  C22      1.0000 0.81750  0.56520  0.77030  Biso   1.000  C
  C23      1.0000 0.31750  0.93480  0.22970  Biso   1.000  C
  C24      1.0000 0.18250  0.06520  0.72970  Biso   1.000  C
  H25      1.0000 0.24960  0.64720  0.72200  Biso   1.000  H
  H26      1.0000 0.25040  0.35280  0.22200  Biso   1.000  H
  H27      1.0000 0.75040  0.14720  0.77800  Biso   1.000  H
  H28      1.0000 0.74960  0.85280  0.27800  Biso   1.000  H
  H29      1.0000 0.75040  0.35280  0.27800  Biso   1.000  H
  H30      1.0000 0.74960  0.64720  0.77800  Biso   1.000  H
  H31      1.0000 0.24960  0.85280  0.22200  Biso   1.000  H
  H32      1.0000 0.25040  0.14720  0.72200  Biso   1.000  H
