data_image0
_cell_length_a       10.7241
_cell_length_b       9.6013
_cell_length_c       12.2743
_cell_angle_alpha    90
_cell_angle_beta     113.219
_cell_angle_gamma    90

_symmetry_space_group_name_H-M    "P 1"
_symmetry_int_tables_number       1

loop_
  _symmetry_equiv_pos_as_xyz
  'x, y, z'

loop_
  _atom_site_label
  _atom_site_occupancy
  _atom_site_fract_x
  _atom_site_fract_y
  _atom_site_fract_z
  _atom_site_thermal_displace_type
  _atom_site_B_iso_or_equiv
  _atom_site_type_symbol
  Cu1      1.0000 0.00000  0.00000  0.00000  Biso   1.000  Cu
  Cu2      1.0000 0.50000  0.50000  0.00000  Biso   1.000  Cu
  N1       1.0000 0.01790  0.19770  0.95350  Biso   1.000  N
  N2       1.0000 0.48210  0.69770  0.04650  Biso   1.000  N
  N3       1.0000 0.98210  0.80230  0.04650  Biso   1.000  N
  N4       1.0000 0.51790  0.30230  0.95350  Biso   1.000  N
  C1       1.0000 0.13760  0.26190  0.00460  Biso   1.000  C
  C2       1.0000 0.36240  0.76190  0.99540  Biso   1.000  C
  C3       1.0000 0.86240  0.73810  0.99540  Biso   1.000  C
  C4       1.0000 0.63760  0.23810  0.00460  Biso   1.000  C
  H1       1.0000 0.20980  0.21370  0.06420  Biso   1.000  H
  H2       1.0000 0.29020  0.71370  0.93580  Biso   1.000  H
  H3       1.0000 0.79020  0.78630  0.93580  Biso   1.000  H
  H4       1.0000 0.70980  0.28630  0.06420  Biso   1.000  H
  C5       1.0000 0.16110  0.39510  0.97460  Biso   1.000  C
  C6       1.0000 0.33890  0.89510  0.02540  Biso   1.000  C
  C7       1.0000 0.83890  0.60490  0.02540  Biso   1.000  C
  C8       1.0000 0.66110  0.10490  0.97460  Biso   1.000  C
  O1       1.0000 0.28260  0.45840  0.02890  Biso   1.000  O
  O2       1.0000 0.21740  0.95840  0.97110  Biso   1.000  O
  O3       1.0000 0.71740  0.54160  0.97110  Biso   1.000  O
  O4       1.0000 0.78260  0.04160  0.02890  Biso   1.000  O
  C9       1.0000 0.05450  0.46580  0.88700  Biso   1.000  C
  C10      1.0000 0.44550  0.96580  0.11300  Biso   1.000  C
  C11      1.0000 0.94550  0.53420  0.11300  Biso   1.000  C
  C12      1.0000 0.55450  0.03420  0.88700  Biso   1.000  C
  H5       1.0000 0.06690  0.55710  0.86310  Biso   1.000  H
  H6       1.0000 0.43310  0.05710  0.13690  Biso   1.000  H
  H7       1.0000 0.93310  0.44290  0.13690  Biso   1.000  H
  H8       1.0000 0.56690  0.94290  0.86310  Biso   1.000  H
  C13      1.0000 0.93050  0.39930  0.83630  Biso   1.000  C
  C14      1.0000 0.56950  0.89930  0.16370  Biso   1.000  C
  C15      1.0000 0.06950  0.60070  0.16370  Biso   1.000  C
  C16      1.0000 0.43050  0.10070  0.83630  Biso   1.000  C
  H9       1.0000 0.85580  0.44560  0.77760  Biso   1.000  H
  H10      1.0000 0.64420  0.94560  0.22240  Biso   1.000  H
  H11      1.0000 0.14420  0.55440  0.22240  Biso   1.000  H
  H12      1.0000 0.35580  0.05440  0.77760  Biso   1.000  H
  C17      1.0000 0.91480  0.26530  0.87060  Biso   1.000  C
  C18      1.0000 0.58520  0.76530  0.12940  Biso   1.000  C
  C19      1.0000 0.08520  0.73470  0.12940  Biso   1.000  C
  C20      1.0000 0.41480  0.23470  0.87060  Biso   1.000  C
  H13      1.0000 0.82930  0.22040  0.83470  Biso   1.000  H
  H14      1.0000 0.67070  0.72040  0.16530  Biso   1.000  H
  H15      1.0000 0.17070  0.77960  0.16530  Biso   1.000  H
  H16      1.0000 0.32930  0.27960  0.83470  Biso   1.000  H
  O5       1.0000 0.89220  0.95700  0.83410  Biso   1.000  O
  O6       1.0000 0.60780  0.45700  0.16590  Biso   1.000  O
  O7       1.0000 0.10780  0.04300  0.16590  Biso   1.000  O
  O8       1.0000 0.39220  0.54300  0.83410  Biso   1.000  O
  O9       1.0000 0.04330  0.82320  0.80030  Biso   1.000  O
  O10      1.0000 0.45670  0.32320  0.19970  Biso   1.000  O
  O11      1.0000 0.95670  0.17680  0.19970  Biso   1.000  O
  O12      1.0000 0.54330  0.67680  0.80030  Biso   1.000  O
  C21      1.0000 0.92720  0.87190  0.77170  Biso   1.000  C
  C22      1.0000 0.57280  0.37190  0.22830  Biso   1.000  C
  C23      1.0000 0.07280  0.12810  0.22830  Biso   1.000  C
  C24      1.0000 0.42720  0.62810  0.77170  Biso   1.000  C
  C25      1.0000 0.81910  0.83050  0.65110  Biso   1.000  C
  C26      1.0000 0.68090  0.33050  0.34890  Biso   1.000  C
  C27      1.0000 0.18090  0.16950  0.34890  Biso   1.000  C
  C28      1.0000 0.31910  0.66950  0.65110  Biso   1.000  C
  H17      1.0000 0.84760  0.86690  0.58910  Biso   1.000  H
  H18      1.0000 0.65240  0.36690  0.41090  Biso   1.000  H
  H19      1.0000 0.15240  0.13310  0.41090  Biso   1.000  H
  H20      1.0000 0.34760  0.63310  0.58910  Biso   1.000  H
  H21      1.0000 0.81870  0.72760  0.64560  Biso   1.000  H
  H22      1.0000 0.68130  0.22760  0.35440  Biso   1.000  H
  H23      1.0000 0.18130  0.27240  0.35440  Biso   1.000  H
  H24      1.0000 0.31870  0.77240  0.64560  Biso   1.000  H
  C29      1.0000 0.68410  0.87480  0.62340  Biso   1.000  C
  C30      1.0000 0.81590  0.37480  0.37660  Biso   1.000  C
  C31      1.0000 0.31590  0.12520  0.37660  Biso   1.000  C
  C32      1.0000 0.18410  0.62520  0.62340  Biso   1.000  C
  H25      1.0000 0.68460  0.97730  0.63260  Biso   1.000  H
  H26      1.0000 0.81540  0.47730  0.36740  Biso   1.000  H
  H27      1.0000 0.31540  0.02270  0.36740  Biso   1.000  H
  H28      1.0000 0.18460  0.52270  0.63260  Biso   1.000  H
  H29      1.0000 0.65320  0.83410  0.68270  Biso   1.000  H
  H30      1.0000 0.84680  0.33410  0.31730  Biso   1.000  H
  H31      1.0000 0.34680  0.16590  0.31730  Biso   1.000  H
  H32      1.0000 0.15320  0.66590  0.68270  Biso   1.000  H
  C33      1.0000 0.57870  0.83760  0.49860  Biso   1.000  C
  C34      1.0000 0.92130  0.33760  0.50140  Biso   1.000  C
  C35      1.0000 0.42130  0.16240  0.50140  Biso   1.000  C
  C36      1.0000 0.07870  0.66240  0.49860  Biso   1.000  C
  H33      1.0000 0.48880  0.86930  0.49370  Biso   1.000  H
  H34      1.0000 0.01120  0.36930  0.50630  Biso   1.000  H
  H35      1.0000 0.51120  0.13070  0.50630  Biso   1.000  H
  H36      1.0000 0.98880  0.63070  0.49370  Biso   1.000  H
  H37      1.0000 0.60060  0.89280  0.44030  Biso   1.000  H
  H38      1.0000 0.89940  0.39280  0.55970  Biso   1.000  H
  H39      1.0000 0.39940  0.10720  0.55970  Biso   1.000  H
  H40      1.0000 0.10060  0.60720  0.44030  Biso   1.000  H
  C37      1.0000 0.56590  0.69720  0.46220  Biso   1.000  C
  C38      1.0000 0.93410  0.19720  0.53780  Biso   1.000  C
  C39      1.0000 0.43410  0.30280  0.53780  Biso   1.000  C
  C40      1.0000 0.06590  0.80280  0.46220  Biso   1.000  C
  H41      1.0000 0.56550  0.63800  0.52810  Biso   1.000  H
  H42      1.0000 0.93450  0.13800  0.47190  Biso   1.000  H
  H43      1.0000 0.43450  0.36200  0.47190  Biso   1.000  H
  H44      1.0000 0.06550  0.86200  0.52810  Biso   1.000  H
  H45      1.0000 0.64630  0.67110  0.44610  Biso   1.000  H
  H46      1.0000 0.85370  0.17110  0.55390  Biso   1.000  H
  H47      1.0000 0.35370  0.32890  0.55390  Biso   1.000  H
  H48      1.0000 0.14630  0.82890  0.44610  Biso   1.000  H
  C41      1.0000 0.43920  0.66650  0.35280  Biso   1.000  C
  C42      1.0000 0.06080  0.16650  0.64720  Biso   1.000  C
  C43      1.0000 0.56080  0.33350  0.64720  Biso   1.000  C
  C44      1.0000 0.93920  0.83350  0.35280  Biso   1.000  C
  H49      1.0000 0.43650  0.56710  0.33360  Biso   1.000  H
  H50      1.0000 0.06350  0.06710  0.66640  Biso   1.000  H
  H51      1.0000 0.56350  0.43290  0.66640  Biso   1.000  H
  H52      1.0000 0.93650  0.93290  0.33360  Biso   1.000  H
  H53      1.0000 0.44050  0.72150  0.28590  Biso   1.000  H
  H54      1.0000 0.05950  0.22150  0.71410  Biso   1.000  H
  H55      1.0000 0.55950  0.27850  0.71410  Biso   1.000  H
  H56      1.0000 0.94050  0.77850  0.28590  Biso   1.000  H
  H57      1.0000 0.35880  0.69090  0.36790  Biso   1.000  H
  H58      1.0000 0.14120  0.19090  0.63210  Biso   1.000  H
  H59      1.0000 0.64120  0.30910  0.63210  Biso   1.000  H
  H60      1.0000 0.85880  0.80910  0.36790  Biso   1.000  H
  H61      1.0000 0.32800  0.41600  0.07600  Biso   1.000  H
  H62      1.0000 0.17200  0.91600  0.92400  Biso   1.000  H
  H63      1.0000 0.67200  0.58400  0.92400  Biso   1.000  H
  H64      1.0000 0.82800  0.08400  0.07600  Biso   1.000  H
