data_image0
_cell_length_a       12.8516
_cell_length_b       9.6675
_cell_length_c       10.4773
_cell_angle_alpha    90
_cell_angle_beta     100.929
_cell_angle_gamma    90

_symmetry_space_group_name_H-M    "P 1"
_symmetry_int_tables_number       1

loop_
  _symmetry_equiv_pos_as_xyz
  'x, y, z'

loop_
  _atom_site_label
  _atom_site_occupancy
  _atom_site_fract_x
  _atom_site_fract_y
  _atom_site_fract_z
  _atom_site_thermal_displace_type
  _atom_site_B_iso_or_equiv
  _atom_site_type_symbol
  Cu1      1.0000 0.00000  0.50000  0.50000  Biso   1.000  Cu
  Cu2      1.0000 0.00000  0.00000  0.00000  Biso   1.000  Cu
  N1       1.0000 0.04468  0.69490  0.55090  Biso   1.000  N
  N2       1.0000 0.95532  0.19490  0.94910  Biso   1.000  N
  N3       1.0000 0.95532  0.30510  0.44910  Biso   1.000  N
  N4       1.0000 0.04468  0.80510  0.05090  Biso   1.000  N
  O1       1.0000 0.96987  0.96040  0.76030  Biso   1.000  O
  O2       1.0000 0.03013  0.46040  0.73970  Biso   1.000  O
  O3       1.0000 0.03013  0.03960  0.23970  Biso   1.000  O
  O4       1.0000 0.96987  0.53960  0.26030  Biso   1.000  O
  O5       1.0000 0.14749  0.45390  0.49360  Biso   1.000  O
  O6       1.0000 0.85251  0.95390  0.00640  Biso   1.000  O
  O7       1.0000 0.85251  0.54610  0.50640  Biso   1.000  O
  O8       1.0000 0.14749  0.04610  0.99360  Biso   1.000  O
  O9       1.0000 0.17683  0.31860  0.67000  Biso   1.000  O
  O10      1.0000 0.82317  0.81860  0.83000  Biso   1.000  O
  O11      1.0000 0.82317  0.68140  0.33000  Biso   1.000  O
  O12      1.0000 0.17683  0.18140  0.17000  Biso   1.000  O
  C1       1.0000 0.99630  0.76110  0.63580  Biso   1.000  C
  C2       1.0000 0.00370  0.26110  0.86420  Biso   1.000  C
  C3       1.0000 0.00370  0.23890  0.36420  Biso   1.000  C
  C4       1.0000 0.99630  0.73890  0.13580  Biso   1.000  C
  C5       1.0000 0.02240  0.89530  0.67760  Biso   1.000  C
  C6       1.0000 0.97760  0.39530  0.82240  Biso   1.000  C
  C7       1.0000 0.97760  0.10470  0.32240  Biso   1.000  C
  C8       1.0000 0.02240  0.60470  0.17760  Biso   1.000  C
  C9       1.0000 0.10360  0.96230  0.63190  Biso   1.000  C
  C10      1.0000 0.89640  0.46230  0.86810  Biso   1.000  C
  C11      1.0000 0.89640  0.03770  0.36810  Biso   1.000  C
  C12      1.0000 0.10360  0.53770  0.13190  Biso   1.000  C
  C13      1.0000 0.15340  0.89300  0.54370  Biso   1.000  C
  C14      1.0000 0.84660  0.39300  0.95630  Biso   1.000  C
  C15      1.0000 0.84660  0.10700  0.45630  Biso   1.000  C
  C16      1.0000 0.15340  0.60700  0.04370  Biso   1.000  C
  C17      1.0000 0.12250  0.75980  0.50480  Biso   1.000  C
  C18      1.0000 0.87750  0.25980  0.99520  Biso   1.000  C
  C19      1.0000 0.87750  0.24020  0.49520  Biso   1.000  C
  C20      1.0000 0.12250  0.74020  0.00480  Biso   1.000  C
  C21      1.0000 0.20100  0.36510  0.56790  Biso   1.000  C
  C22      1.0000 0.79900  0.86510  0.93210  Biso   1.000  C
  C23      1.0000 0.79900  0.63490  0.43210  Biso   1.000  C
  C24      1.0000 0.20100  0.13490  0.06790  Biso   1.000  C
  C25      1.0000 0.30110  0.30890  0.52990  Biso   1.000  C
  C26      1.0000 0.69890  0.80890  0.97010  Biso   1.000  C
  C27      1.0000 0.69890  0.69110  0.47010  Biso   1.000  C
  C28      1.0000 0.30110  0.19110  0.02990  Biso   1.000  C
  C29      1.0000 0.34260  0.38450  0.42190  Biso   1.000  C
  C30      1.0000 0.65740  0.88450  0.07810  Biso   1.000  C
  C31      1.0000 0.65740  0.61550  0.57810  Biso   1.000  C
  C32      1.0000 0.34260  0.11550  0.92190  Biso   1.000  C
  C33      1.0000 0.44680  0.32060  0.40180  Biso   1.000  C
  C34      1.0000 0.55320  0.82060  0.09820  Biso   1.000  C
  C35      1.0000 0.55320  0.67940  0.59820  Biso   1.000  C
  C36      1.0000 0.44680  0.17940  0.90180  Biso   1.000  C
  C37      1.0000 0.49980  0.39260  0.30150  Biso   1.000  C
  C38      1.0000 0.50020  0.89260  0.19850  Biso   1.000  C
  C39      1.0000 0.50020  0.60740  0.69850  Biso   1.000  C
  C40      1.0000 0.49980  0.10740  0.80150  Biso   1.000  C
  C41      1.0000 0.60380  0.32380  0.28860  Biso   1.000  C
  C42      1.0000 0.39620  0.82380  0.21140  Biso   1.000  C
  C43      1.0000 0.39620  0.67620  0.71140  Biso   1.000  C
  C44      1.0000 0.60380  0.17620  0.78860  Biso   1.000  C
  C45      1.0000 0.65940  0.38900  0.18760  Biso   1.000  C
  C46      1.0000 0.34060  0.88900  0.31240  Biso   1.000  C
  C47      1.0000 0.34060  0.61100  0.81240  Biso   1.000  C
  C48      1.0000 0.65940  0.11100  0.68760  Biso   1.000  C
  H1       1.0000 0.94500  0.70800  0.66900  Biso   1.000  H
  H2       1.0000 0.05500  0.20800  0.83100  Biso   1.000  H
  H3       1.0000 0.05500  0.29200  0.33100  Biso   1.000  H
  H4       1.0000 0.94500  0.79200  0.16900  Biso   1.000  H
  H5       1.0000 0.12200  0.05400  0.66100  Biso   1.000  H
  H6       1.0000 0.87800  0.55400  0.83900  Biso   1.000  H
  H7       1.0000 0.87800  0.94600  0.33900  Biso   1.000  H
  H8       1.0000 0.12200  0.44600  0.16100  Biso   1.000  H
  H9       1.0000 0.21600  0.92900  0.51000  Biso   1.000  H
  H10      1.0000 0.78400  0.42900  0.99000  Biso   1.000  H
  H11      1.0000 0.78400  0.07100  0.49000  Biso   1.000  H
  H12      1.0000 0.21600  0.57100  0.01000  Biso   1.000  H
  H13      1.0000 0.15300  0.70700  0.44100  Biso   1.000  H
  H14      1.0000 0.84700  0.20700  0.05900  Biso   1.000  H
  H15      1.0000 0.84700  0.29300  0.55900  Biso   1.000  H
  H16      1.0000 0.15300  0.79300  0.94100  Biso   1.000  H
  H17      1.0000 0.92500  0.91800  0.77100  Biso   1.000  H
  H18      1.0000 0.07500  0.41800  0.72900  Biso   1.000  H
  H19      1.0000 0.07500  0.08200  0.22900  Biso   1.000  H
  H20      1.0000 0.92500  0.58200  0.27100  Biso   1.000  H
  H21      1.0000 0.28800  0.20700  0.50700  Biso   1.000  H
  H22      1.0000 0.71200  0.70700  0.99300  Biso   1.000  H
  H23      1.0000 0.71200  0.79300  0.49300  Biso   1.000  H
  H24      1.0000 0.28800  0.29300  0.00700  Biso   1.000  H
  H25      1.0000 0.36200  0.30800  0.61600  Biso   1.000  H
  H26      1.0000 0.63800  0.80800  0.88400  Biso   1.000  H
  H27      1.0000 0.63800  0.69200  0.38400  Biso   1.000  H
  H28      1.0000 0.36200  0.19200  0.11600  Biso   1.000  H
  H29      1.0000 0.29300  0.40900  0.34400  Biso   1.000  H
  H30      1.0000 0.70700  0.90900  0.15600  Biso   1.000  H
  H31      1.0000 0.70700  0.59100  0.65600  Biso   1.000  H
  H32      1.0000 0.29300  0.09100  0.84400  Biso   1.000  H
  H33      1.0000 0.35400  0.48150  0.44300  Biso   1.000  H
  H34      1.0000 0.64600  0.98150  0.05700  Biso   1.000  H
  H35      1.0000 0.64600  0.51850  0.55700  Biso   1.000  H
  H36      1.0000 0.35400  0.01850  0.94300  Biso   1.000  H
  H37      1.0000 0.43500  0.22500  0.38100  Biso   1.000  H
  H38      1.0000 0.56500  0.72500  0.11900  Biso   1.000  H
  H39      1.0000 0.56500  0.77500  0.61900  Biso   1.000  H
  H40      1.0000 0.43500  0.27500  0.88100  Biso   1.000  H
  H41      1.0000 0.49900  0.31800  0.48100  Biso   1.000  H
  H42      1.0000 0.50100  0.81800  0.01900  Biso   1.000  H
  H43      1.0000 0.50100  0.68200  0.51900  Biso   1.000  H
  H44      1.0000 0.49900  0.18200  0.98100  Biso   1.000  H
  H45      1.0000 0.51200  0.49100  0.32000  Biso   1.000  H
  H46      1.0000 0.48800  0.99100  0.18000  Biso   1.000  H
  H47      1.0000 0.48800  0.50900  0.68000  Biso   1.000  H
  H48      1.0000 0.51200  0.00900  0.82000  Biso   1.000  H
  H49      1.0000 0.45500  0.39900  0.22300  Biso   1.000  H
  H50      1.0000 0.54500  0.89900  0.27700  Biso   1.000  H
  H51      1.0000 0.54500  0.60100  0.77700  Biso   1.000  H
  H52      1.0000 0.45500  0.10100  0.72300  Biso   1.000  H
  H53      1.0000 0.59900  0.22700  0.28400  Biso   1.000  H
  H54      1.0000 0.40100  0.72700  0.21600  Biso   1.000  H
  H55      1.0000 0.40100  0.77300  0.71600  Biso   1.000  H
  H56      1.0000 0.59900  0.27300  0.78400  Biso   1.000  H
  H57      1.0000 0.65400  0.32100  0.38000  Biso   1.000  H
  H58      1.0000 0.34600  0.82100  0.12000  Biso   1.000  H
  H59      1.0000 0.34600  0.67900  0.62000  Biso   1.000  H
  H60      1.0000 0.65400  0.17900  0.88000  Biso   1.000  H
  H61      1.0000 0.62300  0.36600  0.10100  Biso   1.000  H
  H62      1.0000 0.37700  0.86600  0.39900  Biso   1.000  H
  H63      1.0000 0.37700  0.63400  0.89900  Biso   1.000  H
  H64      1.0000 0.62300  0.13400  0.60100  Biso   1.000  H
  H65      1.0000 0.73400  0.33300  0.18900  Biso   1.000  H
  H66      1.0000 0.26600  0.83300  0.31100  Biso   1.000  H
  H67      1.0000 0.26600  0.66700  0.81100  Biso   1.000  H
  H68      1.0000 0.73400  0.16700  0.68900  Biso   1.000  H
  H69      1.0000 0.67300  0.48440  0.20800  Biso   1.000  H
  H70      1.0000 0.32700  0.98440  0.29200  Biso   1.000  H
  H71      1.0000 0.32700  0.51560  0.79200  Biso   1.000  H
  H72      1.0000 0.67300  0.01560  0.70800  Biso   1.000  H
