data_image0
_cell_length_a       24.075
_cell_length_b       9.496
_cell_length_c       14.226
_cell_angle_alpha    90
_cell_angle_beta     122.425
_cell_angle_gamma    90

_symmetry_space_group_name_H-M    "P 1"
_symmetry_int_tables_number       1

loop_
  _symmetry_equiv_pos_as_xyz
  'x, y, z'

loop_
  _atom_site_label
  _atom_site_occupancy
  _atom_site_fract_x
  _atom_site_fract_y
  _atom_site_fract_z
  _atom_site_thermal_displace_type
  _atom_site_B_iso_or_equiv
  _atom_site_type_symbol
  Cu1      1.0000 0.24765  0.04550  0.35342  Biso   1.000  Cu
  Cu2      1.0000 0.75235  0.04550  0.14658  Biso   1.000  Cu
  Cu3      1.0000 0.74765  0.54550  0.35342  Biso   1.000  Cu
  Cu4      1.0000 0.25235  0.54550  0.14658  Biso   1.000  Cu
  Cu5      1.0000 0.75235  0.95450  0.64658  Biso   1.000  Cu
  Cu6      1.0000 0.24765  0.95450  0.85342  Biso   1.000  Cu
  Cu7      1.0000 0.25235  0.45450  0.64658  Biso   1.000  Cu
  Cu8      1.0000 0.74765  0.45450  0.85342  Biso   1.000  Cu
  S1       1.0000 0.32022  0.82603  0.24928  Biso   1.000  S
  S2       1.0000 0.67978  0.82603  0.25072  Biso   1.000  S
  S3       1.0000 0.82022  0.32603  0.24928  Biso   1.000  S
  S4       1.0000 0.17978  0.32603  0.25072  Biso   1.000  S
  S5       1.0000 0.67978  0.17397  0.75072  Biso   1.000  S
  S6       1.0000 0.32022  0.17397  0.74928  Biso   1.000  S
  S7       1.0000 0.17978  0.67397  0.75072  Biso   1.000  S
  S8       1.0000 0.82022  0.67397  0.74928  Biso   1.000  S
  O1       1.0000 0.26251  0.97090  0.49530  Biso   1.000  O
  O2       1.0000 0.73749  0.97090  0.00470  Biso   1.000  O
  O3       1.0000 0.76251  0.47090  0.49530  Biso   1.000  O
  O4       1.0000 0.23749  0.47090  0.00470  Biso   1.000  O
  O5       1.0000 0.73749  0.02910  0.50470  Biso   1.000  O
  O6       1.0000 0.26251  0.02910  0.99530  Biso   1.000  O
  O7       1.0000 0.23749  0.52910  0.50470  Biso   1.000  O
  O8       1.0000 0.76251  0.52910  0.99530  Biso   1.000  O
  H1       1.0000 0.23130  0.94100  0.49900  Biso   1.000  H
  H2       1.0000 0.76870  0.94100  0.00100  Biso   1.000  H
  H3       1.0000 0.73130  0.44100  0.49900  Biso   1.000  H
  H4       1.0000 0.26870  0.44100  0.00100  Biso   1.000  H
  H5       1.0000 0.76870  0.05900  0.50100  Biso   1.000  H
  H6       1.0000 0.23130  0.05900  0.99900  Biso   1.000  H
  H7       1.0000 0.26870  0.55900  0.50100  Biso   1.000  H
  H8       1.0000 0.73130  0.55900  0.99900  Biso   1.000  H
  H9       1.0000 0.27820  0.03900  0.54100  Biso   1.000  H
  H10      1.0000 0.72180  0.03900  0.95900  Biso   1.000  H
  H11      1.0000 0.77820  0.53900  0.54100  Biso   1.000  H
  H12      1.0000 0.22180  0.53900  0.95900  Biso   1.000  H
  H13      1.0000 0.72180  0.96100  0.45900  Biso   1.000  H
  H14      1.0000 0.27820  0.96100  0.04100  Biso   1.000  H
  H15      1.0000 0.22180  0.46100  0.45900  Biso   1.000  H
  H16      1.0000 0.77820  0.46100  0.04100  Biso   1.000  H
  O9       1.0000 0.33503  0.61830  0.48300  Biso   1.000  O
  O10      1.0000 0.66497  0.61830  0.01700  Biso   1.000  O
  O11      1.0000 0.83503  0.11830  0.48300  Biso   1.000  O
  O12      1.0000 0.16497  0.11830  0.01700  Biso   1.000  O
  O13      1.0000 0.66497  0.38170  0.51700  Biso   1.000  O
  O14      1.0000 0.33503  0.38170  0.98300  Biso   1.000  O
  O15      1.0000 0.16497  0.88170  0.51700  Biso   1.000  O
  O16      1.0000 0.83503  0.88170  0.98300  Biso   1.000  O
  H17      1.0000 0.31680  0.63800  0.41530  Biso   1.000  H
  H18      1.0000 0.68320  0.63800  0.08470  Biso   1.000  H
  H19      1.0000 0.81680  0.13800  0.41530  Biso   1.000  H
  H20      1.0000 0.18320  0.13800  0.08470  Biso   1.000  H
  H21      1.0000 0.68320  0.36200  0.58470  Biso   1.000  H
  H22      1.0000 0.31680  0.36200  0.91530  Biso   1.000  H
  H23      1.0000 0.18320  0.86200  0.58470  Biso   1.000  H
  H24      1.0000 0.81680  0.86200  0.91530  Biso   1.000  H
  H25      1.0000 0.36390  0.67600  0.52400  Biso   1.000  H
  H26      1.0000 0.63610  0.67600  0.97600  Biso   1.000  H
  H27      1.0000 0.86390  0.17600  0.52400  Biso   1.000  H
  H28      1.0000 0.13610  0.17600  0.97600  Biso   1.000  H
  H29      1.0000 0.63610  0.32400  0.47600  Biso   1.000  H
  H30      1.0000 0.36390  0.32400  0.02400  Biso   1.000  H
  H31      1.0000 0.13610  0.82400  0.47600  Biso   1.000  H
  H32      1.0000 0.86390  0.82400  0.02400  Biso   1.000  H
  O17      1.0000 0.44620  0.78700  0.60830  Biso   1.000  O
  O18      1.0000 0.55380  0.78700  0.89170  Biso   1.000  O
  O19      1.0000 0.94620  0.28700  0.60830  Biso   1.000  O
  O20      1.0000 0.05380  0.28700  0.89170  Biso   1.000  O
  O21      1.0000 0.55380  0.21300  0.39170  Biso   1.000  O
  O22      1.0000 0.44620  0.21300  0.10830  Biso   1.000  O
  O23      1.0000 0.05380  0.71300  0.39170  Biso   1.000  O
  O24      1.0000 0.94620  0.71300  0.10830  Biso   1.000  O
  O25      1.0000 0.28306  0.94480  0.25482  Biso   1.000  O
  O26      1.0000 0.71694  0.94480  0.24518  Biso   1.000  O
  O27      1.0000 0.78306  0.44480  0.25482  Biso   1.000  O
  O28      1.0000 0.21694  0.44480  0.24518  Biso   1.000  O
  O29      1.0000 0.71694  0.05520  0.74518  Biso   1.000  O
  O30      1.0000 0.28306  0.05520  0.75482  Biso   1.000  O
  O31      1.0000 0.21694  0.55520  0.74518  Biso   1.000  O
  O32      1.0000 0.78306  0.55520  0.75482  Biso   1.000  O
  O33      1.0000 0.38998  0.83610  0.33620  Biso   1.000  O
  O34      1.0000 0.61002  0.83610  0.16380  Biso   1.000  O
  O35      1.0000 0.88998  0.33610  0.33620  Biso   1.000  O
  O36      1.0000 0.11002  0.33610  0.16380  Biso   1.000  O
  O37      1.0000 0.61002  0.16390  0.66380  Biso   1.000  O
  O38      1.0000 0.38998  0.16390  0.83620  Biso   1.000  O
  O39      1.0000 0.11002  0.66390  0.66380  Biso   1.000  O
  O40      1.0000 0.88998  0.66390  0.83620  Biso   1.000  O
  O41      1.0000 0.31056  0.81880  0.13887  Biso   1.000  O
  O42      1.0000 0.68944  0.81880  0.36113  Biso   1.000  O
  O43      1.0000 0.81056  0.31880  0.13887  Biso   1.000  O
  O44      1.0000 0.18944  0.31880  0.36113  Biso   1.000  O
  O45      1.0000 0.68944  0.18120  0.86113  Biso   1.000  O
  O46      1.0000 0.31056  0.18120  0.63887  Biso   1.000  O
  O47      1.0000 0.18944  0.68120  0.86113  Biso   1.000  O
  O48      1.0000 0.81056  0.68120  0.63887  Biso   1.000  O
  O49      1.0000 0.29359  0.69170  0.26642  Biso   1.000  O
  O50      1.0000 0.70641  0.69170  0.23358  Biso   1.000  O
  O51      1.0000 0.79359  0.19170  0.26642  Biso   1.000  O
  O52      1.0000 0.20641  0.19170  0.23358  Biso   1.000  O
  O53      1.0000 0.70641  0.30830  0.73358  Biso   1.000  O
  O54      1.0000 0.29359  0.30830  0.76642  Biso   1.000  O
  O55      1.0000 0.20641  0.80830  0.73358  Biso   1.000  O
  O56      1.0000 0.79359  0.80830  0.76642  Biso   1.000  O
  N1       1.0000 0.33694  0.13340  0.44950  Biso   1.000  N
  N2       1.0000 0.66306  0.13340  0.05050  Biso   1.000  N
  N3       1.0000 0.83694  0.63340  0.44950  Biso   1.000  N
  N4       1.0000 0.16306  0.63340  0.05050  Biso   1.000  N
  N5       1.0000 0.66306  0.86660  0.55050  Biso   1.000  N
  N6       1.0000 0.33694  0.86660  0.94950  Biso   1.000  N
  N7       1.0000 0.16306  0.36660  0.55050  Biso   1.000  N
  N8       1.0000 0.83694  0.36660  0.94950  Biso   1.000  N
  N9       1.0000 0.50353  0.98340  0.62180  Biso   1.000  N
  N10      1.0000 0.49647  0.98340  0.87820  Biso   1.000  N
  N11      1.0000 0.00353  0.48340  0.62180  Biso   1.000  N
  N12      1.0000 0.99647  0.48340  0.87820  Biso   1.000  N
  N13      1.0000 0.49647  0.01660  0.37820  Biso   1.000  N
  N14      1.0000 0.50353  0.01660  0.12180  Biso   1.000  N
  N15      1.0000 0.99647  0.51660  0.37820  Biso   1.000  N
  N16      1.0000 0.00353  0.51660  0.12180  Biso   1.000  N
  H33      1.0000 0.54270  0.01800  0.64100  Biso   1.000  H
  H34      1.0000 0.45730  0.01800  0.85900  Biso   1.000  H
  H35      1.0000 0.04270  0.51800  0.64100  Biso   1.000  H
  H36      1.0000 0.95730  0.51800  0.85900  Biso   1.000  H
  H37      1.0000 0.45730  0.98200  0.35900  Biso   1.000  H
  H38      1.0000 0.54270  0.98200  0.14100  Biso   1.000  H
  H39      1.0000 0.95730  0.48200  0.35900  Biso   1.000  H
  H40      1.0000 0.04270  0.48200  0.14100  Biso   1.000  H
  N17      1.0000 0.66670  0.57610  0.77360  Biso   1.000  N
  N18      1.0000 0.33330  0.57610  0.72640  Biso   1.000  N
  N19      1.0000 0.16670  0.07610  0.77360  Biso   1.000  N
  N20      1.0000 0.83330  0.07610  0.72640  Biso   1.000  N
  N21      1.0000 0.33330  0.42390  0.22640  Biso   1.000  N
  N22      1.0000 0.66670  0.42390  0.27360  Biso   1.000  N
  N23      1.0000 0.83330  0.92390  0.22640  Biso   1.000  N
  N24      1.0000 0.16670  0.92390  0.27360  Biso   1.000  N
  C1       1.0000 0.38634  0.04030  0.49940  Biso   1.000  C
  C2       1.0000 0.61366  0.04030  0.00060  Biso   1.000  C
  C3       1.0000 0.88634  0.54030  0.49940  Biso   1.000  C
  C4       1.0000 0.11366  0.54030  0.00060  Biso   1.000  C
  C5       1.0000 0.61366  0.95970  0.50060  Biso   1.000  C
  C6       1.0000 0.38634  0.95970  0.99940  Biso   1.000  C
  C7       1.0000 0.11366  0.45970  0.50060  Biso   1.000  C
  C8       1.0000 0.88634  0.45970  0.99940  Biso   1.000  C
  H41      1.0000 0.37690  0.94310  0.48250  Biso   1.000  H
  H42      1.0000 0.62310  0.94310  0.01750  Biso   1.000  H
  H43      1.0000 0.87690  0.44310  0.48250  Biso   1.000  H
  H44      1.0000 0.12310  0.44310  0.01750  Biso   1.000  H
  H45      1.0000 0.62310  0.05690  0.51750  Biso   1.000  H
  H46      1.0000 0.37690  0.05690  0.98250  Biso   1.000  H
  H47      1.0000 0.12310  0.55690  0.51750  Biso   1.000  H
  H48      1.0000 0.87690  0.55690  0.98250  Biso   1.000  H
  C9       1.0000 0.45055  0.08060  0.57450  Biso   1.000  C
  C10      1.0000 0.54945  0.08060  0.92550  Biso   1.000  C
  C11      1.0000 0.95055  0.58060  0.57450  Biso   1.000  C
  C12      1.0000 0.04945  0.58060  0.92550  Biso   1.000  C
  C13      1.0000 0.54945  0.91940  0.42550  Biso   1.000  C
  C14      1.0000 0.45055  0.91940  0.07450  Biso   1.000  C
  C15      1.0000 0.04945  0.41940  0.42550  Biso   1.000  C
  C16      1.0000 0.95055  0.41940  0.07450  Biso   1.000  C
  C17      1.0000 0.46398  0.22140  0.59990  Biso   1.000  C
  C18      1.0000 0.53602  0.22140  0.90010  Biso   1.000  C
  C19      1.0000 0.96398  0.72140  0.59990  Biso   1.000  C
  C20      1.0000 0.03602  0.72140  0.90010  Biso   1.000  C
  C21      1.0000 0.53602  0.77860  0.40010  Biso   1.000  C
  C22      1.0000 0.46398  0.77860  0.09990  Biso   1.000  C
  C23      1.0000 0.03602  0.27860  0.40010  Biso   1.000  C
  C24      1.0000 0.96398  0.27860  0.09990  Biso   1.000  C
  H49      1.0000 0.50770  0.25230  0.65130  Biso   1.000  H
  H50      1.0000 0.49230  0.25230  0.84870  Biso   1.000  H
  H51      1.0000 0.00770  0.75230  0.65130  Biso   1.000  H
  H52      1.0000 0.99230  0.75230  0.84870  Biso   1.000  H
  H53      1.0000 0.49230  0.74770  0.34870  Biso   1.000  H
  H54      1.0000 0.50770  0.74770  0.15130  Biso   1.000  H
  H55      1.0000 0.99230  0.24770  0.34870  Biso   1.000  H
  H56      1.0000 0.00770  0.24770  0.15130  Biso   1.000  H
  C25      1.0000 0.41292  0.31630  0.54950  Biso   1.000  C
  C26      1.0000 0.58708  0.31630  0.95050  Biso   1.000  C
  C27      1.0000 0.91292  0.81630  0.54950  Biso   1.000  C
  C28      1.0000 0.08708  0.81630  0.95050  Biso   1.000  C
  C29      1.0000 0.58708  0.68370  0.45050  Biso   1.000  C
  C30      1.0000 0.41292  0.68370  0.04950  Biso   1.000  C
  C31      1.0000 0.08708  0.18370  0.45050  Biso   1.000  C
  C32      1.0000 0.91292  0.18370  0.04950  Biso   1.000  C
  H57      1.0000 0.42110  0.41370  0.56680  Biso   1.000  H
  H58      1.0000 0.57890  0.41370  0.93320  Biso   1.000  H
  H59      1.0000 0.92110  0.91370  0.56680  Biso   1.000  H
  H60      1.0000 0.07890  0.91370  0.93320  Biso   1.000  H
  H61      1.0000 0.57890  0.58630  0.43320  Biso   1.000  H
  H62      1.0000 0.42110  0.58630  0.06680  Biso   1.000  H
  H63      1.0000 0.07890  0.08630  0.43320  Biso   1.000  H
  H64      1.0000 0.92110  0.08630  0.06680  Biso   1.000  H
  C33      1.0000 0.34957  0.27020  0.47350  Biso   1.000  C
  C34      1.0000 0.65043  0.27020  0.02650  Biso   1.000  C
  C35      1.0000 0.84957  0.77020  0.47350  Biso   1.000  C
  C36      1.0000 0.15043  0.77020  0.02650  Biso   1.000  C
  C37      1.0000 0.65043  0.72980  0.52650  Biso   1.000  C
  C38      1.0000 0.34957  0.72980  0.97350  Biso   1.000  C
  C39      1.0000 0.15043  0.22980  0.52650  Biso   1.000  C
  C40      1.0000 0.84957  0.22980  0.97350  Biso   1.000  C
  H65      1.0000 0.31470  0.33660  0.43810  Biso   1.000  H
  H66      1.0000 0.68530  0.33660  0.06190  Biso   1.000  H
  H67      1.0000 0.81470  0.83660  0.43810  Biso   1.000  H
  H68      1.0000 0.18530  0.83660  0.06190  Biso   1.000  H
  H69      1.0000 0.68530  0.66340  0.56190  Biso   1.000  H
  H70      1.0000 0.31470  0.66340  0.93810  Biso   1.000  H
  H71      1.0000 0.18530  0.16340  0.56190  Biso   1.000  H
  H72      1.0000 0.81470  0.16340  0.93810  Biso   1.000  H
  C41      1.0000 0.60572  0.52670  0.70520  Biso   1.000  C
  C42      1.0000 0.39428  0.52670  0.79480  Biso   1.000  C
  C43      1.0000 0.10572  0.02670  0.70520  Biso   1.000  C
  C44      1.0000 0.89428  0.02670  0.79480  Biso   1.000  C
  C45      1.0000 0.39428  0.47330  0.29480  Biso   1.000  C
  C46      1.0000 0.60572  0.47330  0.20520  Biso   1.000  C
  C47      1.0000 0.89428  0.97330  0.29480  Biso   1.000  C
  C48      1.0000 0.10572  0.97330  0.20520  Biso   1.000  C
  H73      1.0000 0.59980  0.42890  0.68830  Biso   1.000  H
  H74      1.0000 0.40020  0.42890  0.81170  Biso   1.000  H
  H75      1.0000 0.09980  0.92890  0.68830  Biso   1.000  H
  H76      1.0000 0.90020  0.92890  0.81170  Biso   1.000  H
  H77      1.0000 0.40020  0.57110  0.31170  Biso   1.000  H
  H78      1.0000 0.59980  0.57110  0.18830  Biso   1.000  H
  H79      1.0000 0.90020  0.07110  0.31170  Biso   1.000  H
  H80      1.0000 0.09980  0.07110  0.18830  Biso   1.000  H
  C49      1.0000 0.55132  0.61270  0.65870  Biso   1.000  C
  C50      1.0000 0.44868  0.61270  0.84130  Biso   1.000  C
  C51      1.0000 0.05132  0.11270  0.65870  Biso   1.000  C
  C52      1.0000 0.94868  0.11270  0.84130  Biso   1.000  C
  C53      1.0000 0.44868  0.38730  0.34130  Biso   1.000  C
  C54      1.0000 0.55132  0.38730  0.15870  Biso   1.000  C
  C55      1.0000 0.94868  0.88730  0.34130  Biso   1.000  C
  C56      1.0000 0.05132  0.88730  0.15870  Biso   1.000  C
  H81      1.0000 0.50860  0.57410  0.61140  Biso   1.000  H
  H82      1.0000 0.49140  0.57410  0.88860  Biso   1.000  H
  H83      1.0000 0.00860  0.07410  0.61140  Biso   1.000  H
  H84      1.0000 0.99140  0.07410  0.88860  Biso   1.000  H
  H85      1.0000 0.49140  0.42590  0.38860  Biso   1.000  H
  H86      1.0000 0.50860  0.42590  0.11140  Biso   1.000  H
  H87      1.0000 0.99140  0.92590  0.38860  Biso   1.000  H
  H88      1.0000 0.00860  0.92590  0.11140  Biso   1.000  H
  C57      1.0000 0.55915  0.75650  0.68110  Biso   1.000  C
  C58      1.0000 0.44085  0.75650  0.81890  Biso   1.000  C
  C59      1.0000 0.05915  0.25650  0.68110  Biso   1.000  C
  C60      1.0000 0.94085  0.25650  0.81890  Biso   1.000  C
  C61      1.0000 0.44085  0.24350  0.31890  Biso   1.000  C
  C62      1.0000 0.55915  0.24350  0.18110  Biso   1.000  C
  C63      1.0000 0.94085  0.74350  0.31890  Biso   1.000  C
  C64      1.0000 0.05915  0.74350  0.18110  Biso   1.000  C
  C65      1.0000 0.62217  0.80660  0.74910  Biso   1.000  C
  C66      1.0000 0.37783  0.80660  0.75090  Biso   1.000  C
  C67      1.0000 0.12217  0.30660  0.74910  Biso   1.000  C
  C68      1.0000 0.87783  0.30660  0.75090  Biso   1.000  C
  C69      1.0000 0.37783  0.19340  0.25090  Biso   1.000  C
  C70      1.0000 0.62217  0.19340  0.24910  Biso   1.000  C
  C71      1.0000 0.87783  0.69340  0.25090  Biso   1.000  C
  C72      1.0000 0.12217  0.69340  0.24910  Biso   1.000  C
  H89      1.0000 0.62970  0.90440  0.76490  Biso   1.000  H
  H90      1.0000 0.37030  0.90440  0.73510  Biso   1.000  H
  H91      1.0000 0.12970  0.40440  0.76490  Biso   1.000  H
  H92      1.0000 0.87030  0.40440  0.73510  Biso   1.000  H
  H93      1.0000 0.37030  0.09560  0.23510  Biso   1.000  H
  H94      1.0000 0.62970  0.09560  0.26490  Biso   1.000  H
  H95      1.0000 0.87030  0.59560  0.23510  Biso   1.000  H
  H96      1.0000 0.12970  0.59560  0.26490  Biso   1.000  H
  C73      1.0000 0.67421  0.71400  0.79410  Biso   1.000  C
  C74      1.0000 0.32579  0.71400  0.70590  Biso   1.000  C
  C75      1.0000 0.17421  0.21400  0.79410  Biso   1.000  C
  C76      1.0000 0.82579  0.21400  0.70590  Biso   1.000  C
  C77      1.0000 0.32579  0.28600  0.20590  Biso   1.000  C
  C78      1.0000 0.67421  0.28600  0.29410  Biso   1.000  C
  C79      1.0000 0.82579  0.78600  0.20590  Biso   1.000  C
  C80      1.0000 0.17421  0.78600  0.29410  Biso   1.000  C
  H97      1.0000 0.71740  0.75000  0.84190  Biso   1.000  H
  H98      1.0000 0.28260  0.75000  0.65810  Biso   1.000  H
  H99      1.0000 0.21740  0.25000  0.84190  Biso   1.000  H
  H100     1.0000 0.78260  0.25000  0.65810  Biso   1.000  H
  H101     1.0000 0.28260  0.25000  0.15810  Biso   1.000  H
  H102     1.0000 0.71740  0.25000  0.34190  Biso   1.000  H
  H103     1.0000 0.78260  0.75000  0.15810  Biso   1.000  H
  H104     1.0000 0.21740  0.75000  0.34190  Biso   1.000  H
  C81      1.0000 0.49799  0.84380  0.63320  Biso   1.000  C
  C82      1.0000 0.50201  0.84380  0.86680  Biso   1.000  C
  C83      1.0000 0.99799  0.34380  0.63320  Biso   1.000  C
  C84      1.0000 0.00201  0.34380  0.86680  Biso   1.000  C
  C85      1.0000 0.50201  0.15620  0.36680  Biso   1.000  C
  C86      1.0000 0.49799  0.15620  0.13320  Biso   1.000  C
  C87      1.0000 0.00201  0.65620  0.36680  Biso   1.000  C
  C88      1.0000 0.99799  0.65620  0.13320  Biso   1.000  C
