data_image0
_cell_length_a       9.0724
_cell_length_b       9.1553
_cell_length_c       27.683
_cell_angle_alpha    90
_cell_angle_beta     98.481
_cell_angle_gamma    90

_symmetry_space_group_name_H-M    "P 1"
_symmetry_int_tables_number       1

loop_
  _symmetry_equiv_pos_as_xyz
  'x, y, z'

loop_
  _atom_site_label
  _atom_site_occupancy
  _atom_site_fract_x
  _atom_site_fract_y
  _atom_site_fract_z
  _atom_site_thermal_displace_type
  _atom_site_B_iso_or_equiv
  _atom_site_type_symbol
  Cu1      1.0000 0.90167  0.54910  0.13080  Biso   1.000  Cu
  Cu2      1.0000 0.09833  0.04910  0.36920  Biso   1.000  Cu
  Cu3      1.0000 0.09833  0.45090  0.86920  Biso   1.000  Cu
  Cu4      1.0000 0.90167  0.95090  0.63080  Biso   1.000  Cu
  Cu5      1.0000 0.50817  0.22983  0.28262  Biso   1.000  Cu
  Cu6      1.0000 0.49183  0.72983  0.21738  Biso   1.000  Cu
  Cu7      1.0000 0.49183  0.77017  0.71738  Biso   1.000  Cu
  Cu8      1.0000 0.50817  0.27017  0.78262  Biso   1.000  Cu
  C1       1.0000 0.31510  0.05090  0.82760  Biso   1.000  C
  C2       1.0000 0.68490  0.55090  0.67240  Biso   1.000  C
  C3       1.0000 0.68490  0.94910  0.17240  Biso   1.000  C
  C4       1.0000 0.31510  0.44910  0.32760  Biso   1.000  C
  H1       1.0000 0.29090  0.03010  0.79450  Biso   1.000  H
  H2       1.0000 0.70910  0.53010  0.70550  Biso   1.000  H
  H3       1.0000 0.70910  0.96990  0.20550  Biso   1.000  H
  H4       1.0000 0.29090  0.46990  0.29450  Biso   1.000  H
  C5       1.0000 0.23980  0.97910  0.85920  Biso   1.000  C
  C6       1.0000 0.76020  0.47910  0.64080  Biso   1.000  C
  C7       1.0000 0.76020  0.02090  0.14080  Biso   1.000  C
  C8       1.0000 0.23980  0.52090  0.35920  Biso   1.000  C
  H5       1.0000 0.16600  0.91210  0.84760  Biso   1.000  H
  H6       1.0000 0.83400  0.41210  0.65240  Biso   1.000  H
  H7       1.0000 0.83400  0.08790  0.15240  Biso   1.000  H
  H8       1.0000 0.16600  0.58790  0.34760  Biso   1.000  H
  C9       1.0000 0.27380  0.00630  0.90850  Biso   1.000  C
  C10      1.0000 0.72620  0.50630  0.59150  Biso   1.000  C
  C11      1.0000 0.72620  0.99370  0.09150  Biso   1.000  C
  C12      1.0000 0.27380  0.49370  0.40850  Biso   1.000  C
  C13      1.0000 0.38060  0.11130  0.92330  Biso   1.000  C
  C14      1.0000 0.61940  0.61130  0.57670  Biso   1.000  C
  C15      1.0000 0.61940  0.88870  0.07670  Biso   1.000  C
  C16      1.0000 0.38060  0.38870  0.42330  Biso   1.000  C
  H9       1.0000 0.40530  0.13450  0.95620  Biso   1.000  H
  H10      1.0000 0.59470  0.63450  0.54380  Biso   1.000  H
  H11      1.0000 0.59470  0.86550  0.04380  Biso   1.000  H
  H12      1.0000 0.40530  0.36550  0.45620  Biso   1.000  H
  C17      1.0000 0.45060  0.18160  0.88845  Biso   1.000  C
  C18      1.0000 0.54940  0.68160  0.61155  Biso   1.000  C
  C19      1.0000 0.54940  0.81840  0.11155  Biso   1.000  C
  C20      1.0000 0.45060  0.31840  0.38845  Biso   1.000  C
  H13      1.0000 0.52020  0.25390  0.89870  Biso   1.000  H
  H14      1.0000 0.47980  0.75390  0.60130  Biso   1.000  H
  H15      1.0000 0.47980  0.74610  0.10130  Biso   1.000  H
  H16      1.0000 0.52020  0.24610  0.39870  Biso   1.000  H
  C21      1.0000 0.19430  0.92320  0.94270  Biso   1.000  C
  C22      1.0000 0.80570  0.42320  0.55730  Biso   1.000  C
  C23      1.0000 0.80570  0.07680  0.05730  Biso   1.000  C
  C24      1.0000 0.19430  0.57680  0.44270  Biso   1.000  C
  H17      1.0000 0.12490  0.85450  0.92910  Biso   1.000  H
  H18      1.0000 0.87510  0.35450  0.57090  Biso   1.000  H
  H19      1.0000 0.87510  0.14550  0.07090  Biso   1.000  H
  H20      1.0000 0.12490  0.64550  0.42910  Biso   1.000  H
  C25      1.0000 0.21260  0.93720  0.99070  Biso   1.000  C
  C26      1.0000 0.78740  0.43720  0.50930  Biso   1.000  C
  C27      1.0000 0.78740  0.06280  0.00930  Biso   1.000  C
  C28      1.0000 0.21260  0.56280  0.49070  Biso   1.000  C
  H21      1.0000 0.28190  0.00540  0.00470  Biso   1.000  H
  H22      1.0000 0.71810  0.50540  0.49530  Biso   1.000  H
  H23      1.0000 0.71810  0.99460  0.99530  Biso   1.000  H
  H24      1.0000 0.28190  0.49460  0.50470  Biso   1.000  H
  C29      1.0000 0.13140  0.85280  0.02362  Biso   1.000  C
  C30      1.0000 0.86860  0.35280  0.47638  Biso   1.000  C
  C31      1.0000 0.86860  0.14720  0.97638  Biso   1.000  C
  C32      1.0000 0.13140  0.64720  0.52362  Biso   1.000  C
  C33      1.0000 0.03190  0.74110  0.00770  Biso   1.000  C
  C34      1.0000 0.96810  0.24110  0.49230  Biso   1.000  C
  C35      1.0000 0.96810  0.25890  0.99230  Biso   1.000  C
  C36      1.0000 0.03190  0.75890  0.50770  Biso   1.000  C
  H25      1.0000 0.01290  0.71590  0.97480  Biso   1.000  H
  H26      1.0000 0.98710  0.21590  0.52520  Biso   1.000  H
  H27      1.0000 0.98710  0.28410  0.02520  Biso   1.000  H
  H28      1.0000 0.01290  0.78410  0.47480  Biso   1.000  H
  C37      1.0000 0.96190  0.66810  0.04180  Biso   1.000  C
  C38      1.0000 0.03810  0.16810  0.45820  Biso   1.000  C
  C39      1.0000 0.03810  0.33190  0.95820  Biso   1.000  C
  C40      1.0000 0.96190  0.83190  0.54180  Biso   1.000  C
  H29      1.0000 0.89400  0.59520  0.03060  Biso   1.000  H
  H30      1.0000 0.10600  0.09520  0.46940  Biso   1.000  H
  H31      1.0000 0.10600  0.40480  0.96940  Biso   1.000  H
  H32      1.0000 0.89400  0.90480  0.53060  Biso   1.000  H
  C41      1.0000 0.08030  0.80300  0.10430  Biso   1.000  C
  C42      1.0000 0.91970  0.30300  0.39570  Biso   1.000  C
  C43      1.0000 0.91970  0.19700  0.89570  Biso   1.000  C
  C44      1.0000 0.08030  0.69700  0.60430  Biso   1.000  C
  H33      1.0000 0.09720  0.82630  0.13740  Biso   1.000  H
  H34      1.0000 0.90280  0.32630  0.36260  Biso   1.000  H
  H35      1.0000 0.90280  0.17370  0.86260  Biso   1.000  H
  H36      1.0000 0.09720  0.67370  0.63740  Biso   1.000  H
  C45      1.0000 0.15370  0.88030  0.07300  Biso   1.000  C
  C46      1.0000 0.84630  0.38030  0.42700  Biso   1.000  C
  C47      1.0000 0.84630  0.11970  0.92700  Biso   1.000  C
  C48      1.0000 0.15370  0.61970  0.57300  Biso   1.000  C
  H37      1.0000 0.22030  0.95300  0.08530  Biso   1.000  H
  H38      1.0000 0.77970  0.45300  0.41470  Biso   1.000  H
  H39      1.0000 0.77970  0.04700  0.91470  Biso   1.000  H
  H40      1.0000 0.22030  0.54700  0.58530  Biso   1.000  H
  C49      1.0000 0.65240  0.41770  0.11708  Biso   1.000  C
  C50      1.0000 0.34760  0.91770  0.38292  Biso   1.000  C
  C51      1.0000 0.34760  0.58230  0.88292  Biso   1.000  C
  C52      1.0000 0.65240  0.08230  0.61708  Biso   1.000  C
  C53      1.0000 0.51980  0.31820  0.12064  Biso   1.000  C
  C54      1.0000 0.48020  0.81820  0.37936  Biso   1.000  C
  C55      1.0000 0.48020  0.68180  0.87936  Biso   1.000  C
  C56      1.0000 0.51980  0.18180  0.62064  Biso   1.000  C
  H41      1.0000 0.54270  0.22390  0.10680  Biso   1.000  H
  H42      1.0000 0.45730  0.72390  0.39320  Biso   1.000  H
  H43      1.0000 0.45730  0.77610  0.89320  Biso   1.000  H
  H44      1.0000 0.54270  0.27610  0.60680  Biso   1.000  H
  C57      1.0000 0.36770  0.36600  0.09333  Biso   1.000  C
  C58      1.0000 0.63230  0.86600  0.40667  Biso   1.000  C
  C59      1.0000 0.63230  0.63400  0.90667  Biso   1.000  C
  C60      1.0000 0.36770  0.13400  0.59333  Biso   1.000  C
  H45      1.0000 0.35800  0.33970  0.05910  Biso   1.000  H
  H46      1.0000 0.64200  0.83970  0.44090  Biso   1.000  H
  H47      1.0000 0.64200  0.66030  0.94090  Biso   1.000  H
  H48      1.0000 0.35800  0.16030  0.55910  Biso   1.000  H
  H49      1.0000 0.35450  0.47070  0.09600  Biso   1.000  H
  H50      1.0000 0.64550  0.97070  0.40400  Biso   1.000  H
  H51      1.0000 0.64550  0.52930  0.90400  Biso   1.000  H
  H52      1.0000 0.35450  0.02930  0.59600  Biso   1.000  H
  C61      1.0000 0.25200  0.28170  0.11919  Biso   1.000  C
  C62      1.0000 0.74800  0.78170  0.38081  Biso   1.000  C
  C63      1.0000 0.74800  0.71830  0.88081  Biso   1.000  C
  C64      1.0000 0.25200  0.21830  0.61919  Biso   1.000  C
  H53      1.0000 0.20380  0.20730  0.09680  Biso   1.000  H
  H54      1.0000 0.79620  0.70730  0.40320  Biso   1.000  H
  H55      1.0000 0.79620  0.79270  0.90320  Biso   1.000  H
  H56      1.0000 0.20380  0.29270  0.59680  Biso   1.000  H
  C65      1.0000 0.34390  0.20430  0.16361  Biso   1.000  C
  C66      1.0000 0.65610  0.70430  0.33639  Biso   1.000  C
  C67      1.0000 0.65610  0.79570  0.83639  Biso   1.000  C
  C68      1.0000 0.34390  0.29570  0.66361  Biso   1.000  C
  H57      1.0000 0.37000  0.10930  0.15090  Biso   1.000  H
  H58      1.0000 0.63000  0.60930  0.34910  Biso   1.000  H
  H59      1.0000 0.63000  0.89070  0.84910  Biso   1.000  H
  H60      1.0000 0.37000  0.39070  0.65090  Biso   1.000  H
  C69      1.0000 0.49320  0.28810  0.17327  Biso   1.000  C
  C70      1.0000 0.50680  0.78810  0.32673  Biso   1.000  C
  C71      1.0000 0.50680  0.71190  0.82673  Biso   1.000  C
  C72      1.0000 0.49320  0.21190  0.67327  Biso   1.000  C
  H61      1.0000 0.57080  0.22170  0.18880  Biso   1.000  H
  H62      1.0000 0.42920  0.72170  0.31120  Biso   1.000  H
  H63      1.0000 0.42920  0.77830  0.81120  Biso   1.000  H
  H64      1.0000 0.57080  0.27830  0.68880  Biso   1.000  H
  C73      1.0000 0.13390  0.38300  0.13313  Biso   1.000  C
  C74      1.0000 0.86610  0.88300  0.36687  Biso   1.000  C
  C75      1.0000 0.86610  0.61700  0.86687  Biso   1.000  C
  C76      1.0000 0.13390  0.11700  0.63313  Biso   1.000  C
  C77      1.0000 0.25260  0.16720  0.20385  Biso   1.000  C
  C78      1.0000 0.74740  0.66720  0.29615  Biso   1.000  C
  C79      1.0000 0.74740  0.83280  0.79615  Biso   1.000  C
  C80      1.0000 0.25260  0.33280  0.70385  Biso   1.000  C
  C81      1.0000 0.49560  0.42610  0.20365  Biso   1.000  C
  C82      1.0000 0.50440  0.92610  0.29635  Biso   1.000  C
  C83      1.0000 0.50440  0.57390  0.79635  Biso   1.000  C
  C84      1.0000 0.49560  0.07390  0.70365  Biso   1.000  C
  O1       1.0000 0.88000  0.67580  0.18572  Biso   1.000  O
  O2       1.0000 0.12000  0.17580  0.31428  Biso   1.000  O
  O3       1.0000 0.12000  0.32420  0.81428  Biso   1.000  O
  O4       1.0000 0.88000  0.82420  0.68572  Biso   1.000  O
  O5       1.0000 0.76020  0.41150  0.15160  Biso   1.000  O
  O6       1.0000 0.23980  0.91150  0.34840  Biso   1.000  O
  O7       1.0000 0.23980  0.58850  0.84840  Biso   1.000  O
  O8       1.0000 0.76020  0.08850  0.65160  Biso   1.000  O
  O9       1.0000 0.65610  0.49470  0.08036  Biso   1.000  O
  O10      1.0000 0.34390  0.99470  0.41964  Biso   1.000  O
  O11      1.0000 0.34390  0.50530  0.91964  Biso   1.000  O
  O12      1.0000 0.65610  0.00530  0.58036  Biso   1.000  O
  O13      1.0000 0.01590  0.39530  0.10253  Biso   1.000  O
  O14      1.0000 0.98410  0.89530  0.39747  Biso   1.000  O
  O15      1.0000 0.98410  0.60470  0.89747  Biso   1.000  O
  O16      1.0000 0.01590  0.10470  0.60253  Biso   1.000  O
  O17      1.0000 0.15460  0.44990  0.17242  Biso   1.000  O
  O18      1.0000 0.84540  0.94990  0.32758  Biso   1.000  O
  O19      1.0000 0.84540  0.55010  0.82758  Biso   1.000  O
  O20      1.0000 0.15460  0.05010  0.67242  Biso   1.000  O
  O21      1.0000 0.12760  0.11330  0.18954  Biso   1.000  O
  O22      1.0000 0.87240  0.61330  0.31046  Biso   1.000  O
  O23      1.0000 0.87240  0.88670  0.81046  Biso   1.000  O
  O24      1.0000 0.12760  0.38670  0.68954  Biso   1.000  O
  O25      1.0000 0.30370  0.18570  0.24839  Biso   1.000  O
  O26      1.0000 0.69630  0.68570  0.25161  Biso   1.000  O
  O27      1.0000 0.69630  0.81430  0.75161  Biso   1.000  O
  O28      1.0000 0.30370  0.31430  0.74839  Biso   1.000  O
  O29      1.0000 0.51080  0.41550  0.24941  Biso   1.000  O
  O30      1.0000 0.48920  0.91550  0.25059  Biso   1.000  O
  O31      1.0000 0.48920  0.58450  0.75059  Biso   1.000  O
  O32      1.0000 0.51080  0.08450  0.74941  Biso   1.000  O
  O33      1.0000 0.48580  0.54720  0.18175  Biso   1.000  O
  O34      1.0000 0.51420  0.04720  0.31825  Biso   1.000  O
  O35      1.0000 0.51420  0.45280  0.81825  Biso   1.000  O
  O36      1.0000 0.48580  0.95280  0.68175  Biso   1.000  O
  O37      1.0000 0.72450  0.20080  0.28274  Biso   1.000  O
  O38      1.0000 0.27550  0.70080  0.21726  Biso   1.000  O
  O39      1.0000 0.27550  0.79920  0.71726  Biso   1.000  O
  O40      1.0000 0.72450  0.29920  0.78274  Biso   1.000  O
  O41      1.0000 0.94260  0.37830  0.26021  Biso   1.000  O
  O42      1.0000 0.05740  0.87830  0.23979  Biso   1.000  O
  O43      1.0000 0.05740  0.62170  0.73979  Biso   1.000  O
  O44      1.0000 0.94260  0.12170  0.76021  Biso   1.000  O
  H65      1.0000 0.91990  0.45250  0.27600  Biso   1.000  H
  H66      1.0000 0.08010  0.95250  0.22400  Biso   1.000  H
  H67      1.0000 0.08010  0.54750  0.72400  Biso   1.000  H
  H68      1.0000 0.91990  0.04750  0.77600  Biso   1.000  H
  H69      1.0000 0.03120  0.34980  0.26990  Biso   1.000  H
  H70      1.0000 0.96880  0.84980  0.23010  Biso   1.000  H
  H71      1.0000 0.96880  0.65020  0.73010  Biso   1.000  H
  H72      1.0000 0.03120  0.15020  0.76990  Biso   1.000  H
  O45      1.0000 0.55830  0.14890  0.48880  Biso   1.000  O
  O46      1.0000 0.44170  0.64890  0.01120  Biso   1.000  O
  O47      1.0000 0.44170  0.85110  0.51120  Biso   1.000  O
  O48      1.0000 0.55830  0.35110  0.98880  Biso   1.000  O
  N1       1.0000 0.42270  0.15030  0.84115  Biso   1.000  N
  N2       1.0000 0.57730  0.65030  0.65885  Biso   1.000  N
  N3       1.0000 0.57730  0.84970  0.15885  Biso   1.000  N
  N4       1.0000 0.42270  0.34970  0.34115  Biso   1.000  N
  N5       1.0000 0.98510  0.69520  0.08925  Biso   1.000  N
  N6       1.0000 0.01490  0.19520  0.41075  Biso   1.000  N
  N7       1.0000 0.01490  0.30480  0.91075  Biso   1.000  N
  N8       1.0000 0.98510  0.80480  0.58925  Biso   1.000  N
  H73      1.0000 0.82140  0.67910  0.20710  Biso   1.000  H
  H74      1.0000 0.17860  0.17910  0.29290  Biso   1.000  H
  H75      1.0000 0.17860  0.32090  0.79290  Biso   1.000  H
  H76      1.0000 0.82140  0.82090  0.70710  Biso   1.000  H
  H77      1.0000 0.93550  0.73930  0.20270  Biso   1.000  H
  H78      1.0000 0.06450  0.23930  0.29730  Biso   1.000  H
  H79      1.0000 0.06450  0.26070  0.79730  Biso   1.000  H
  H80      1.0000 0.93550  0.76070  0.70270  Biso   1.000  H
  H81      1.0000 0.76190  0.12140  0.29620  Biso   1.000  H
  H82      1.0000 0.23810  0.62140  0.20380  Biso   1.000  H
  H83      1.0000 0.23810  0.87860  0.70380  Biso   1.000  H
  H84      1.0000 0.76190  0.37860  0.79620  Biso   1.000  H
  H85      1.0000 0.79330  0.25490  0.27540  Biso   1.000  H
  H86      1.0000 0.20670  0.75490  0.22460  Biso   1.000  H
  H87      1.0000 0.20670  0.74510  0.72460  Biso   1.000  H
  H88      1.0000 0.79330  0.24510  0.77540  Biso   1.000  H
  H89      1.0000 0.49580  0.10100  0.46800  Biso   1.000  H
  H90      1.0000 0.50420  0.60100  0.03200  Biso   1.000  H
  H91      1.0000 0.50420  0.89900  0.53200  Biso   1.000  H
  H92      1.0000 0.49580  0.39900  0.96800  Biso   1.000  H
  H93      1.0000 0.58820  0.10420  0.51560  Biso   1.000  H
  H94      1.0000 0.41180  0.60420  0.98440  Biso   1.000  H
  H95      1.0000 0.41180  0.89580  0.48440  Biso   1.000  H
  H96      1.0000 0.58820  0.39580  0.01560  Biso   1.000  H
