data_image0
_cell_length_a       7.1529
_cell_length_b       13.5737
_cell_length_c       9.1813
_cell_angle_alpha    90
_cell_angle_beta     107.797
_cell_angle_gamma    90

_symmetry_space_group_name_H-M    "P 1"
_symmetry_int_tables_number       1

loop_
  _symmetry_equiv_pos_as_xyz
  'x, y, z'

loop_
  _atom_site_label
  _atom_site_occupancy
  _atom_site_fract_x
  _atom_site_fract_y
  _atom_site_fract_z
  _atom_site_thermal_displace_type
  _atom_site_B_iso_or_equiv
  _atom_site_type_symbol
  Cu1      1.0000 0.14571  0.06514  0.84633  Biso   1.000  Cu
  Cu2      1.0000 0.35429  0.56514  0.65367  Biso   1.000  Cu
  Cu3      1.0000 0.85429  0.93486  0.15367  Biso   1.000  Cu
  Cu4      1.0000 0.64571  0.43486  0.34633  Biso   1.000  Cu
  O1       1.0000 0.27060  0.93690  0.89610  Biso   1.000  O
  O2       1.0000 0.22940  0.43690  0.60390  Biso   1.000  O
  O3       1.0000 0.72940  0.06310  0.10390  Biso   1.000  O
  O4       1.0000 0.77060  0.56310  0.39610  Biso   1.000  O
  O5       1.0000 0.20510  0.77665  0.89140  Biso   1.000  O
  O6       1.0000 0.29490  0.27665  0.60860  Biso   1.000  O
  O7       1.0000 0.79490  0.22335  0.10860  Biso   1.000  O
  O8       1.0000 0.70510  0.72335  0.39140  Biso   1.000  O
  O9       1.0000 0.49890  0.68547  0.65870  Biso   1.000  O
  O10      1.0000 0.00110  0.18547  0.84130  Biso   1.000  O
  O11      1.0000 0.50110  0.31453  0.34130  Biso   1.000  O
  O12      1.0000 0.99890  0.81453  0.15870  Biso   1.000  O
  O13      1.0000 0.27260  0.80201  0.56400  Biso   1.000  O
  O14      1.0000 0.22740  0.30201  0.93600  Biso   1.000  O
  O15      1.0000 0.72740  0.19799  0.43600  Biso   1.000  O
  O16      1.0000 0.77260  0.69799  0.06400  Biso   1.000  O
  N1       1.0000 0.90250  0.98495  0.78690  Biso   1.000  N
  N2       1.0000 0.59750  0.48495  0.71310  Biso   1.000  N
  N3       1.0000 0.09750  0.01505  0.21310  Biso   1.000  N
  N4       1.0000 0.40250  0.51505  0.28690  Biso   1.000  N
  C1       1.0000 0.94180  0.88800  0.79630  Biso   1.000  C
  C2       1.0000 0.55820  0.38800  0.70370  Biso   1.000  C
  C3       1.0000 0.05820  0.11200  0.20370  Biso   1.000  C
  C4       1.0000 0.44180  0.61200  0.29630  Biso   1.000  C
  C5       1.0000 0.56380  0.94840  0.67710  Biso   1.000  C
  C6       1.0000 0.93620  0.44840  0.82290  Biso   1.000  C
  C7       1.0000 0.43620  0.05160  0.32290  Biso   1.000  C
  C8       1.0000 0.06380  0.55160  0.17710  Biso   1.000  C
  H1       1.0000 0.43530  0.97090  0.63810  Biso   1.000  H
  H2       1.0000 0.06470  0.47090  0.86190  Biso   1.000  H
  H3       1.0000 0.56470  0.02910  0.36190  Biso   1.000  H
  H4       1.0000 0.93530  0.52910  0.13810  Biso   1.000  H
  C9       1.0000 0.15430  0.86130  0.86610  Biso   1.000  C
  C10      1.0000 0.34570  0.36130  0.63390  Biso   1.000  C
  C11      1.0000 0.84570  0.13870  0.13390  Biso   1.000  C
  C12      1.0000 0.65430  0.63870  0.36610  Biso   1.000  C
  C13      1.0000 0.60400  0.84860  0.68420  Biso   1.000  C
  C14      1.0000 0.89600  0.34860  0.81580  Biso   1.000  C
  C15      1.0000 0.39600  0.15140  0.31580  Biso   1.000  C
  C16      1.0000 0.10400  0.65140  0.18420  Biso   1.000  C
  C17      1.0000 0.44200  0.77330  0.62960  Biso   1.000  C
  C18      1.0000 0.05800  0.27330  0.87040  Biso   1.000  C
  C19      1.0000 0.55800  0.22670  0.37040  Biso   1.000  C
  C20      1.0000 0.94200  0.72670  0.12960  Biso   1.000  C
  C21      1.0000 0.79730  0.81844  0.74510  Biso   1.000  C
  C22      1.0000 0.70270  0.31844  0.75490  Biso   1.000  C
  C23      1.0000 0.20270  0.18156  0.25490  Biso   1.000  C
  C24      1.0000 0.29730  0.68156  0.24510  Biso   1.000  C
  H5       1.0000 0.82890  0.75180  0.75110  Biso   1.000  H
  H6       1.0000 0.67110  0.25180  0.74890  Biso   1.000  H
  H7       1.0000 0.17110  0.24820  0.24890  Biso   1.000  H
  H8       1.0000 0.32890  0.74820  0.25110  Biso   1.000  H
  C25      1.0000 0.71630  0.01390  0.72840  Biso   1.000  C
  C26      1.0000 0.78370  0.51390  0.77160  Biso   1.000  C
  C27      1.0000 0.28370  0.98610  0.27160  Biso   1.000  C
  C28      1.0000 0.21630  0.48610  0.22840  Biso   1.000  C
  H9       1.0000 0.68860  0.08100  0.72220  Biso   1.000  H
  H10      1.0000 0.81140  0.58100  0.77780  Biso   1.000  H
  H11      1.0000 0.31140  0.91900  0.27780  Biso   1.000  H
  H12      1.0000 0.18860  0.41900  0.22220  Biso   1.000  H
  O17      1.0000 0.39580  0.13083  0.91080  Biso   1.000  O
  O18      1.0000 0.10420  0.63083  0.58920  Biso   1.000  O
  O19      1.0000 0.60420  0.86917  0.08920  Biso   1.000  O
  O20      1.0000 0.89580  0.36917  0.41080  Biso   1.000  O
  H13      1.0000 0.49410  0.10630  0.97950  Biso   1.000  H
  H14      1.0000 0.00590  0.60630  0.52050  Biso   1.000  H
  H15      1.0000 0.50590  0.89370  0.02050  Biso   1.000  H
  H16      1.0000 0.99410  0.39370  0.47950  Biso   1.000  H
  H17      1.0000 0.35710  0.18610  0.93140  Biso   1.000  H
  H18      1.0000 0.14290  0.68610  0.56860  Biso   1.000  H
  H19      1.0000 0.64290  0.81390  0.06860  Biso   1.000  H
  H20      1.0000 0.85710  0.31390  0.43140  Biso   1.000  H
  O21      1.0000 0.12040  0.08865  0.58800  Biso   1.000  O
  O22      1.0000 0.37960  0.58865  0.91200  Biso   1.000  O
  O23      1.0000 0.87960  0.91135  0.41200  Biso   1.000  O
  O24      1.0000 0.62040  0.41135  0.08800  Biso   1.000  O
  H21      1.0000 0.17680  0.14250  0.58990  Biso   1.000  H
  H22      1.0000 0.32320  0.64250  0.91010  Biso   1.000  H
  H23      1.0000 0.82320  0.85750  0.41010  Biso   1.000  H
  H24      1.0000 0.67680  0.35750  0.08990  Biso   1.000  H
  H25      1.0000 0.00040  0.09440  0.54590  Biso   1.000  H
  H26      1.0000 0.49960  0.59440  0.95410  Biso   1.000  H
  H27      1.0000 0.99960  0.90560  0.45410  Biso   1.000  H
  H28      1.0000 0.50040  0.40560  0.04590  Biso   1.000  H
