data_image0
_cell_length_a       7.142
_cell_length_b       13.626
_cell_length_c       9.143
_cell_angle_alpha    90
_cell_angle_beta     107.436
_cell_angle_gamma    90

_symmetry_space_group_name_H-M    "P 1"
_symmetry_int_tables_number       1

loop_
  _symmetry_equiv_pos_as_xyz
  'x, y, z'

loop_
  _atom_site_label
  _atom_site_occupancy
  _atom_site_fract_x
  _atom_site_fract_y
  _atom_site_fract_z
  _atom_site_thermal_displace_type
  _atom_site_B_iso_or_equiv
  _atom_site_type_symbol
  Cu1      1.0000 0.14668  0.93490  0.34578  Biso   1.000  Cu
  Cu2      1.0000 0.35332  0.43490  0.15422  Biso   1.000  Cu
  Cu3      1.0000 0.85332  0.06510  0.65422  Biso   1.000  Cu
  Cu4      1.0000 0.64668  0.56510  0.84578  Biso   1.000  Cu
  O1       1.0000 0.27280  0.06280  0.39460  Biso   1.000  O
  O2       1.0000 0.22720  0.56280  0.10540  Biso   1.000  O
  O3       1.0000 0.72720  0.93720  0.60540  Biso   1.000  O
  O4       1.0000 0.77280  0.43720  0.89460  Biso   1.000  O
  O5       1.0000 0.20500  0.22360  0.39390  Biso   1.000  O
  O6       1.0000 0.29500  0.72360  0.10610  Biso   1.000  O
  O7       1.0000 0.79500  0.77640  0.60610  Biso   1.000  O
  O8       1.0000 0.70500  0.27640  0.89390  Biso   1.000  O
  O9       1.0000 0.49630  0.31400  0.15790  Biso   1.000  O
  O10      1.0000 0.00370  0.81400  0.34210  Biso   1.000  O
  O11      1.0000 0.50370  0.68600  0.84210  Biso   1.000  O
  O12      1.0000 0.99630  0.18600  0.65790  Biso   1.000  O
  O13      1.0000 0.27100  0.19790  0.06590  Biso   1.000  O
  O14      1.0000 0.22900  0.69790  0.43410  Biso   1.000  O
  O15      1.0000 0.72900  0.80210  0.93410  Biso   1.000  O
  O16      1.0000 0.77100  0.30210  0.56590  Biso   1.000  O
  O17      1.0000 0.39680  0.86840  0.40920  Biso   1.000  O
  O18      1.0000 0.10320  0.36840  0.09080  Biso   1.000  O
  O19      1.0000 0.60320  0.13160  0.59080  Biso   1.000  O
  O20      1.0000 0.89680  0.63160  0.90920  Biso   1.000  O
  H1       1.0000 0.40260  0.79810  0.40370  Biso   1.000  H
  H2       1.0000 0.09740  0.29810  0.09630  Biso   1.000  H
  H3       1.0000 0.59740  0.20190  0.59630  Biso   1.000  H
  H4       1.0000 0.90260  0.70190  0.90370  Biso   1.000  H
  H5       1.0000 0.51560  0.90580  0.44600  Biso   1.000  H
  H6       1.0000 0.98440  0.40580  0.05400  Biso   1.000  H
  H7       1.0000 0.48440  0.09420  0.55400  Biso   1.000  H
  H8       1.0000 0.01560  0.59420  0.94600  Biso   1.000  H
  O21      1.0000 0.11970  0.91050  0.08730  Biso   1.000  O
  O22      1.0000 0.38030  0.41050  0.41270  Biso   1.000  O
  O23      1.0000 0.88030  0.08950  0.91270  Biso   1.000  O
  O24      1.0000 0.61970  0.58950  0.58730  Biso   1.000  O
  H9       1.0000 0.06180  0.85130  0.03670  Biso   1.000  H
  H10      1.0000 0.43820  0.35130  0.46330  Biso   1.000  H
  H11      1.0000 0.93820  0.14870  0.96330  Biso   1.000  H
  H12      1.0000 0.56180  0.64870  0.53670  Biso   1.000  H
  H13      1.0000 0.16700  0.95970  0.03190  Biso   1.000  H
  H14      1.0000 0.33300  0.45970  0.46810  Biso   1.000  H
  H15      1.0000 0.83300  0.04030  0.96810  Biso   1.000  H
  H16      1.0000 0.66700  0.54030  0.53190  Biso   1.000  H
  N1       1.0000 0.90420  0.01550  0.28810  Biso   1.000  N
  N2       1.0000 0.59580  0.51550  0.21190  Biso   1.000  N
  N3       1.0000 0.09580  0.98450  0.71190  Biso   1.000  N
  N4       1.0000 0.40420  0.48450  0.78810  Biso   1.000  N
  C1       1.0000 0.15440  0.13930  0.36550  Biso   1.000  C
  C2       1.0000 0.34560  0.63930  0.13450  Biso   1.000  C
  C3       1.0000 0.84560  0.86070  0.63450  Biso   1.000  C
  C4       1.0000 0.65440  0.36070  0.86550  Biso   1.000  C
  C5       1.0000 0.94150  0.11280  0.29620  Biso   1.000  C
  C6       1.0000 0.55850  0.61280  0.20380  Biso   1.000  C
  C7       1.0000 0.05850  0.88720  0.70380  Biso   1.000  C
  C8       1.0000 0.44150  0.38720  0.79620  Biso   1.000  C
  C9       1.0000 0.79670  0.18380  0.24550  Biso   1.000  C
  C10      1.0000 0.70330  0.68380  0.25450  Biso   1.000  C
  C11      1.0000 0.20330  0.81620  0.75450  Biso   1.000  C
  C12      1.0000 0.29670  0.31620  0.74550  Biso   1.000  C
  H17      1.0000 0.83220  0.25200  0.25300  Biso   1.000  H
  H18      1.0000 0.66780  0.75200  0.24700  Biso   1.000  H
  H19      1.0000 0.16780  0.74800  0.74700  Biso   1.000  H
  H20      1.0000 0.33220  0.24800  0.75300  Biso   1.000  H
  C13      1.0000 0.60140  0.15110  0.18310  Biso   1.000  C
  C14      1.0000 0.89860  0.65110  0.31690  Biso   1.000  C
  C15      1.0000 0.39860  0.84890  0.81690  Biso   1.000  C
  C16      1.0000 0.10140  0.34890  0.68310  Biso   1.000  C
  C17      1.0000 0.56110  0.05100  0.17810  Biso   1.000  C
  C18      1.0000 0.93890  0.55100  0.32190  Biso   1.000  C
  C19      1.0000 0.43890  0.94900  0.82190  Biso   1.000  C
  C20      1.0000 0.06110  0.44900  0.67810  Biso   1.000  C
  H21      1.0000 0.42750  0.02910  0.14040  Biso   1.000  H
  H22      1.0000 0.07250  0.52910  0.35960  Biso   1.000  H
  H23      1.0000 0.57250  0.97090  0.85960  Biso   1.000  H
  H24      1.0000 0.92750  0.47090  0.64040  Biso   1.000  H
  C21      1.0000 0.71660  0.98610  0.22820  Biso   1.000  C
  C22      1.0000 0.78340  0.48610  0.27180  Biso   1.000  C
  C23      1.0000 0.28340  0.01390  0.77180  Biso   1.000  C
  C24      1.0000 0.21660  0.51390  0.72820  Biso   1.000  C
  H25      1.0000 0.68550  0.91740  0.21950  Biso   1.000  H
  H26      1.0000 0.81450  0.41740  0.28050  Biso   1.000  H
  H27      1.0000 0.31450  0.08260  0.78050  Biso   1.000  H
  H28      1.0000 0.18550  0.58260  0.71950  Biso   1.000  H
  C25      1.0000 0.44030  0.22590  0.13060  Biso   1.000  C
  C26      1.0000 0.05970  0.72590  0.36940  Biso   1.000  C
  C27      1.0000 0.55970  0.77410  0.86940  Biso   1.000  C
  C28      1.0000 0.94030  0.27410  0.63060  Biso   1.000  C
