data_image0
_cell_length_a       11.989
_cell_length_b       19.699
_cell_length_c       13.297
_cell_angle_alpha    90
_cell_angle_beta     91.175
_cell_angle_gamma    90

_symmetry_space_group_name_H-M    "P 1"
_symmetry_int_tables_number       1

loop_
  _symmetry_equiv_pos_as_xyz
  'x, y, z'

loop_
  _atom_site_label
  _atom_site_occupancy
  _atom_site_fract_x
  _atom_site_fract_y
  _atom_site_fract_z
  _atom_site_thermal_displace_type
  _atom_site_B_iso_or_equiv
  _atom_site_type_symbol
  Cu1      1.0000 0.72678  0.32492  0.01942  Biso   1.000  Cu
  Cu2      1.0000 0.22678  0.82492  0.01942  Biso   1.000  Cu
  Cu3      1.0000 0.27322  0.32492  0.48058  Biso   1.000  Cu
  Cu4      1.0000 0.77322  0.82492  0.48058  Biso   1.000  Cu
  Cu5      1.0000 0.27322  0.67508  0.98058  Biso   1.000  Cu
  Cu6      1.0000 0.77322  0.17508  0.98058  Biso   1.000  Cu
  Cu7      1.0000 0.72678  0.67508  0.51942  Biso   1.000  Cu
  Cu8      1.0000 0.22678  0.17508  0.51942  Biso   1.000  Cu
  Cl1      1.0000 0.50000  0.08010  0.25000  Biso   1.000  Cl
  Cl2      1.0000 0.00000  0.58010  0.25000  Biso   1.000  Cl
  Cl3      1.0000 0.50000  0.91990  0.75000  Biso   1.000  Cl
  Cl4      1.0000 0.00000  0.41990  0.75000  Biso   1.000  Cl
  Cl5      1.0000 0.50000  0.51540  0.25000  Biso   1.000  Cl
  Cl6      1.0000 0.00000  0.01540  0.25000  Biso   1.000  Cl
  Cl7      1.0000 0.50000  0.48460  0.75000  Biso   1.000  Cl
  Cl8      1.0000 0.00000  0.98460  0.75000  Biso   1.000  Cl
  N1       1.0000 0.73160  0.38410  0.13910  Biso   1.000  N
  N2       1.0000 0.23160  0.88410  0.13910  Biso   1.000  N
  N3       1.0000 0.26840  0.38410  0.36090  Biso   1.000  N
  N4       1.0000 0.76840  0.88410  0.36090  Biso   1.000  N
  N5       1.0000 0.26840  0.61590  0.86090  Biso   1.000  N
  N6       1.0000 0.76840  0.11590  0.86090  Biso   1.000  N
  N7       1.0000 0.73160  0.61590  0.63910  Biso   1.000  N
  N8       1.0000 0.23160  0.11590  0.63910  Biso   1.000  N
  H1       1.0000 0.65800  0.39540  0.13930  Biso   1.000  H
  H2       1.0000 0.15800  0.89540  0.13930  Biso   1.000  H
  H3       1.0000 0.34200  0.39540  0.36070  Biso   1.000  H
  H4       1.0000 0.84200  0.89540  0.36070  Biso   1.000  H
  H5       1.0000 0.34200  0.60460  0.86070  Biso   1.000  H
  H6       1.0000 0.84200  0.10460  0.86070  Biso   1.000  H
  H7       1.0000 0.65800  0.60460  0.63930  Biso   1.000  H
  H8       1.0000 0.15800  0.10460  0.63930  Biso   1.000  H
  N9       1.0000 0.73570  0.40380  0.92580  Biso   1.000  N
  N10      1.0000 0.23570  0.90380  0.92580  Biso   1.000  N
  N11      1.0000 0.26430  0.40380  0.57420  Biso   1.000  N
  N12      1.0000 0.76430  0.90380  0.57420  Biso   1.000  N
  N13      1.0000 0.26430  0.59620  0.07420  Biso   1.000  N
  N14      1.0000 0.76430  0.09620  0.07420  Biso   1.000  N
  N15      1.0000 0.73570  0.59620  0.42580  Biso   1.000  N
  N16      1.0000 0.23570  0.09620  0.42580  Biso   1.000  N
  H9       1.0000 0.77040  0.38980  0.87010  Biso   1.000  H
  H10      1.0000 0.27040  0.88980  0.87010  Biso   1.000  H
  H11      1.0000 0.22960  0.38980  0.62990  Biso   1.000  H
  H12      1.0000 0.72960  0.88980  0.62990  Biso   1.000  H
  H13      1.0000 0.22960  0.61020  0.12990  Biso   1.000  H
  H14      1.0000 0.72960  0.11020  0.12990  Biso   1.000  H
  H15      1.0000 0.77040  0.61020  0.37010  Biso   1.000  H
  H16      1.0000 0.27040  0.11020  0.37010  Biso   1.000  H
  H17      1.0000 0.66560  0.41530  0.90710  Biso   1.000  H
  H18      1.0000 0.16560  0.91530  0.90710  Biso   1.000  H
  H19      1.0000 0.33440  0.41530  0.59290  Biso   1.000  H
  H20      1.0000 0.83440  0.91530  0.59290  Biso   1.000  H
  H21      1.0000 0.33440  0.58470  0.09290  Biso   1.000  H
  H22      1.0000 0.83440  0.08470  0.09290  Biso   1.000  H
  H23      1.0000 0.66560  0.58470  0.40710  Biso   1.000  H
  H24      1.0000 0.16560  0.08470  0.40710  Biso   1.000  H
  N17      1.0000 0.52740  0.31180  0.02960  Biso   1.000  N
  N18      1.0000 0.02740  0.81180  0.02960  Biso   1.000  N
  N19      1.0000 0.47260  0.31180  0.47040  Biso   1.000  N
  N20      1.0000 0.97260  0.81180  0.47040  Biso   1.000  N
  N21      1.0000 0.47260  0.68820  0.97040  Biso   1.000  N
  N22      1.0000 0.97260  0.18820  0.97040  Biso   1.000  N
  N23      1.0000 0.52740  0.68820  0.52960  Biso   1.000  N
  N24      1.0000 0.02740  0.18820  0.52960  Biso   1.000  N
  O1       1.0000 0.39630  0.10980  0.24020  Biso   1.000  O
  O2       1.0000 0.89630  0.60980  0.24020  Biso   1.000  O
  O3       1.0000 0.60370  0.10980  0.25980  Biso   1.000  O
  O4       1.0000 0.10370  0.60980  0.25980  Biso   1.000  O
  O5       1.0000 0.60370  0.89020  0.75980  Biso   1.000  O
  O6       1.0000 0.10370  0.39020  0.75980  Biso   1.000  O
  O7       1.0000 0.39630  0.89020  0.74020  Biso   1.000  O
  O8       1.0000 0.89630  0.39020  0.74020  Biso   1.000  O
  O9       1.0000 0.50530  0.07700  0.36580  Biso   1.000  O
  O10      1.0000 0.00530  0.57700  0.36580  Biso   1.000  O
  O11      1.0000 0.49470  0.07700  0.13420  Biso   1.000  O
  O12      1.0000 0.99470  0.57700  0.13420  Biso   1.000  O
  O13      1.0000 0.49470  0.92300  0.63420  Biso   1.000  O
  O14      1.0000 0.99470  0.42300  0.63420  Biso   1.000  O
  O15      1.0000 0.50530  0.92300  0.86580  Biso   1.000  O
  O16      1.0000 0.00530  0.42300  0.86580  Biso   1.000  O
  O17      1.0000 0.50600  0.01530  0.21720  Biso   1.000  O
  O18      1.0000 0.00600  0.51530  0.21720  Biso   1.000  O
  O19      1.0000 0.49400  0.01530  0.28280  Biso   1.000  O
  O20      1.0000 0.99400  0.51530  0.28280  Biso   1.000  O
  O21      1.0000 0.49400  0.98470  0.78280  Biso   1.000  O
  O22      1.0000 0.99400  0.48470  0.78280  Biso   1.000  O
  O23      1.0000 0.50600  0.98470  0.71720  Biso   1.000  O
  O24      1.0000 0.00600  0.48470  0.71720  Biso   1.000  O
  O25      1.0000 0.58990  0.55770  0.23740  Biso   1.000  O
  O26      1.0000 0.08990  0.05770  0.23740  Biso   1.000  O
  O27      1.0000 0.41010  0.55770  0.26260  Biso   1.000  O
  O28      1.0000 0.91010  0.05770  0.26260  Biso   1.000  O
  O29      1.0000 0.41010  0.44230  0.76260  Biso   1.000  O
  O30      1.0000 0.91010  0.94230  0.76260  Biso   1.000  O
  O31      1.0000 0.58990  0.44230  0.73740  Biso   1.000  O
  O32      1.0000 0.08990  0.94230  0.73740  Biso   1.000  O
  O33      1.0000 0.48050  0.47860  0.16590  Biso   1.000  O
  O34      1.0000 0.98050  0.97860  0.16590  Biso   1.000  O
  O35      1.0000 0.51950  0.47860  0.33410  Biso   1.000  O
  O36      1.0000 0.01950  0.97860  0.33410  Biso   1.000  O
  O37      1.0000 0.51950  0.52140  0.83410  Biso   1.000  O
  O38      1.0000 0.01950  0.02140  0.83410  Biso   1.000  O
  O39      1.0000 0.48050  0.52140  0.66590  Biso   1.000  O
  O40      1.0000 0.98050  0.02140  0.66590  Biso   1.000  O
  O41      1.0000 0.76770  0.24220  0.08760  Biso   1.000  O
  O42      1.0000 0.26770  0.74220  0.08760  Biso   1.000  O
  O43      1.0000 0.23230  0.24220  0.41240  Biso   1.000  O
  O44      1.0000 0.73230  0.74220  0.41240  Biso   1.000  O
  O45      1.0000 0.23230  0.75780  0.91240  Biso   1.000  O
  O46      1.0000 0.73230  0.25780  0.91240  Biso   1.000  O
  O47      1.0000 0.76770  0.75780  0.58760  Biso   1.000  O
  O48      1.0000 0.26770  0.25780  0.58760  Biso   1.000  O
  C1       1.0000 0.80700  0.23290  0.18670  Biso   1.000  C
  C2       1.0000 0.30700  0.73290  0.18670  Biso   1.000  C
  C3       1.0000 0.19300  0.23290  0.31330  Biso   1.000  C
  C4       1.0000 0.69300  0.73290  0.31330  Biso   1.000  C
  C5       1.0000 0.19300  0.76710  0.81330  Biso   1.000  C
  C6       1.0000 0.69300  0.26710  0.81330  Biso   1.000  C
  C7       1.0000 0.80700  0.76710  0.68670  Biso   1.000  C
  C8       1.0000 0.30700  0.26710  0.68670  Biso   1.000  C
  H25      1.0000 0.87440  0.20560  0.18590  Biso   1.000  H
  H26      1.0000 0.37440  0.70560  0.18590  Biso   1.000  H
  H27      1.0000 0.12560  0.20560  0.31410  Biso   1.000  H
  H28      1.0000 0.62560  0.70560  0.31410  Biso   1.000  H
  H29      1.0000 0.12560  0.79440  0.81410  Biso   1.000  H
  H30      1.0000 0.62560  0.29440  0.81410  Biso   1.000  H
  H31      1.0000 0.87440  0.79440  0.68590  Biso   1.000  H
  H32      1.0000 0.37440  0.29440  0.68590  Biso   1.000  H
  H33      1.0000 0.75160  0.20810  0.22400  Biso   1.000  H
  H34      1.0000 0.25160  0.70810  0.22400  Biso   1.000  H
  H35      1.0000 0.24840  0.20810  0.27600  Biso   1.000  H
  H36      1.0000 0.74840  0.70810  0.27600  Biso   1.000  H
  H37      1.0000 0.24840  0.79190  0.77600  Biso   1.000  H
  H38      1.0000 0.74840  0.29190  0.77600  Biso   1.000  H
  H39      1.0000 0.75160  0.79190  0.72400  Biso   1.000  H
  H40      1.0000 0.25160  0.29190  0.72400  Biso   1.000  H
  C9       1.0000 0.83190  0.29900  0.23970  Biso   1.000  C
  C10      1.0000 0.33190  0.79900  0.23970  Biso   1.000  C
  C11      1.0000 0.16810  0.29900  0.26030  Biso   1.000  C
  C12      1.0000 0.66810  0.79900  0.26030  Biso   1.000  C
  C13      1.0000 0.16810  0.70100  0.76030  Biso   1.000  C
  C14      1.0000 0.66810  0.20100  0.76030  Biso   1.000  C
  C15      1.0000 0.83190  0.70100  0.73970  Biso   1.000  C
  C16      1.0000 0.33190  0.20100  0.73970  Biso   1.000  C
  H41      1.0000 0.85350  0.28960  0.30900  Biso   1.000  H
  H42      1.0000 0.35350  0.78960  0.30900  Biso   1.000  H
  H43      1.0000 0.14650  0.28960  0.19100  Biso   1.000  H
  H44      1.0000 0.64650  0.78960  0.19100  Biso   1.000  H
  H45      1.0000 0.14650  0.71040  0.69100  Biso   1.000  H
  H46      1.0000 0.64650  0.21040  0.69100  Biso   1.000  H
  H47      1.0000 0.85350  0.71040  0.80900  Biso   1.000  H
  H48      1.0000 0.35350  0.21040  0.80900  Biso   1.000  H
  H49      1.0000 0.89450  0.32080  0.20780  Biso   1.000  H
  H50      1.0000 0.39450  0.82080  0.20780  Biso   1.000  H
  H51      1.0000 0.10550  0.32080  0.29220  Biso   1.000  H
  H52      1.0000 0.60550  0.82080  0.29220  Biso   1.000  H
  H53      1.0000 0.10550  0.67920  0.79220  Biso   1.000  H
  H54      1.0000 0.60550  0.17920  0.79220  Biso   1.000  H
  H55      1.0000 0.89450  0.67920  0.70780  Biso   1.000  H
  H56      1.0000 0.39450  0.17920  0.70780  Biso   1.000  H
  C17      1.0000 0.73590  0.34600  0.23810  Biso   1.000  C
  C18      1.0000 0.23590  0.84600  0.23810  Biso   1.000  C
  C19      1.0000 0.26410  0.34600  0.26190  Biso   1.000  C
  C20      1.0000 0.76410  0.84600  0.26190  Biso   1.000  C
  C21      1.0000 0.26410  0.65400  0.76190  Biso   1.000  C
  C22      1.0000 0.76410  0.15400  0.76190  Biso   1.000  C
  C23      1.0000 0.73590  0.65400  0.73810  Biso   1.000  C
  C24      1.0000 0.23590  0.15400  0.73810  Biso   1.000  C
  H57      1.0000 0.74320  0.37790  0.29340  Biso   1.000  H
  H58      1.0000 0.24320  0.87790  0.29340  Biso   1.000  H
  H59      1.0000 0.25680  0.37790  0.20660  Biso   1.000  H
  H60      1.0000 0.75680  0.87790  0.20660  Biso   1.000  H
  H61      1.0000 0.25680  0.62210  0.70660  Biso   1.000  H
  H62      1.0000 0.75680  0.12210  0.70660  Biso   1.000  H
  H63      1.0000 0.74320  0.62210  0.79340  Biso   1.000  H
  H64      1.0000 0.24320  0.12210  0.79340  Biso   1.000  H
  H65      1.0000 0.66730  0.32060  0.24620  Biso   1.000  H
  H66      1.0000 0.16730  0.82060  0.24620  Biso   1.000  H
  H67      1.0000 0.33270  0.32060  0.25380  Biso   1.000  H
  H68      1.0000 0.83270  0.82060  0.25380  Biso   1.000  H
  H69      1.0000 0.33270  0.67940  0.75380  Biso   1.000  H
  H70      1.0000 0.83270  0.17940  0.75380  Biso   1.000  H
  H71      1.0000 0.66730  0.67940  0.74620  Biso   1.000  H
  H72      1.0000 0.16730  0.17940  0.74620  Biso   1.000  H
  C25      1.0000 0.77400  0.44870  0.14930  Biso   1.000  C
  C26      1.0000 0.27400  0.94870  0.14930  Biso   1.000  C
  C27      1.0000 0.22600  0.44870  0.35070  Biso   1.000  C
  C28      1.0000 0.72600  0.94870  0.35070  Biso   1.000  C
  C29      1.0000 0.22600  0.55130  0.85070  Biso   1.000  C
  C30      1.0000 0.72600  0.05130  0.85070  Biso   1.000  C
  C31      1.0000 0.77400  0.55130  0.64930  Biso   1.000  C
  C32      1.0000 0.27400  0.05130  0.64930  Biso   1.000  C
  H73      1.0000 0.85410  0.44520  0.16280  Biso   1.000  H
  H74      1.0000 0.35410  0.94520  0.16280  Biso   1.000  H
  H75      1.0000 0.14590  0.44520  0.33720  Biso   1.000  H
  H76      1.0000 0.64590  0.94520  0.33720  Biso   1.000  H
  H77      1.0000 0.14590  0.55480  0.83720  Biso   1.000  H
  H78      1.0000 0.64590  0.05480  0.83720  Biso   1.000  H
  H79      1.0000 0.85410  0.55480  0.66280  Biso   1.000  H
  H80      1.0000 0.35410  0.05480  0.66280  Biso   1.000  H
  H81      1.0000 0.74140  0.46980  0.20740  Biso   1.000  H
  H82      1.0000 0.24140  0.96980  0.20740  Biso   1.000  H
  H83      1.0000 0.25860  0.46980  0.29260  Biso   1.000  H
  H84      1.0000 0.75860  0.96980  0.29260  Biso   1.000  H
  H85      1.0000 0.25860  0.53020  0.79260  Biso   1.000  H
  H86      1.0000 0.75860  0.03020  0.79260  Biso   1.000  H
  H87      1.0000 0.74140  0.53020  0.70740  Biso   1.000  H
  H88      1.0000 0.24140  0.03020  0.70740  Biso   1.000  H
  C33      1.0000 0.75600  0.49400  0.06110  Biso   1.000  C
  C34      1.0000 0.25600  0.99400  0.06110  Biso   1.000  C
  C35      1.0000 0.24400  0.49400  0.43890  Biso   1.000  C
  C36      1.0000 0.74400  0.99400  0.43890  Biso   1.000  C
  C37      1.0000 0.24400  0.50600  0.93890  Biso   1.000  C
  C38      1.0000 0.74400  0.00600  0.93890  Biso   1.000  C
  C39      1.0000 0.75600  0.50600  0.56110  Biso   1.000  C
  C40      1.0000 0.25600  0.00600  0.56110  Biso   1.000  C
  H89      1.0000 0.79580  0.53630  0.07390  Biso   1.000  H
  H90      1.0000 0.29580  0.03630  0.07390  Biso   1.000  H
  H91      1.0000 0.20420  0.53630  0.42610  Biso   1.000  H
  H92      1.0000 0.70420  0.03630  0.42610  Biso   1.000  H
  H93      1.0000 0.20420  0.46370  0.92610  Biso   1.000  H
  H94      1.0000 0.70420  0.96370  0.92610  Biso   1.000  H
  H95      1.0000 0.79580  0.46370  0.57390  Biso   1.000  H
  H96      1.0000 0.29580  0.96370  0.57390  Biso   1.000  H
  H97      1.0000 0.67760  0.50460  0.05550  Biso   1.000  H
  H98      1.0000 0.17760  0.00460  0.05550  Biso   1.000  H
  H99      1.0000 0.32240  0.50460  0.44450  Biso   1.000  H
  H100     1.0000 0.82240  0.00460  0.44450  Biso   1.000  H
  H101     1.0000 0.32240  0.49540  0.94450  Biso   1.000  H
  H102     1.0000 0.82240  0.99540  0.94450  Biso   1.000  H
  H103     1.0000 0.67760  0.49540  0.55550  Biso   1.000  H
  H104     1.0000 0.17760  0.99540  0.55550  Biso   1.000  H
  C41      1.0000 0.79320  0.46650  0.96270  Biso   1.000  C
  C42      1.0000 0.29320  0.96650  0.96270  Biso   1.000  C
  C43      1.0000 0.20680  0.46650  0.53730  Biso   1.000  C
  C44      1.0000 0.70680  0.96650  0.53730  Biso   1.000  C
  C45      1.0000 0.20680  0.53350  0.03730  Biso   1.000  C
  C46      1.0000 0.70680  0.03350  0.03730  Biso   1.000  C
  C47      1.0000 0.79320  0.53350  0.46270  Biso   1.000  C
  C48      1.0000 0.29320  0.03350  0.46270  Biso   1.000  C
  H105     1.0000 0.87250  0.45710  0.96800  Biso   1.000  H
  H106     1.0000 0.37250  0.95710  0.96800  Biso   1.000  H
  H107     1.0000 0.12750  0.45710  0.53200  Biso   1.000  H
  H108     1.0000 0.62750  0.95710  0.53200  Biso   1.000  H
  H109     1.0000 0.12750  0.54290  0.03200  Biso   1.000  H
  H110     1.0000 0.62750  0.04290  0.03200  Biso   1.000  H
  H111     1.0000 0.87250  0.54290  0.46800  Biso   1.000  H
  H112     1.0000 0.37250  0.04290  0.46800  Biso   1.000  H
  H113     1.0000 0.78280  0.50160  0.91220  Biso   1.000  H
  H114     1.0000 0.28280  0.00160  0.91220  Biso   1.000  H
  H115     1.0000 0.21720  0.50160  0.58780  Biso   1.000  H
  H116     1.0000 0.71720  0.00160  0.58780  Biso   1.000  H
  H117     1.0000 0.21720  0.49840  0.08780  Biso   1.000  H
  H118     1.0000 0.71720  0.99840  0.08780  Biso   1.000  H
  H119     1.0000 0.78280  0.49840  0.41220  Biso   1.000  H
  H120     1.0000 0.28280  0.99840  0.41220  Biso   1.000  H
  C49      1.0000 0.82400  0.42960  0.12100  Biso   1.000  C
  C50      1.0000 0.32400  0.92960  0.12100  Biso   1.000  C
  C51      1.0000 0.17600  0.42960  0.37900  Biso   1.000  C
  C52      1.0000 0.67600  0.92960  0.37900  Biso   1.000  C
  C53      1.0000 0.17600  0.57040  0.87900  Biso   1.000  C
  C54      1.0000 0.67600  0.07040  0.87900  Biso   1.000  C
  C55      1.0000 0.82400  0.57040  0.62100  Biso   1.000  C
  C56      1.0000 0.32400  0.07040  0.62100  Biso   1.000  C
  H121     1.0000 0.88990  0.40210  0.11320  Biso   1.000  H
  H122     1.0000 0.38990  0.90210  0.11320  Biso   1.000  H
  H123     1.0000 0.11010  0.40210  0.38680  Biso   1.000  H
  H124     1.0000 0.61010  0.90210  0.38680  Biso   1.000  H
  H125     1.0000 0.11010  0.59790  0.88680  Biso   1.000  H
  H126     1.0000 0.61010  0.09790  0.88680  Biso   1.000  H
  H127     1.0000 0.88990  0.59790  0.61320  Biso   1.000  H
  H128     1.0000 0.38990  0.09790  0.61320  Biso   1.000  H
  H129     1.0000 0.83530  0.45660  0.18170  Biso   1.000  H
  H130     1.0000 0.33530  0.95660  0.18170  Biso   1.000  H
  H131     1.0000 0.16470  0.45660  0.31830  Biso   1.000  H
  H132     1.0000 0.66470  0.95660  0.31830  Biso   1.000  H
  H133     1.0000 0.16470  0.54340  0.81830  Biso   1.000  H
  H134     1.0000 0.66470  0.04340  0.81830  Biso   1.000  H
  H135     1.0000 0.83530  0.54340  0.68170  Biso   1.000  H
  H136     1.0000 0.33530  0.04340  0.68170  Biso   1.000  H
  C57      1.0000 0.81600  0.47800  0.03200  Biso   1.000  C
  C58      1.0000 0.31600  0.97800  0.03200  Biso   1.000  C
  C59      1.0000 0.18400  0.47800  0.46800  Biso   1.000  C
  C60      1.0000 0.68400  0.97800  0.46800  Biso   1.000  C
  C61      1.0000 0.18400  0.52200  0.96800  Biso   1.000  C
  C62      1.0000 0.68400  0.02200  0.96800  Biso   1.000  C
  C63      1.0000 0.81600  0.52200  0.53200  Biso   1.000  C
  C64      1.0000 0.31600  0.02200  0.53200  Biso   1.000  C
  H137     1.0000 0.88150  0.47240  0.99170  Biso   1.000  H
  H138     1.0000 0.38150  0.97240  0.99170  Biso   1.000  H
  H139     1.0000 0.11850  0.47240  0.50830  Biso   1.000  H
  H140     1.0000 0.61850  0.97240  0.50830  Biso   1.000  H
  H141     1.0000 0.11850  0.52760  0.00830  Biso   1.000  H
  H142     1.0000 0.61850  0.02760  0.00830  Biso   1.000  H
  H143     1.0000 0.88150  0.52760  0.49170  Biso   1.000  H
  H144     1.0000 0.38150  0.02760  0.49170  Biso   1.000  H
  H145     1.0000 0.81760  0.52460  0.05800  Biso   1.000  H
  H146     1.0000 0.31760  0.02460  0.05800  Biso   1.000  H
  H147     1.0000 0.18240  0.52460  0.44200  Biso   1.000  H
  H148     1.0000 0.68240  0.02460  0.44200  Biso   1.000  H
  H149     1.0000 0.18240  0.47540  0.94200  Biso   1.000  H
  H150     1.0000 0.68240  0.97540  0.94200  Biso   1.000  H
  H151     1.0000 0.81760  0.47540  0.55800  Biso   1.000  H
  H152     1.0000 0.31760  0.97540  0.55800  Biso   1.000  H
  C65      1.0000 0.71100  0.47000  0.96400  Biso   1.000  C
  C66      1.0000 0.21100  0.97000  0.96400  Biso   1.000  C
  C67      1.0000 0.28900  0.47000  0.53600  Biso   1.000  C
  C68      1.0000 0.78900  0.97000  0.53600  Biso   1.000  C
  C69      1.0000 0.28900  0.53000  0.03600  Biso   1.000  C
  C70      1.0000 0.78900  0.03000  0.03600  Biso   1.000  C
  C71      1.0000 0.71100  0.53000  0.46400  Biso   1.000  C
  C72      1.0000 0.21100  0.03000  0.46400  Biso   1.000  C
  H153     1.0000 0.64290  0.47050  0.00220  Biso   1.000  H
  H154     1.0000 0.14290  0.97050  0.00220  Biso   1.000  H
  H155     1.0000 0.35710  0.47050  0.49780  Biso   1.000  H
  H156     1.0000 0.85710  0.97050  0.49780  Biso   1.000  H
  H157     1.0000 0.35710  0.52950  0.99780  Biso   1.000  H
  H158     1.0000 0.85710  0.02950  0.99780  Biso   1.000  H
  H159     1.0000 0.64290  0.52950  0.50220  Biso   1.000  H
  H160     1.0000 0.14290  0.02950  0.50220  Biso   1.000  H
  H161     1.0000 0.70710  0.50390  0.91140  Biso   1.000  H
  H162     1.0000 0.20710  0.00390  0.91140  Biso   1.000  H
  H163     1.0000 0.29290  0.50390  0.58860  Biso   1.000  H
  H164     1.0000 0.79290  0.00390  0.58860  Biso   1.000  H
  H165     1.0000 0.29290  0.49610  0.08860  Biso   1.000  H
  H166     1.0000 0.79290  0.99610  0.08860  Biso   1.000  H
  H167     1.0000 0.70710  0.49610  0.41140  Biso   1.000  H
  H168     1.0000 0.20710  0.99610  0.41140  Biso   1.000  H
  C73      1.0000 0.49610  0.25280  0.06540  Biso   1.000  C
  C74      1.0000 0.99610  0.75280  0.06540  Biso   1.000  C
  C75      1.0000 0.50390  0.25280  0.43460  Biso   1.000  C
  C76      1.0000 0.00390  0.75280  0.43460  Biso   1.000  C
  C77      1.0000 0.50390  0.74720  0.93460  Biso   1.000  C
  C78      1.0000 0.00390  0.24720  0.93460  Biso   1.000  C
  C79      1.0000 0.49610  0.74720  0.56540  Biso   1.000  C
  C80      1.0000 0.99610  0.24720  0.56540  Biso   1.000  C
  H169     1.0000 0.54920  0.22690  0.10000  Biso   1.000  H
  H170     1.0000 0.04920  0.72690  0.10000  Biso   1.000  H
  H171     1.0000 0.45080  0.22690  0.40000  Biso   1.000  H
  H172     1.0000 0.95080  0.72690  0.40000  Biso   1.000  H
  H173     1.0000 0.45080  0.77310  0.90000  Biso   1.000  H
  H174     1.0000 0.95080  0.27310  0.90000  Biso   1.000  H
  H175     1.0000 0.54920  0.77310  0.60000  Biso   1.000  H
  H176     1.0000 0.04920  0.27310  0.60000  Biso   1.000  H
  C81      1.0000 0.38990  0.22670  0.05510  Biso   1.000  C
  C82      1.0000 0.88990  0.72670  0.05510  Biso   1.000  C
  C83      1.0000 0.61010  0.22670  0.44490  Biso   1.000  C
  C84      1.0000 0.11010  0.72670  0.44490  Biso   1.000  C
  C85      1.0000 0.61010  0.77330  0.94490  Biso   1.000  C
  C86      1.0000 0.11010  0.27330  0.94490  Biso   1.000  C
  C87      1.0000 0.38990  0.77330  0.55510  Biso   1.000  C
  C88      1.0000 0.88990  0.27330  0.55510  Biso   1.000  C
  H177     1.0000 0.37390  0.18410  0.08130  Biso   1.000  H
  H178     1.0000 0.87390  0.68410  0.08130  Biso   1.000  H
  H179     1.0000 0.62610  0.18410  0.41870  Biso   1.000  H
  H180     1.0000 0.12610  0.68410  0.41870  Biso   1.000  H
  H181     1.0000 0.62610  0.81590  0.91870  Biso   1.000  H
  H182     1.0000 0.12610  0.31590  0.91870  Biso   1.000  H
  H183     1.0000 0.37390  0.81590  0.58130  Biso   1.000  H
  H184     1.0000 0.87390  0.31590  0.58130  Biso   1.000  H
  C89      1.0000 0.30740  0.26330  0.00600  Biso   1.000  C
  C90      1.0000 0.80740  0.76330  0.00600  Biso   1.000  C
  C91      1.0000 0.69260  0.26330  0.49400  Biso   1.000  C
  C92      1.0000 0.19260  0.76330  0.49400  Biso   1.000  C
  C93      1.0000 0.69260  0.73670  0.99400  Biso   1.000  C
  C94      1.0000 0.19260  0.23670  0.99400  Biso   1.000  C
  C95      1.0000 0.30740  0.73670  0.50600  Biso   1.000  C
  C96      1.0000 0.80740  0.23670  0.50600  Biso   1.000  C
  C97      1.0000 0.34010  0.32430  0.97010  Biso   1.000  C
  C98      1.0000 0.84010  0.82430  0.97010  Biso   1.000  C
  C99      1.0000 0.65990  0.32430  0.52990  Biso   1.000  C
  C100     1.0000 0.15990  0.82430  0.52990  Biso   1.000  C
  C101     1.0000 0.65990  0.67570  0.02990  Biso   1.000  C
  C102     1.0000 0.15990  0.17570  0.02990  Biso   1.000  C
  C103     1.0000 0.34010  0.67570  0.47010  Biso   1.000  C
  C104     1.0000 0.84010  0.17570  0.47010  Biso   1.000  C
  H185     1.0000 0.28850  0.35160  0.93610  Biso   1.000  H
  H186     1.0000 0.78850  0.85160  0.93610  Biso   1.000  H
  H187     1.0000 0.71150  0.35160  0.56390  Biso   1.000  H
  H188     1.0000 0.21150  0.85160  0.56390  Biso   1.000  H
  H189     1.0000 0.71150  0.64840  0.06390  Biso   1.000  H
  H190     1.0000 0.21150  0.14840  0.06390  Biso   1.000  H
  H191     1.0000 0.28850  0.64840  0.43610  Biso   1.000  H
  H192     1.0000 0.78850  0.14840  0.43610  Biso   1.000  H
  C105     1.0000 0.44940  0.34680  0.98310  Biso   1.000  C
  C106     1.0000 0.94940  0.84680  0.98310  Biso   1.000  C
  C107     1.0000 0.55060  0.34680  0.51690  Biso   1.000  C
  C108     1.0000 0.05060  0.84680  0.51690  Biso   1.000  C
  C109     1.0000 0.55060  0.65320  0.01690  Biso   1.000  C
  C110     1.0000 0.05060  0.15320  0.01690  Biso   1.000  C
  C111     1.0000 0.44940  0.65320  0.48310  Biso   1.000  C
  C112     1.0000 0.94940  0.15320  0.48310  Biso   1.000  C
  H193     1.0000 0.46810  0.38900  0.95720  Biso   1.000  H
  H194     1.0000 0.96810  0.88900  0.95720  Biso   1.000  H
  H195     1.0000 0.53190  0.38900  0.54280  Biso   1.000  H
  H196     1.0000 0.03190  0.88900  0.54280  Biso   1.000  H
  H197     1.0000 0.53190  0.61100  0.04280  Biso   1.000  H
  H198     1.0000 0.03190  0.11100  0.04280  Biso   1.000  H
  H199     1.0000 0.46810  0.61100  0.45720  Biso   1.000  H
  H200     1.0000 0.96810  0.11100  0.45720  Biso   1.000  H
