data_image0
_cell_length_a       15.3107
_cell_length_b       16.7284
_cell_length_c       27.412
_cell_angle_alpha    90
_cell_angle_beta     90
_cell_angle_gamma    90

_symmetry_space_group_name_H-M    "P 1"
_symmetry_int_tables_number       1

loop_
  _symmetry_equiv_pos_as_xyz
  'x, y, z'

loop_
  _atom_site_label
  _atom_site_occupancy
  _atom_site_fract_x
  _atom_site_fract_y
  _atom_site_fract_z
  _atom_site_thermal_displace_type
  _atom_site_B_iso_or_equiv
  _atom_site_type_symbol
  Cu1      1.0000 0.75000  0.25000  0.25000  Biso   1.000  Cu
  Cu2      1.0000 0.75000  0.75000  0.75000  Biso   1.000  Cu
  Cu3      1.0000 0.25000  0.75000  0.25000  Biso   1.000  Cu
  Cu4      1.0000 0.25000  0.25000  0.75000  Biso   1.000  Cu
  Cu5      1.0000 0.25000  0.75000  0.75000  Biso   1.000  Cu
  Cu6      1.0000 0.25000  0.25000  0.25000  Biso   1.000  Cu
  Cu7      1.0000 0.75000  0.25000  0.75000  Biso   1.000  Cu
  Cu8      1.0000 0.75000  0.75000  0.25000  Biso   1.000  Cu
  N1       1.0000 0.79900  0.35170  0.22237  Biso   1.000  N
  N2       1.0000 0.70100  0.64830  0.72237  Biso   1.000  N
  N3       1.0000 0.20100  0.85170  0.27763  Biso   1.000  N
  N4       1.0000 0.29900  0.14830  0.77763  Biso   1.000  N
  N5       1.0000 0.29900  0.85170  0.72237  Biso   1.000  N
  N6       1.0000 0.20100  0.14830  0.22237  Biso   1.000  N
  N7       1.0000 0.70100  0.35170  0.77763  Biso   1.000  N
  N8       1.0000 0.79900  0.64830  0.27763  Biso   1.000  N
  N9       1.0000 0.20100  0.64830  0.77763  Biso   1.000  N
  N10      1.0000 0.29900  0.35170  0.27763  Biso   1.000  N
  N11      1.0000 0.79900  0.14830  0.72237  Biso   1.000  N
  N12      1.0000 0.70100  0.85170  0.22237  Biso   1.000  N
  N13      1.0000 0.70100  0.14830  0.27763  Biso   1.000  N
  N14      1.0000 0.79900  0.85170  0.77763  Biso   1.000  N
  N15      1.0000 0.29900  0.64830  0.22237  Biso   1.000  N
  N16      1.0000 0.20100  0.35170  0.72237  Biso   1.000  N
  N17      1.0000 0.93470  0.55370  0.11236  Biso   1.000  N
  N18      1.0000 0.56530  0.44630  0.61236  Biso   1.000  N
  N19      1.0000 0.06530  0.05370  0.38764  Biso   1.000  N
  N20      1.0000 0.43470  0.94630  0.88764  Biso   1.000  N
  N21      1.0000 0.43470  0.05370  0.61236  Biso   1.000  N
  N22      1.0000 0.06530  0.94630  0.11236  Biso   1.000  N
  N23      1.0000 0.56530  0.55370  0.88764  Biso   1.000  N
  N24      1.0000 0.93470  0.44630  0.38764  Biso   1.000  N
  N25      1.0000 0.06530  0.44630  0.88764  Biso   1.000  N
  N26      1.0000 0.43470  0.55370  0.38764  Biso   1.000  N
  N27      1.0000 0.93470  0.94630  0.61236  Biso   1.000  N
  N28      1.0000 0.56530  0.05370  0.11236  Biso   1.000  N
  N29      1.0000 0.56530  0.94630  0.38764  Biso   1.000  N
  N30      1.0000 0.93470  0.05370  0.88764  Biso   1.000  N
  N31      1.0000 0.43470  0.44630  0.11236  Biso   1.000  N
  N32      1.0000 0.06530  0.55370  0.61236  Biso   1.000  N
  C1       1.0000 0.74600  0.41100  0.20627  Biso   1.000  C
  C2       1.0000 0.75400  0.58900  0.70627  Biso   1.000  C
  C3       1.0000 0.25400  0.91100  0.29373  Biso   1.000  C
  C4       1.0000 0.24600  0.08900  0.79373  Biso   1.000  C
  C5       1.0000 0.24600  0.91100  0.70627  Biso   1.000  C
  C6       1.0000 0.25400  0.08900  0.20627  Biso   1.000  C
  C7       1.0000 0.75400  0.41100  0.79373  Biso   1.000  C
  C8       1.0000 0.74600  0.58900  0.29373  Biso   1.000  C
  C9       1.0000 0.25400  0.58900  0.79373  Biso   1.000  C
  C10      1.0000 0.24600  0.41100  0.29373  Biso   1.000  C
  C11      1.0000 0.74600  0.08900  0.70627  Biso   1.000  C
  C12      1.0000 0.75400  0.91100  0.20627  Biso   1.000  C
  C13      1.0000 0.75400  0.08900  0.29373  Biso   1.000  C
  C14      1.0000 0.74600  0.91100  0.79373  Biso   1.000  C
  C15      1.0000 0.24600  0.58900  0.20627  Biso   1.000  C
  C16      1.0000 0.25400  0.41100  0.70627  Biso   1.000  C
  H1       1.0000 0.68460  0.40370  0.20830  Biso   1.000  H
  H2       1.0000 0.81540  0.59630  0.70830  Biso   1.000  H
  H3       1.0000 0.31540  0.90370  0.29170  Biso   1.000  H
  H4       1.0000 0.18460  0.09630  0.79170  Biso   1.000  H
  H5       1.0000 0.18460  0.90370  0.70830  Biso   1.000  H
  H6       1.0000 0.31540  0.09630  0.20830  Biso   1.000  H
  H7       1.0000 0.81540  0.40370  0.79170  Biso   1.000  H
  H8       1.0000 0.68460  0.59630  0.29170  Biso   1.000  H
  H9       1.0000 0.31540  0.59630  0.79170  Biso   1.000  H
  H10      1.0000 0.18460  0.40370  0.29170  Biso   1.000  H
  H11      1.0000 0.68460  0.09630  0.70830  Biso   1.000  H
  H12      1.0000 0.81540  0.90370  0.20830  Biso   1.000  H
  H13      1.0000 0.81540  0.09630  0.29170  Biso   1.000  H
  H14      1.0000 0.68460  0.90370  0.79170  Biso   1.000  H
  H15      1.0000 0.18460  0.59630  0.20830  Biso   1.000  H
  H16      1.0000 0.31540  0.40370  0.70830  Biso   1.000  H
  C17      1.0000 0.77750  0.48170  0.18708  Biso   1.000  C
  C18      1.0000 0.72250  0.51830  0.68708  Biso   1.000  C
  C19      1.0000 0.22250  0.98170  0.31292  Biso   1.000  C
  C20      1.0000 0.27750  0.01830  0.81292  Biso   1.000  C
  C21      1.0000 0.27750  0.98170  0.68708  Biso   1.000  C
  C22      1.0000 0.22250  0.01830  0.18708  Biso   1.000  C
  C23      1.0000 0.72250  0.48170  0.81292  Biso   1.000  C
  C24      1.0000 0.77750  0.51830  0.31292  Biso   1.000  C
  C25      1.0000 0.22250  0.51830  0.81292  Biso   1.000  C
  C26      1.0000 0.27750  0.48170  0.31292  Biso   1.000  C
  C27      1.0000 0.77750  0.01830  0.68708  Biso   1.000  C
  C28      1.0000 0.72250  0.98170  0.18708  Biso   1.000  C
  C29      1.0000 0.72250  0.01830  0.31292  Biso   1.000  C
  C30      1.0000 0.77750  0.98170  0.81292  Biso   1.000  C
  C31      1.0000 0.27750  0.51830  0.18708  Biso   1.000  C
  C32      1.0000 0.22250  0.48170  0.68708  Biso   1.000  C
  H17      1.0000 0.73810  0.52170  0.17610  Biso   1.000  H
  H18      1.0000 0.76190  0.47830  0.67610  Biso   1.000  H
  H19      1.0000 0.26190  0.02170  0.32390  Biso   1.000  H
  H20      1.0000 0.23810  0.97830  0.82390  Biso   1.000  H
  H21      1.0000 0.23810  0.02170  0.67610  Biso   1.000  H
  H22      1.0000 0.26190  0.97830  0.17610  Biso   1.000  H
  H23      1.0000 0.76190  0.52170  0.82390  Biso   1.000  H
  H24      1.0000 0.73810  0.47830  0.32390  Biso   1.000  H
  H25      1.0000 0.26190  0.47830  0.82390  Biso   1.000  H
  H26      1.0000 0.23810  0.52170  0.32390  Biso   1.000  H
  H27      1.0000 0.73810  0.97830  0.67610  Biso   1.000  H
  H28      1.0000 0.76190  0.02170  0.17610  Biso   1.000  H
  H29      1.0000 0.76190  0.97830  0.32390  Biso   1.000  H
  H30      1.0000 0.73810  0.02170  0.82390  Biso   1.000  H
  H31      1.0000 0.23810  0.47830  0.17610  Biso   1.000  H
  H32      1.0000 0.26190  0.52170  0.67610  Biso   1.000  H
  C33      1.0000 0.86680  0.49390  0.18398  Biso   1.000  C
  C34      1.0000 0.63320  0.50610  0.68398  Biso   1.000  C
  C35      1.0000 0.13320  0.99390  0.31602  Biso   1.000  C
  C36      1.0000 0.36680  0.00610  0.81602  Biso   1.000  C
  C37      1.0000 0.36680  0.99390  0.68398  Biso   1.000  C
  C38      1.0000 0.13320  0.00610  0.18398  Biso   1.000  C
  C39      1.0000 0.63320  0.49390  0.81602  Biso   1.000  C
  C40      1.0000 0.86680  0.50610  0.31602  Biso   1.000  C
  C41      1.0000 0.13320  0.50610  0.81602  Biso   1.000  C
  C42      1.0000 0.36680  0.49390  0.31602  Biso   1.000  C
  C43      1.0000 0.86680  0.00610  0.68398  Biso   1.000  C
  C44      1.0000 0.63320  0.99390  0.18398  Biso   1.000  C
  C45      1.0000 0.63320  0.00610  0.31602  Biso   1.000  C
  C46      1.0000 0.86680  0.99390  0.81602  Biso   1.000  C
  C47      1.0000 0.36680  0.50610  0.18398  Biso   1.000  C
  C48      1.0000 0.13320  0.49390  0.68398  Biso   1.000  C
  C49      1.0000 0.92190  0.43330  0.20082  Biso   1.000  C
  C50      1.0000 0.57810  0.56670  0.70082  Biso   1.000  C
  C51      1.0000 0.07810  0.93330  0.29918  Biso   1.000  C
  C52      1.0000 0.42190  0.06670  0.79918  Biso   1.000  C
  C53      1.0000 0.42190  0.93330  0.70082  Biso   1.000  C
  C54      1.0000 0.07810  0.06670  0.20082  Biso   1.000  C
  C55      1.0000 0.57810  0.43330  0.79918  Biso   1.000  C
  C56      1.0000 0.92190  0.56670  0.29918  Biso   1.000  C
  C57      1.0000 0.07810  0.56670  0.79918  Biso   1.000  C
  C58      1.0000 0.42190  0.43330  0.29918  Biso   1.000  C
  C59      1.0000 0.92190  0.06670  0.70082  Biso   1.000  C
  C60      1.0000 0.57810  0.93330  0.20082  Biso   1.000  C
  C61      1.0000 0.57810  0.06670  0.29918  Biso   1.000  C
  C62      1.0000 0.92190  0.93330  0.79918  Biso   1.000  C
  C63      1.0000 0.42190  0.56670  0.20082  Biso   1.000  C
  C64      1.0000 0.07810  0.43330  0.70082  Biso   1.000  C
  H33      1.0000 0.98350  0.43970  0.19950  Biso   1.000  H
  H34      1.0000 0.51650  0.56030  0.69950  Biso   1.000  H
  H35      1.0000 0.01650  0.93970  0.30050  Biso   1.000  H
  H36      1.0000 0.48350  0.06030  0.80050  Biso   1.000  H
  H37      1.0000 0.48350  0.93970  0.69950  Biso   1.000  H
  H38      1.0000 0.01650  0.06030  0.19950  Biso   1.000  H
  H39      1.0000 0.51650  0.43970  0.80050  Biso   1.000  H
  H40      1.0000 0.98350  0.56030  0.30050  Biso   1.000  H
  H41      1.0000 0.01650  0.56030  0.80050  Biso   1.000  H
  H42      1.0000 0.48350  0.43970  0.30050  Biso   1.000  H
  H43      1.0000 0.98350  0.06030  0.69950  Biso   1.000  H
  H44      1.0000 0.51650  0.93970  0.19950  Biso   1.000  H
  H45      1.0000 0.51650  0.06030  0.30050  Biso   1.000  H
  H46      1.0000 0.98350  0.93970  0.80050  Biso   1.000  H
  H47      1.0000 0.48350  0.56030  0.19950  Biso   1.000  H
  H48      1.0000 0.01650  0.43970  0.69950  Biso   1.000  H
  C65      1.0000 0.88610  0.36430  0.21936  Biso   1.000  C
  C66      1.0000 0.61390  0.63570  0.71936  Biso   1.000  C
  C67      1.0000 0.11390  0.86430  0.28064  Biso   1.000  C
  C68      1.0000 0.38610  0.13570  0.78064  Biso   1.000  C
  C69      1.0000 0.38610  0.86430  0.71936  Biso   1.000  C
  C70      1.0000 0.11390  0.13570  0.21936  Biso   1.000  C
  C71      1.0000 0.61390  0.36430  0.78064  Biso   1.000  C
  C72      1.0000 0.88610  0.63570  0.28064  Biso   1.000  C
  C73      1.0000 0.11390  0.63570  0.78064  Biso   1.000  C
  C74      1.0000 0.38610  0.36430  0.28064  Biso   1.000  C
  C75      1.0000 0.88610  0.13570  0.71936  Biso   1.000  C
  C76      1.0000 0.61390  0.86430  0.21936  Biso   1.000  C
  C77      1.0000 0.61390  0.13570  0.28064  Biso   1.000  C
  C78      1.0000 0.88610  0.86430  0.78064  Biso   1.000  C
  C79      1.0000 0.38610  0.63570  0.21936  Biso   1.000  C
  C80      1.0000 0.11390  0.36430  0.71936  Biso   1.000  C
  H49      1.0000 0.92430  0.32350  0.23060  Biso   1.000  H
  H50      1.0000 0.57570  0.67650  0.73060  Biso   1.000  H
  H51      1.0000 0.07570  0.82350  0.26940  Biso   1.000  H
  H52      1.0000 0.42430  0.17650  0.76940  Biso   1.000  H
  H53      1.0000 0.42430  0.82350  0.73060  Biso   1.000  H
  H54      1.0000 0.07570  0.17650  0.23060  Biso   1.000  H
  H55      1.0000 0.57570  0.32350  0.76940  Biso   1.000  H
  H56      1.0000 0.92430  0.67650  0.26940  Biso   1.000  H
  H57      1.0000 0.07570  0.67650  0.76940  Biso   1.000  H
  H58      1.0000 0.42430  0.32350  0.26940  Biso   1.000  H
  H59      1.0000 0.92430  0.17650  0.73060  Biso   1.000  H
  H60      1.0000 0.57570  0.82350  0.23060  Biso   1.000  H
  H61      1.0000 0.57570  0.17650  0.26940  Biso   1.000  H
  H62      1.0000 0.92430  0.82350  0.76940  Biso   1.000  H
  H63      1.0000 0.42430  0.67650  0.23060  Biso   1.000  H
  H64      1.0000 0.07570  0.32350  0.73060  Biso   1.000  H
  C81      1.0000 0.90370  0.56940  0.16191  Biso   1.000  C
  C82      1.0000 0.59630  0.43060  0.66191  Biso   1.000  C
  C83      1.0000 0.09630  0.06940  0.33809  Biso   1.000  C
  C84      1.0000 0.40370  0.93060  0.83809  Biso   1.000  C
  C85      1.0000 0.40370  0.06940  0.66191  Biso   1.000  C
  C86      1.0000 0.09630  0.93060  0.16191  Biso   1.000  C
  C87      1.0000 0.59630  0.56940  0.83809  Biso   1.000  C
  C88      1.0000 0.90370  0.43060  0.33809  Biso   1.000  C
  C89      1.0000 0.09630  0.43060  0.83809  Biso   1.000  C
  C90      1.0000 0.40370  0.56940  0.33809  Biso   1.000  C
  C91      1.0000 0.90370  0.93060  0.66191  Biso   1.000  C
  C92      1.0000 0.59630  0.06940  0.16191  Biso   1.000  C
  C93      1.0000 0.59630  0.93060  0.33809  Biso   1.000  C
  C94      1.0000 0.90370  0.06940  0.83809  Biso   1.000  C
  C95      1.0000 0.40370  0.43060  0.16191  Biso   1.000  C
  C96      1.0000 0.09630  0.56940  0.66191  Biso   1.000  C
  H65      1.0000 0.85810  0.61130  0.16110  Biso   1.000  H
  H66      1.0000 0.64190  0.38870  0.66110  Biso   1.000  H
  H67      1.0000 0.14190  0.11130  0.33890  Biso   1.000  H
  H68      1.0000 0.35810  0.88870  0.83890  Biso   1.000  H
  H69      1.0000 0.35810  0.11130  0.66110  Biso   1.000  H
  H70      1.0000 0.14190  0.88870  0.16110  Biso   1.000  H
  H71      1.0000 0.64190  0.61130  0.83890  Biso   1.000  H
  H72      1.0000 0.85810  0.38870  0.33890  Biso   1.000  H
  H73      1.0000 0.14190  0.38870  0.83890  Biso   1.000  H
  H74      1.0000 0.35810  0.61130  0.33890  Biso   1.000  H
  H75      1.0000 0.85810  0.88870  0.66110  Biso   1.000  H
  H76      1.0000 0.64190  0.11130  0.16110  Biso   1.000  H
  H77      1.0000 0.64190  0.88870  0.33890  Biso   1.000  H
  H78      1.0000 0.85810  0.11130  0.83890  Biso   1.000  H
  H79      1.0000 0.35810  0.38870  0.16110  Biso   1.000  H
  H80      1.0000 0.14190  0.61130  0.66110  Biso   1.000  H
  H81      1.0000 0.95270  0.58910  0.18220  Biso   1.000  H
  H82      1.0000 0.54730  0.41090  0.68220  Biso   1.000  H
  H83      1.0000 0.04730  0.08910  0.31780  Biso   1.000  H
  H84      1.0000 0.45270  0.91090  0.81780  Biso   1.000  H
  H85      1.0000 0.45270  0.08910  0.68220  Biso   1.000  H
  H86      1.0000 0.04730  0.91090  0.18220  Biso   1.000  H
  H87      1.0000 0.54730  0.58910  0.81780  Biso   1.000  H
  H88      1.0000 0.95270  0.41090  0.31780  Biso   1.000  H
  H89      1.0000 0.04730  0.41090  0.81780  Biso   1.000  H
  H90      1.0000 0.45270  0.58910  0.31780  Biso   1.000  H
  H91      1.0000 0.95270  0.91090  0.68220  Biso   1.000  H
  H92      1.0000 0.54730  0.08910  0.18220  Biso   1.000  H
  H93      1.0000 0.54730  0.91090  0.31780  Biso   1.000  H
  H94      1.0000 0.95270  0.08910  0.81780  Biso   1.000  H
  H95      1.0000 0.45270  0.41090  0.18220  Biso   1.000  H
  H96      1.0000 0.04730  0.58910  0.68220  Biso   1.000  H
  C97      1.0000 0.88000  0.55260  0.07184  Biso   1.000  C
  C98      1.0000 0.62000  0.44740  0.57184  Biso   1.000  C
  C99      1.0000 0.12000  0.05260  0.42816  Biso   1.000  C
  C100     1.0000 0.38000  0.94740  0.92816  Biso   1.000  C
  C101     1.0000 0.38000  0.05260  0.57184  Biso   1.000  C
  C102     1.0000 0.12000  0.94740  0.07184  Biso   1.000  C
  C103     1.0000 0.62000  0.55260  0.92816  Biso   1.000  C
  C104     1.0000 0.88000  0.44740  0.42816  Biso   1.000  C
  C105     1.0000 0.12000  0.44740  0.92816  Biso   1.000  C
  C106     1.0000 0.38000  0.55260  0.42816  Biso   1.000  C
  C107     1.0000 0.88000  0.94740  0.57184  Biso   1.000  C
  C108     1.0000 0.62000  0.05260  0.07184  Biso   1.000  C
  C109     1.0000 0.62000  0.94740  0.42816  Biso   1.000  C
  C110     1.0000 0.88000  0.05260  0.92816  Biso   1.000  C
  C111     1.0000 0.38000  0.44740  0.07184  Biso   1.000  C
  C112     1.0000 0.12000  0.55260  0.57184  Biso   1.000  C
  C113     1.0000 0.01980  0.52950  0.10091  Biso   1.000  C
  C114     1.0000 0.48020  0.47050  0.60091  Biso   1.000  C
  C115     1.0000 0.98020  0.02950  0.39909  Biso   1.000  C
  C116     1.0000 0.51980  0.97050  0.89909  Biso   1.000  C
  C117     1.0000 0.51980  0.02950  0.60091  Biso   1.000  C
  C118     1.0000 0.98020  0.97050  0.10091  Biso   1.000  C
  C119     1.0000 0.48020  0.52950  0.89909  Biso   1.000  C
  C120     1.0000 0.01980  0.47050  0.39909  Biso   1.000  C
  C121     1.0000 0.98020  0.47050  0.89909  Biso   1.000  C
  C122     1.0000 0.51980  0.52950  0.39909  Biso   1.000  C
  C123     1.0000 0.01980  0.97050  0.60091  Biso   1.000  C
  C124     1.0000 0.48020  0.02950  0.10091  Biso   1.000  C
  C125     1.0000 0.48020  0.97050  0.39909  Biso   1.000  C
  C126     1.0000 0.01980  0.02950  0.89909  Biso   1.000  C
  C127     1.0000 0.51980  0.47050  0.10091  Biso   1.000  C
  C128     1.0000 0.98020  0.52950  0.60091  Biso   1.000  C
  C129     1.0000 0.93570  0.52630  0.02991  Biso   1.000  C
  C130     1.0000 0.56430  0.47370  0.52991  Biso   1.000  C
  C131     1.0000 0.06430  0.02630  0.47009  Biso   1.000  C
  C132     1.0000 0.43570  0.97370  0.97009  Biso   1.000  C
  C133     1.0000 0.43570  0.02630  0.52991  Biso   1.000  C
  C134     1.0000 0.06430  0.97370  0.02991  Biso   1.000  C
  C135     1.0000 0.56430  0.52630  0.97009  Biso   1.000  C
  C136     1.0000 0.93570  0.47370  0.47009  Biso   1.000  C
  C137     1.0000 0.06430  0.47370  0.97009  Biso   1.000  C
  C138     1.0000 0.43570  0.52630  0.47009  Biso   1.000  C
  C139     1.0000 0.93570  0.97370  0.52991  Biso   1.000  C
  C140     1.0000 0.56430  0.02630  0.02991  Biso   1.000  C
  C141     1.0000 0.56430  0.97370  0.47009  Biso   1.000  C
  C142     1.0000 0.93570  0.02630  0.97009  Biso   1.000  C
  C143     1.0000 0.43570  0.47370  0.02991  Biso   1.000  C
  C144     1.0000 0.06430  0.52630  0.52991  Biso   1.000  C
  C145     1.0000 0.91300  0.51440  0.98164  Biso   1.000  C
  C146     1.0000 0.58700  0.48560  0.48164  Biso   1.000  C
  C147     1.0000 0.08700  0.01440  0.51836  Biso   1.000  C
  C148     1.0000 0.41300  0.98560  0.01836  Biso   1.000  C
  C149     1.0000 0.41300  0.01440  0.48164  Biso   1.000  C
  C150     1.0000 0.08700  0.98560  0.98164  Biso   1.000  C
  C151     1.0000 0.58700  0.51440  0.01836  Biso   1.000  C
  C152     1.0000 0.91300  0.48560  0.51836  Biso   1.000  C
  C153     1.0000 0.08700  0.48560  0.01836  Biso   1.000  C
  C154     1.0000 0.41300  0.51440  0.51836  Biso   1.000  C
  C155     1.0000 0.91300  0.98560  0.48164  Biso   1.000  C
  C156     1.0000 0.58700  0.01440  0.98164  Biso   1.000  C
  C157     1.0000 0.58700  0.98560  0.51836  Biso   1.000  C
  C158     1.0000 0.91300  0.01440  0.01836  Biso   1.000  C
  C159     1.0000 0.41300  0.48560  0.98164  Biso   1.000  C
  C160     1.0000 0.08700  0.51440  0.48164  Biso   1.000  C
  H97      1.0000 0.85580  0.52380  0.96950  Biso   1.000  H
  H98      1.0000 0.64420  0.47620  0.46950  Biso   1.000  H
  H99      1.0000 0.14420  0.02380  0.53050  Biso   1.000  H
  H100     1.0000 0.35580  0.97620  0.03050  Biso   1.000  H
  H101     1.0000 0.35580  0.02380  0.46950  Biso   1.000  H
  H102     1.0000 0.14420  0.97620  0.96950  Biso   1.000  H
  H103     1.0000 0.64420  0.52380  0.03050  Biso   1.000  H
  H104     1.0000 0.85580  0.47620  0.53050  Biso   1.000  H
  H105     1.0000 0.14420  0.47620  0.03050  Biso   1.000  H
  H106     1.0000 0.35580  0.52380  0.53050  Biso   1.000  H
  H107     1.0000 0.85580  0.97620  0.46950  Biso   1.000  H
  H108     1.0000 0.64420  0.02380  0.96950  Biso   1.000  H
  H109     1.0000 0.64420  0.97620  0.53050  Biso   1.000  H
  H110     1.0000 0.85580  0.02380  0.03050  Biso   1.000  H
  H111     1.0000 0.35580  0.47620  0.96950  Biso   1.000  H
  H112     1.0000 0.14420  0.52380  0.46950  Biso   1.000  H
  C161     1.0000 0.98040  0.48770  0.95258  Biso   1.000  C
  C162     1.0000 0.51960  0.51230  0.45258  Biso   1.000  C
  C163     1.0000 0.01960  0.98770  0.54742  Biso   1.000  C
  C164     1.0000 0.48040  0.01230  0.04742  Biso   1.000  C
  C165     1.0000 0.48040  0.98770  0.45258  Biso   1.000  C
  C166     1.0000 0.01960  0.01230  0.95258  Biso   1.000  C
  C167     1.0000 0.51960  0.48770  0.04742  Biso   1.000  C
  C168     1.0000 0.98040  0.51230  0.54742  Biso   1.000  C
  C169     1.0000 0.01960  0.51230  0.04742  Biso   1.000  C
  C170     1.0000 0.48040  0.48770  0.54742  Biso   1.000  C
  C171     1.0000 0.98040  0.01230  0.45258  Biso   1.000  C
  C172     1.0000 0.51960  0.98770  0.95258  Biso   1.000  C
  C173     1.0000 0.51960  0.01230  0.54742  Biso   1.000  C
  C174     1.0000 0.98040  0.98770  0.04742  Biso   1.000  C
  C175     1.0000 0.48040  0.51230  0.95258  Biso   1.000  C
  C176     1.0000 0.01960  0.48770  0.45258  Biso   1.000  C
  C177     1.0000 0.90820  0.22390  0.30851  Biso   1.000  C
  C178     1.0000 0.59180  0.77610  0.80851  Biso   1.000  C
  C179     1.0000 0.09180  0.72390  0.19149  Biso   1.000  C
  C180     1.0000 0.40820  0.27610  0.69149  Biso   1.000  C
  C181     1.0000 0.40820  0.72390  0.80851  Biso   1.000  C
  C182     1.0000 0.09180  0.27610  0.30851  Biso   1.000  C
  C183     1.0000 0.59180  0.22390  0.69149  Biso   1.000  C
  C184     1.0000 0.90820  0.77610  0.19149  Biso   1.000  C
  C185     1.0000 0.09180  0.77610  0.69149  Biso   1.000  C
  C186     1.0000 0.40820  0.22390  0.19149  Biso   1.000  C
  C187     1.0000 0.90820  0.27610  0.80851  Biso   1.000  C
  C188     1.0000 0.59180  0.72390  0.30851  Biso   1.000  C
  C189     1.0000 0.59180  0.27610  0.19149  Biso   1.000  C
  C190     1.0000 0.90820  0.72390  0.69149  Biso   1.000  C
  C191     1.0000 0.40820  0.77610  0.30851  Biso   1.000  C
  C192     1.0000 0.09180  0.22390  0.80851  Biso   1.000  C
  C193     1.0000 0.95550  0.23930  0.35546  Biso   1.000  C
  C194     1.0000 0.54450  0.76070  0.85546  Biso   1.000  C
  C195     1.0000 0.04450  0.73930  0.14454  Biso   1.000  C
  C196     1.0000 0.45550  0.26070  0.64454  Biso   1.000  C
  C197     1.0000 0.45550  0.73930  0.85546  Biso   1.000  C
  C198     1.0000 0.04450  0.26070  0.35546  Biso   1.000  C
  C199     1.0000 0.54450  0.23930  0.64454  Biso   1.000  C
  C200     1.0000 0.95550  0.76070  0.14454  Biso   1.000  C
  C201     1.0000 0.04450  0.76070  0.64454  Biso   1.000  C
  C202     1.0000 0.45550  0.23930  0.14454  Biso   1.000  C
  C203     1.0000 0.95550  0.26070  0.85546  Biso   1.000  C
  C204     1.0000 0.54450  0.73930  0.35546  Biso   1.000  C
  C205     1.0000 0.54450  0.26070  0.14454  Biso   1.000  C
  C206     1.0000 0.95550  0.73930  0.64454  Biso   1.000  C
  C207     1.0000 0.45550  0.76070  0.35546  Biso   1.000  C
  C208     1.0000 0.04450  0.23930  0.85546  Biso   1.000  C
  C209     1.0000 0.91250  0.23050  0.39967  Biso   1.000  C
  C210     1.0000 0.58750  0.76950  0.89967  Biso   1.000  C
  C211     1.0000 0.08750  0.73050  0.10033  Biso   1.000  C
  C212     1.0000 0.41250  0.26950  0.60033  Biso   1.000  C
  C213     1.0000 0.41250  0.73050  0.89967  Biso   1.000  C
  C214     1.0000 0.08750  0.26950  0.39967  Biso   1.000  C
  C215     1.0000 0.58750  0.23050  0.60033  Biso   1.000  C
  C216     1.0000 0.91250  0.76950  0.10033  Biso   1.000  C
  C217     1.0000 0.08750  0.76950  0.60033  Biso   1.000  C
  C218     1.0000 0.41250  0.23050  0.10033  Biso   1.000  C
  C219     1.0000 0.91250  0.26950  0.89967  Biso   1.000  C
  C220     1.0000 0.58750  0.73050  0.39967  Biso   1.000  C
  C221     1.0000 0.58750  0.26950  0.10033  Biso   1.000  C
  C222     1.0000 0.91250  0.73050  0.60033  Biso   1.000  C
  C223     1.0000 0.41250  0.76950  0.39967  Biso   1.000  C
  C224     1.0000 0.08750  0.23050  0.89967  Biso   1.000  C
  H113     1.0000 0.85210  0.21750  0.39990  Biso   1.000  H
  H114     1.0000 0.64790  0.78250  0.89990  Biso   1.000  H
  H115     1.0000 0.14790  0.71750  0.10010  Biso   1.000  H
  H116     1.0000 0.35210  0.28250  0.60010  Biso   1.000  H
  H117     1.0000 0.35210  0.71750  0.89990  Biso   1.000  H
  H118     1.0000 0.14790  0.28250  0.39990  Biso   1.000  H
  H119     1.0000 0.64790  0.21750  0.60010  Biso   1.000  H
  H120     1.0000 0.85210  0.78250  0.10010  Biso   1.000  H
  H121     1.0000 0.14790  0.78250  0.60010  Biso   1.000  H
  H122     1.0000 0.35210  0.21750  0.10010  Biso   1.000  H
  H123     1.0000 0.85210  0.28250  0.89990  Biso   1.000  H
  H124     1.0000 0.64790  0.71750  0.39990  Biso   1.000  H
  H125     1.0000 0.64790  0.28250  0.10010  Biso   1.000  H
  H126     1.0000 0.85210  0.71750  0.60010  Biso   1.000  H
  H127     1.0000 0.35210  0.78250  0.39990  Biso   1.000  H
  H128     1.0000 0.14790  0.21750  0.89990  Biso   1.000  H
  C225     1.0000 0.95600  0.24040  0.44337  Biso   1.000  C
  C226     1.0000 0.54400  0.75960  0.94337  Biso   1.000  C
  C227     1.0000 0.04400  0.74040  0.05663  Biso   1.000  C
  C228     1.0000 0.45600  0.25960  0.55663  Biso   1.000  C
  C229     1.0000 0.45600  0.74040  0.94337  Biso   1.000  C
  C230     1.0000 0.04400  0.25960  0.44337  Biso   1.000  C
  C231     1.0000 0.54400  0.24040  0.55663  Biso   1.000  C
  C232     1.0000 0.95600  0.75960  0.05663  Biso   1.000  C
  C233     1.0000 0.04400  0.75960  0.55663  Biso   1.000  C
  C234     1.0000 0.45600  0.24040  0.05663  Biso   1.000  C
  C235     1.0000 0.95600  0.25960  0.94337  Biso   1.000  C
  C236     1.0000 0.54400  0.74040  0.44337  Biso   1.000  C
  C237     1.0000 0.54400  0.25960  0.05663  Biso   1.000  C
  C238     1.0000 0.95600  0.74040  0.55663  Biso   1.000  C
  C239     1.0000 0.45600  0.75960  0.44337  Biso   1.000  C
  C240     1.0000 0.04400  0.24040  0.94337  Biso   1.000  C
  H129     1.0000 0.92570  0.23400  0.47340  Biso   1.000  H
  H130     1.0000 0.57430  0.76600  0.97340  Biso   1.000  H
  H131     1.0000 0.07430  0.73400  0.02660  Biso   1.000  H
  H132     1.0000 0.42570  0.26600  0.52660  Biso   1.000  H
  H133     1.0000 0.42570  0.73400  0.97340  Biso   1.000  H
  H134     1.0000 0.07430  0.26600  0.47340  Biso   1.000  H
  H135     1.0000 0.57430  0.23400  0.52660  Biso   1.000  H
  H136     1.0000 0.92570  0.76600  0.02660  Biso   1.000  H
  H137     1.0000 0.07430  0.76600  0.52660  Biso   1.000  H
  H138     1.0000 0.42570  0.23400  0.02660  Biso   1.000  H
  H139     1.0000 0.92570  0.26600  0.97340  Biso   1.000  H
  H140     1.0000 0.57430  0.73400  0.47340  Biso   1.000  H
  H141     1.0000 0.57430  0.26600  0.02660  Biso   1.000  H
  H142     1.0000 0.92570  0.73400  0.52660  Biso   1.000  H
  H143     1.0000 0.42570  0.76600  0.47340  Biso   1.000  H
  H144     1.0000 0.07430  0.23400  0.97340  Biso   1.000  H
  C241     1.0000 0.63290  0.31580  0.34970  Biso   1.000  C
  C242     1.0000 0.86710  0.68420  0.84970  Biso   1.000  C
  C243     1.0000 0.36710  0.81580  0.15030  Biso   1.000  C
  C244     1.0000 0.13290  0.18420  0.65030  Biso   1.000  C
  C245     1.0000 0.13290  0.81580  0.84970  Biso   1.000  C
  C246     1.0000 0.36710  0.18420  0.34970  Biso   1.000  C
  C247     1.0000 0.86710  0.31580  0.65030  Biso   1.000  C
  C248     1.0000 0.63290  0.68420  0.15030  Biso   1.000  C
  C249     1.0000 0.36710  0.68420  0.65030  Biso   1.000  C
  C250     1.0000 0.13290  0.31580  0.15030  Biso   1.000  C
  C251     1.0000 0.63290  0.18420  0.84970  Biso   1.000  C
  C252     1.0000 0.86710  0.81580  0.34970  Biso   1.000  C
  C253     1.0000 0.86710  0.18420  0.15030  Biso   1.000  C
  C254     1.0000 0.63290  0.81580  0.65030  Biso   1.000  C
  C255     1.0000 0.13290  0.68420  0.34970  Biso   1.000  C
  C256     1.0000 0.36710  0.31580  0.84970  Biso   1.000  C
  H145     1.0000 0.68550  0.30690  0.36930  Biso   1.000  H
  H146     1.0000 0.81450  0.69310  0.86930  Biso   1.000  H
  H147     1.0000 0.31450  0.80690  0.13070  Biso   1.000  H
  H148     1.0000 0.18550  0.19310  0.63070  Biso   1.000  H
  H149     1.0000 0.18550  0.80690  0.86930  Biso   1.000  H
  H150     1.0000 0.31450  0.19310  0.36930  Biso   1.000  H
  H151     1.0000 0.81450  0.30690  0.63070  Biso   1.000  H
  H152     1.0000 0.68550  0.69310  0.13070  Biso   1.000  H
  H153     1.0000 0.31450  0.69310  0.63070  Biso   1.000  H
  H154     1.0000 0.18550  0.30690  0.13070  Biso   1.000  H
  H155     1.0000 0.68550  0.19310  0.86930  Biso   1.000  H
  H156     1.0000 0.81450  0.80690  0.36930  Biso   1.000  H
  H157     1.0000 0.81450  0.19310  0.13070  Biso   1.000  H
  H158     1.0000 0.68550  0.80690  0.63070  Biso   1.000  H
  H159     1.0000 0.18550  0.69310  0.36930  Biso   1.000  H
  H160     1.0000 0.31450  0.30690  0.86930  Biso   1.000  H
  H161     1.0000 0.59730  0.26700  0.34950  Biso   1.000  H
  H162     1.0000 0.90270  0.73300  0.84950  Biso   1.000  H
  H163     1.0000 0.40270  0.76700  0.15050  Biso   1.000  H
  H164     1.0000 0.09730  0.23300  0.65050  Biso   1.000  H
  H165     1.0000 0.09730  0.76700  0.84950  Biso   1.000  H
  H166     1.0000 0.40270  0.23300  0.34950  Biso   1.000  H
  H167     1.0000 0.90270  0.26700  0.65050  Biso   1.000  H
  H168     1.0000 0.59730  0.73300  0.15050  Biso   1.000  H
  H169     1.0000 0.40270  0.73300  0.65050  Biso   1.000  H
  H170     1.0000 0.09730  0.26700  0.15050  Biso   1.000  H
  H171     1.0000 0.59730  0.23300  0.84950  Biso   1.000  H
  H172     1.0000 0.90270  0.76700  0.34950  Biso   1.000  H
  H173     1.0000 0.90270  0.23300  0.15050  Biso   1.000  H
  H174     1.0000 0.59730  0.76700  0.65050  Biso   1.000  H
  H175     1.0000 0.09730  0.73300  0.34950  Biso   1.000  H
  H176     1.0000 0.40270  0.26700  0.84950  Biso   1.000  H
  H177     1.0000 0.59890  0.35970  0.36380  Biso   1.000  H
  H178     1.0000 0.90110  0.64030  0.86380  Biso   1.000  H
  H179     1.0000 0.40110  0.85970  0.13620  Biso   1.000  H
  H180     1.0000 0.09890  0.14030  0.63620  Biso   1.000  H
  H181     1.0000 0.09890  0.85970  0.86380  Biso   1.000  H
  H182     1.0000 0.40110  0.14030  0.36380  Biso   1.000  H
  H183     1.0000 0.90110  0.35970  0.63620  Biso   1.000  H
  H184     1.0000 0.59890  0.64030  0.13620  Biso   1.000  H
  H185     1.0000 0.40110  0.64030  0.63620  Biso   1.000  H
  H186     1.0000 0.09890  0.35970  0.13620  Biso   1.000  H
  H187     1.0000 0.59890  0.14030  0.86380  Biso   1.000  H
  H188     1.0000 0.90110  0.85970  0.36380  Biso   1.000  H
  H189     1.0000 0.90110  0.14030  0.13620  Biso   1.000  H
  H190     1.0000 0.59890  0.85970  0.63620  Biso   1.000  H
  H191     1.0000 0.09890  0.64030  0.36380  Biso   1.000  H
  H192     1.0000 0.40110  0.35970  0.86380  Biso   1.000  H
  O1       1.0000 0.80290  0.56950  0.07202  Biso   1.000  O
  O2       1.0000 0.69710  0.43050  0.57202  Biso   1.000  O
  O3       1.0000 0.19710  0.06950  0.42798  Biso   1.000  O
  O4       1.0000 0.30290  0.93050  0.92798  Biso   1.000  O
  O5       1.0000 0.30290  0.06950  0.57202  Biso   1.000  O
  O6       1.0000 0.19710  0.93050  0.07202  Biso   1.000  O
  O7       1.0000 0.69710  0.56950  0.92798  Biso   1.000  O
  O8       1.0000 0.80290  0.43050  0.42798  Biso   1.000  O
  O9       1.0000 0.19710  0.43050  0.92798  Biso   1.000  O
  O10      1.0000 0.30290  0.56950  0.42798  Biso   1.000  O
  O11      1.0000 0.80290  0.93050  0.57202  Biso   1.000  O
  O12      1.0000 0.69710  0.06950  0.07202  Biso   1.000  O
  O13      1.0000 0.69710  0.93050  0.42798  Biso   1.000  O
  O14      1.0000 0.80290  0.06950  0.92798  Biso   1.000  O
  O15      1.0000 0.30290  0.43050  0.07202  Biso   1.000  O
  O16      1.0000 0.19710  0.56950  0.57202  Biso   1.000  O
  O17      1.0000 0.07890  0.52340  0.12987  Biso   1.000  O
  O18      1.0000 0.42110  0.47660  0.62987  Biso   1.000  O
  O19      1.0000 0.92110  0.02340  0.37013  Biso   1.000  O
  O20      1.0000 0.57890  0.97660  0.87013  Biso   1.000  O
  O21      1.0000 0.57890  0.02340  0.62987  Biso   1.000  O
  O22      1.0000 0.92110  0.97660  0.12987  Biso   1.000  O
  O23      1.0000 0.42110  0.52340  0.87013  Biso   1.000  O
  O24      1.0000 0.07890  0.47660  0.37013  Biso   1.000  O
  O25      1.0000 0.92110  0.47660  0.87013  Biso   1.000  O
  O26      1.0000 0.57890  0.52340  0.37013  Biso   1.000  O
  O27      1.0000 0.07890  0.97660  0.62987  Biso   1.000  O
  O28      1.0000 0.42110  0.02340  0.12987  Biso   1.000  O
  O29      1.0000 0.42110  0.97660  0.37013  Biso   1.000  O
  O30      1.0000 0.07890  0.02340  0.87013  Biso   1.000  O
  O31      1.0000 0.57890  0.47660  0.12987  Biso   1.000  O
  O32      1.0000 0.92110  0.52340  0.62987  Biso   1.000  O
  O33      1.0000 0.83240  0.25555  0.30490  Biso   1.000  O
  O34      1.0000 0.66760  0.74445  0.80490  Biso   1.000  O
  O35      1.0000 0.16760  0.75555  0.19510  Biso   1.000  O
  O36      1.0000 0.33240  0.24445  0.69510  Biso   1.000  O
  O37      1.0000 0.33240  0.75555  0.80490  Biso   1.000  O
  O38      1.0000 0.16760  0.24445  0.30490  Biso   1.000  O
  O39      1.0000 0.66760  0.25555  0.69510  Biso   1.000  O
  O40      1.0000 0.83240  0.74445  0.19510  Biso   1.000  O
  O41      1.0000 0.16760  0.74445  0.69510  Biso   1.000  O
  O42      1.0000 0.33240  0.25555  0.19510  Biso   1.000  O
  O43      1.0000 0.83240  0.24445  0.80490  Biso   1.000  O
  O44      1.0000 0.66760  0.75555  0.30490  Biso   1.000  O
  O45      1.0000 0.66760  0.24445  0.19510  Biso   1.000  O
  O46      1.0000 0.83240  0.75555  0.69510  Biso   1.000  O
  O47      1.0000 0.33240  0.74445  0.30490  Biso   1.000  O
  O48      1.0000 0.16760  0.25555  0.80490  Biso   1.000  O
  O49      1.0000 0.94361  0.17978  0.27732  Biso   1.000  O
  O50      1.0000 0.55639  0.82022  0.77732  Biso   1.000  O
  O51      1.0000 0.05639  0.67978  0.22268  Biso   1.000  O
  O52      1.0000 0.44361  0.32022  0.72268  Biso   1.000  O
  O53      1.0000 0.44361  0.67978  0.77732  Biso   1.000  O
  O54      1.0000 0.05639  0.32022  0.27732  Biso   1.000  O
  O55      1.0000 0.55639  0.17978  0.72268  Biso   1.000  O
  O56      1.0000 0.94361  0.82022  0.22268  Biso   1.000  O
  O57      1.0000 0.05639  0.82022  0.72268  Biso   1.000  O
  O58      1.0000 0.44361  0.17978  0.22268  Biso   1.000  O
  O59      1.0000 0.94361  0.32022  0.77732  Biso   1.000  O
  O60      1.0000 0.55639  0.67978  0.27732  Biso   1.000  O
  O61      1.0000 0.55639  0.32022  0.22268  Biso   1.000  O
  O62      1.0000 0.94361  0.67978  0.72268  Biso   1.000  O
  O63      1.0000 0.44361  0.82022  0.27732  Biso   1.000  O
  O64      1.0000 0.05639  0.17978  0.77732  Biso   1.000  O
  O65      1.0000 0.65700  0.33540  0.30168  Biso   1.000  O
  O66      1.0000 0.84300  0.66460  0.80168  Biso   1.000  O
  O67      1.0000 0.34300  0.83540  0.19832  Biso   1.000  O
  O68      1.0000 0.15700  0.16460  0.69832  Biso   1.000  O
  O69      1.0000 0.15700  0.83540  0.80168  Biso   1.000  O
  O70      1.0000 0.34300  0.16460  0.30168  Biso   1.000  O
  O71      1.0000 0.84300  0.33540  0.69832  Biso   1.000  O
  O72      1.0000 0.65700  0.66460  0.19832  Biso   1.000  O
  O73      1.0000 0.34300  0.66460  0.69832  Biso   1.000  O
  O74      1.0000 0.15700  0.33540  0.19832  Biso   1.000  O
  O75      1.0000 0.65700  0.16460  0.80168  Biso   1.000  O
  O76      1.0000 0.84300  0.83540  0.30168  Biso   1.000  O
  O77      1.0000 0.84300  0.16460  0.19832  Biso   1.000  O
  O78      1.0000 0.65700  0.83540  0.69832  Biso   1.000  O
  O79      1.0000 0.15700  0.66460  0.30168  Biso   1.000  O
  O80      1.0000 0.34300  0.33540  0.80168  Biso   1.000  O
  H193     1.0000 0.65940  0.29350  0.28480  Biso   1.000  H
  H194     1.0000 0.84060  0.70650  0.78480  Biso   1.000  H
  H195     1.0000 0.34060  0.79350  0.21520  Biso   1.000  H
  H196     1.0000 0.15940  0.20650  0.71520  Biso   1.000  H
  H197     1.0000 0.15940  0.79350  0.78480  Biso   1.000  H
  H198     1.0000 0.34060  0.20650  0.28480  Biso   1.000  H
  H199     1.0000 0.84060  0.29350  0.71520  Biso   1.000  H
  H200     1.0000 0.65940  0.70650  0.21520  Biso   1.000  H
  H201     1.0000 0.34060  0.70650  0.71520  Biso   1.000  H
  H202     1.0000 0.15940  0.29350  0.21520  Biso   1.000  H
  H203     1.0000 0.65940  0.20650  0.78480  Biso   1.000  H
  H204     1.0000 0.84060  0.79350  0.28480  Biso   1.000  H
  H205     1.0000 0.84060  0.20650  0.21520  Biso   1.000  H
  H206     1.0000 0.65940  0.79350  0.71520  Biso   1.000  H
  H207     1.0000 0.15940  0.70650  0.28480  Biso   1.000  H
  H208     1.0000 0.34060  0.29350  0.78480  Biso   1.000  H
  O81      1.0000 0.75010  0.16530  0.50000  Biso   1.000  O
  O82      1.0000 0.74990  0.83470  0.00000  Biso   1.000  O
  O83      1.0000 0.24990  0.66530  0.00000  Biso   1.000  O
  O84      1.0000 0.25010  0.33470  0.50000  Biso   1.000  O
  O85      1.0000 0.24990  0.83470  0.50000  Biso   1.000  O
  O86      1.0000 0.25010  0.16530  0.00000  Biso   1.000  O
  O87      1.0000 0.75010  0.33470  0.00000  Biso   1.000  O
  O88      1.0000 0.74990  0.66530  0.50000  Biso   1.000  O
  O89      1.0000 0.81680  0.38230  0.08410  Biso   1.000  O
  O90      1.0000 0.68320  0.61770  0.58410  Biso   1.000  O
  O91      1.0000 0.18320  0.88230  0.41590  Biso   1.000  O
  O92      1.0000 0.31680  0.11770  0.91590  Biso   1.000  O
  O93      1.0000 0.31680  0.88230  0.58410  Biso   1.000  O
  O94      1.0000 0.18320  0.11770  0.08410  Biso   1.000  O
  O95      1.0000 0.68320  0.38230  0.91590  Biso   1.000  O
  O96      1.0000 0.81680  0.61770  0.41590  Biso   1.000  O
  O97      1.0000 0.18320  0.61770  0.91590  Biso   1.000  O
  O98      1.0000 0.31680  0.38230  0.41590  Biso   1.000  O
  O99      1.0000 0.81680  0.11770  0.58410  Biso   1.000  O
  O100     1.0000 0.68320  0.88230  0.08410  Biso   1.000  O
  O101     1.0000 0.68320  0.11770  0.41590  Biso   1.000  O
  O102     1.0000 0.81680  0.88230  0.91590  Biso   1.000  O
  O103     1.0000 0.31680  0.61770  0.08410  Biso   1.000  O
  O104     1.0000 0.18320  0.38230  0.58410  Biso   1.000  O
