data_image0
_cell_length_a       15.2841
_cell_length_b       16.7279
_cell_length_c       27.5547
_cell_angle_alpha    90
_cell_angle_beta     90
_cell_angle_gamma    90

_symmetry_space_group_name_H-M    "P 1"
_symmetry_int_tables_number       1

loop_
  _symmetry_equiv_pos_as_xyz
  'x, y, z'

loop_
  _atom_site_label
  _atom_site_occupancy
  _atom_site_fract_x
  _atom_site_fract_y
  _atom_site_fract_z
  _atom_site_thermal_displace_type
  _atom_site_B_iso_or_equiv
  _atom_site_type_symbol
  Cu1      1.0000 0.25000  0.75000  0.25000  Biso   1.000  Cu
  Cu2      1.0000 0.25000  0.25000  0.75000  Biso   1.000  Cu
  Cu3      1.0000 0.75000  0.25000  0.25000  Biso   1.000  Cu
  Cu4      1.0000 0.75000  0.75000  0.75000  Biso   1.000  Cu
  Cu5      1.0000 0.75000  0.25000  0.75000  Biso   1.000  Cu
  Cu6      1.0000 0.75000  0.75000  0.25000  Biso   1.000  Cu
  Cu7      1.0000 0.25000  0.75000  0.75000  Biso   1.000  Cu
  Cu8      1.0000 0.25000  0.25000  0.25000  Biso   1.000  Cu
  N1       1.0000 0.29960  0.85230  0.22227  Biso   1.000  N
  N2       1.0000 0.20040  0.14770  0.72227  Biso   1.000  N
  N3       1.0000 0.70040  0.35230  0.27773  Biso   1.000  N
  N4       1.0000 0.79960  0.64770  0.77773  Biso   1.000  N
  N5       1.0000 0.79960  0.35230  0.72227  Biso   1.000  N
  N6       1.0000 0.70040  0.64770  0.22227  Biso   1.000  N
  N7       1.0000 0.20040  0.85230  0.77773  Biso   1.000  N
  N8       1.0000 0.29960  0.14770  0.27773  Biso   1.000  N
  N9       1.0000 0.70040  0.14770  0.77773  Biso   1.000  N
  N10      1.0000 0.79960  0.85230  0.27773  Biso   1.000  N
  N11      1.0000 0.29960  0.64770  0.72227  Biso   1.000  N
  N12      1.0000 0.20040  0.35230  0.22227  Biso   1.000  N
  N13      1.0000 0.20040  0.64770  0.27773  Biso   1.000  N
  N14      1.0000 0.29960  0.35230  0.77773  Biso   1.000  N
  N15      1.0000 0.79960  0.14770  0.22227  Biso   1.000  N
  N16      1.0000 0.70040  0.85230  0.72227  Biso   1.000  N
  N17      1.0000 0.43490  0.05290  0.11215  Biso   1.000  N
  N18      1.0000 0.06510  0.94710  0.61215  Biso   1.000  N
  N19      1.0000 0.56510  0.55290  0.38785  Biso   1.000  N
  N20      1.0000 0.93490  0.44710  0.88785  Biso   1.000  N
  N21      1.0000 0.93490  0.55290  0.61215  Biso   1.000  N
  N22      1.0000 0.56510  0.44710  0.11215  Biso   1.000  N
  N23      1.0000 0.06510  0.05290  0.88785  Biso   1.000  N
  N24      1.0000 0.43490  0.94710  0.38785  Biso   1.000  N
  N25      1.0000 0.56510  0.94710  0.88785  Biso   1.000  N
  N26      1.0000 0.93490  0.05290  0.38785  Biso   1.000  N
  N27      1.0000 0.43490  0.44710  0.61215  Biso   1.000  N
  N28      1.0000 0.06510  0.55290  0.11215  Biso   1.000  N
  N29      1.0000 0.06510  0.44710  0.38785  Biso   1.000  N
  N30      1.0000 0.43490  0.55290  0.88785  Biso   1.000  N
  N31      1.0000 0.93490  0.94710  0.11215  Biso   1.000  N
  N32      1.0000 0.56510  0.05290  0.61215  Biso   1.000  N
  C1       1.0000 0.24640  0.91030  0.20621  Biso   1.000  C
  C2       1.0000 0.25360  0.08970  0.70621  Biso   1.000  C
  C3       1.0000 0.75360  0.41030  0.29379  Biso   1.000  C
  C4       1.0000 0.74640  0.58970  0.79379  Biso   1.000  C
  C5       1.0000 0.74640  0.41030  0.70621  Biso   1.000  C
  C6       1.0000 0.75360  0.58970  0.20621  Biso   1.000  C
  C7       1.0000 0.25360  0.91030  0.79379  Biso   1.000  C
  C8       1.0000 0.24640  0.08970  0.29379  Biso   1.000  C
  C9       1.0000 0.75360  0.08970  0.79379  Biso   1.000  C
  C10      1.0000 0.74640  0.91030  0.29379  Biso   1.000  C
  C11      1.0000 0.24640  0.58970  0.70621  Biso   1.000  C
  C12      1.0000 0.25360  0.41030  0.20621  Biso   1.000  C
  C13      1.0000 0.25360  0.58970  0.29379  Biso   1.000  C
  C14      1.0000 0.24640  0.41030  0.79379  Biso   1.000  C
  C15      1.0000 0.74640  0.08970  0.20621  Biso   1.000  C
  C16      1.0000 0.75360  0.91030  0.70621  Biso   1.000  C
  H1       1.0000 0.18490  0.90240  0.20800  Biso   1.000  H
  H2       1.0000 0.31510  0.09760  0.70800  Biso   1.000  H
  H3       1.0000 0.81510  0.40240  0.29200  Biso   1.000  H
  H4       1.0000 0.68490  0.59760  0.79200  Biso   1.000  H
  H5       1.0000 0.68490  0.40240  0.70800  Biso   1.000  H
  H6       1.0000 0.81510  0.59760  0.20800  Biso   1.000  H
  H7       1.0000 0.31510  0.90240  0.79200  Biso   1.000  H
  H8       1.0000 0.18490  0.09760  0.29200  Biso   1.000  H
  H9       1.0000 0.81510  0.09760  0.79200  Biso   1.000  H
  H10      1.0000 0.68490  0.90240  0.29200  Biso   1.000  H
  H11      1.0000 0.18490  0.59760  0.70800  Biso   1.000  H
  H12      1.0000 0.31510  0.40240  0.20800  Biso   1.000  H
  H13      1.0000 0.31510  0.59760  0.29200  Biso   1.000  H
  H14      1.0000 0.18490  0.40240  0.79200  Biso   1.000  H
  H15      1.0000 0.68490  0.09760  0.20800  Biso   1.000  H
  H16      1.0000 0.81510  0.90240  0.70800  Biso   1.000  H
  C17      1.0000 0.27810  0.98200  0.18694  Biso   1.000  C
  C18      1.0000 0.22190  0.01800  0.68694  Biso   1.000  C
  C19      1.0000 0.72190  0.48200  0.31306  Biso   1.000  C
  C20      1.0000 0.77810  0.51800  0.81306  Biso   1.000  C
  C21      1.0000 0.77810  0.48200  0.68694  Biso   1.000  C
  C22      1.0000 0.72190  0.51800  0.18694  Biso   1.000  C
  C23      1.0000 0.22190  0.98200  0.81306  Biso   1.000  C
  C24      1.0000 0.27810  0.01800  0.31306  Biso   1.000  C
  C25      1.0000 0.72190  0.01800  0.81306  Biso   1.000  C
  C26      1.0000 0.77810  0.98200  0.31306  Biso   1.000  C
  C27      1.0000 0.27810  0.51800  0.68694  Biso   1.000  C
  C28      1.0000 0.22190  0.48200  0.18694  Biso   1.000  C
  C29      1.0000 0.22190  0.51800  0.31306  Biso   1.000  C
  C30      1.0000 0.27810  0.48200  0.81306  Biso   1.000  C
  C31      1.0000 0.77810  0.01800  0.18694  Biso   1.000  C
  C32      1.0000 0.72190  0.98200  0.68694  Biso   1.000  C
  H17      1.0000 0.23890  0.02250  0.17640  Biso   1.000  H
  H18      1.0000 0.26110  0.97750  0.67640  Biso   1.000  H
  H19      1.0000 0.76110  0.52250  0.32360  Biso   1.000  H
  H20      1.0000 0.73890  0.47750  0.82360  Biso   1.000  H
  H21      1.0000 0.73890  0.52250  0.67640  Biso   1.000  H
  H22      1.0000 0.76110  0.47750  0.17640  Biso   1.000  H
  H23      1.0000 0.26110  0.02250  0.82360  Biso   1.000  H
  H24      1.0000 0.23890  0.97750  0.32360  Biso   1.000  H
  H25      1.0000 0.76110  0.97750  0.82360  Biso   1.000  H
  H26      1.0000 0.73890  0.02250  0.32360  Biso   1.000  H
  H27      1.0000 0.23890  0.47750  0.67640  Biso   1.000  H
  H28      1.0000 0.26110  0.52250  0.17640  Biso   1.000  H
  H29      1.0000 0.26110  0.47750  0.32360  Biso   1.000  H
  H30      1.0000 0.23890  0.52250  0.82360  Biso   1.000  H
  H31      1.0000 0.73890  0.97750  0.17640  Biso   1.000  H
  H32      1.0000 0.76110  0.02250  0.67640  Biso   1.000  H
  C33      1.0000 0.36720  0.99280  0.18353  Biso   1.000  C
  C34      1.0000 0.13280  0.00720  0.68353  Biso   1.000  C
  C35      1.0000 0.63280  0.49280  0.31647  Biso   1.000  C
  C36      1.0000 0.86720  0.50720  0.81647  Biso   1.000  C
  C37      1.0000 0.86720  0.49280  0.68353  Biso   1.000  C
  C38      1.0000 0.63280  0.50720  0.18353  Biso   1.000  C
  C39      1.0000 0.13280  0.99280  0.81647  Biso   1.000  C
  C40      1.0000 0.36720  0.00720  0.31647  Biso   1.000  C
  C41      1.0000 0.63280  0.00720  0.81647  Biso   1.000  C
  C42      1.0000 0.86720  0.99280  0.31647  Biso   1.000  C
  C43      1.0000 0.36720  0.50720  0.68353  Biso   1.000  C
  C44      1.0000 0.13280  0.49280  0.18353  Biso   1.000  C
  C45      1.0000 0.13280  0.50720  0.31647  Biso   1.000  C
  C46      1.0000 0.36720  0.49280  0.81647  Biso   1.000  C
  C47      1.0000 0.86720  0.00720  0.18353  Biso   1.000  C
  C48      1.0000 0.63280  0.99280  0.68353  Biso   1.000  C
  C49      1.0000 0.42230  0.93330  0.20050  Biso   1.000  C
  C50      1.0000 0.07770  0.06670  0.70050  Biso   1.000  C
  C51      1.0000 0.57770  0.43330  0.29950  Biso   1.000  C
  C52      1.0000 0.92230  0.56670  0.79950  Biso   1.000  C
  C53      1.0000 0.92230  0.43330  0.70050  Biso   1.000  C
  C54      1.0000 0.57770  0.56670  0.20050  Biso   1.000  C
  C55      1.0000 0.07770  0.93330  0.79950  Biso   1.000  C
  C56      1.0000 0.42230  0.06670  0.29950  Biso   1.000  C
  C57      1.0000 0.57770  0.06670  0.79950  Biso   1.000  C
  C58      1.0000 0.92230  0.93330  0.29950  Biso   1.000  C
  C59      1.0000 0.42230  0.56670  0.70050  Biso   1.000  C
  C60      1.0000 0.07770  0.43330  0.20050  Biso   1.000  C
  C61      1.0000 0.07770  0.56670  0.29950  Biso   1.000  C
  C62      1.0000 0.42230  0.43330  0.79950  Biso   1.000  C
  C63      1.0000 0.92230  0.06670  0.20050  Biso   1.000  C
  C64      1.0000 0.57770  0.93330  0.70050  Biso   1.000  C
  H33      1.0000 0.48410  0.93980  0.19920  Biso   1.000  H
  H34      1.0000 0.01590  0.06020  0.69920  Biso   1.000  H
  H35      1.0000 0.51590  0.43980  0.30080  Biso   1.000  H
  H36      1.0000 0.98410  0.56020  0.80080  Biso   1.000  H
  H37      1.0000 0.98410  0.43980  0.69920  Biso   1.000  H
  H38      1.0000 0.51590  0.56020  0.19920  Biso   1.000  H
  H39      1.0000 0.01590  0.93980  0.80080  Biso   1.000  H
  H40      1.0000 0.48410  0.06020  0.30080  Biso   1.000  H
  H41      1.0000 0.51590  0.06020  0.80080  Biso   1.000  H
  H42      1.0000 0.98410  0.93980  0.30080  Biso   1.000  H
  H43      1.0000 0.48410  0.56020  0.69920  Biso   1.000  H
  H44      1.0000 0.01590  0.43980  0.19920  Biso   1.000  H
  H45      1.0000 0.01590  0.56020  0.30080  Biso   1.000  H
  H46      1.0000 0.48410  0.43980  0.80080  Biso   1.000  H
  H47      1.0000 0.98410  0.06020  0.19920  Biso   1.000  H
  H48      1.0000 0.51590  0.93980  0.69920  Biso   1.000  H
  C65      1.0000 0.38540  0.86370  0.21953  Biso   1.000  C
  C66      1.0000 0.11460  0.13630  0.71953  Biso   1.000  C
  C67      1.0000 0.61460  0.36370  0.28047  Biso   1.000  C
  C68      1.0000 0.88540  0.63630  0.78047  Biso   1.000  C
  C69      1.0000 0.88540  0.36370  0.71953  Biso   1.000  C
  C70      1.0000 0.61460  0.63630  0.21953  Biso   1.000  C
  C71      1.0000 0.11460  0.86370  0.78047  Biso   1.000  C
  C72      1.0000 0.38540  0.13630  0.28047  Biso   1.000  C
  C73      1.0000 0.61460  0.13630  0.78047  Biso   1.000  C
  C74      1.0000 0.88540  0.86370  0.28047  Biso   1.000  C
  C75      1.0000 0.38540  0.63630  0.71953  Biso   1.000  C
  C76      1.0000 0.11460  0.36370  0.21953  Biso   1.000  C
  C77      1.0000 0.11460  0.63630  0.28047  Biso   1.000  C
  C78      1.0000 0.38540  0.36370  0.78047  Biso   1.000  C
  C79      1.0000 0.88540  0.13630  0.21953  Biso   1.000  C
  C80      1.0000 0.61460  0.86370  0.71953  Biso   1.000  C
  H49      1.0000 0.42320  0.82280  0.23100  Biso   1.000  H
  H50      1.0000 0.07680  0.17720  0.73100  Biso   1.000  H
  H51      1.0000 0.57680  0.32280  0.26900  Biso   1.000  H
  H52      1.0000 0.92320  0.67720  0.76900  Biso   1.000  H
  H53      1.0000 0.92320  0.32280  0.73100  Biso   1.000  H
  H54      1.0000 0.57680  0.67720  0.23100  Biso   1.000  H
  H55      1.0000 0.07680  0.82280  0.76900  Biso   1.000  H
  H56      1.0000 0.42320  0.17720  0.26900  Biso   1.000  H
  H57      1.0000 0.57680  0.17720  0.76900  Biso   1.000  H
  H58      1.0000 0.92320  0.82280  0.26900  Biso   1.000  H
  H59      1.0000 0.42320  0.67720  0.73100  Biso   1.000  H
  H60      1.0000 0.07680  0.32280  0.23100  Biso   1.000  H
  H61      1.0000 0.07680  0.67720  0.26900  Biso   1.000  H
  H62      1.0000 0.42320  0.32280  0.76900  Biso   1.000  H
  H63      1.0000 0.92320  0.17720  0.23100  Biso   1.000  H
  H64      1.0000 0.57680  0.82280  0.73100  Biso   1.000  H
  C81      1.0000 0.40440  0.06870  0.16154  Biso   1.000  C
  C82      1.0000 0.09560  0.93130  0.66154  Biso   1.000  C
  C83      1.0000 0.59560  0.56870  0.33846  Biso   1.000  C
  C84      1.0000 0.90440  0.43130  0.83846  Biso   1.000  C
  C85      1.0000 0.90440  0.56870  0.66154  Biso   1.000  C
  C86      1.0000 0.59560  0.43130  0.16154  Biso   1.000  C
  C87      1.0000 0.09560  0.06870  0.83846  Biso   1.000  C
  C88      1.0000 0.40440  0.93130  0.33846  Biso   1.000  C
  C89      1.0000 0.59560  0.93130  0.83846  Biso   1.000  C
  C90      1.0000 0.90440  0.06870  0.33846  Biso   1.000  C
  C91      1.0000 0.40440  0.43130  0.66154  Biso   1.000  C
  C92      1.0000 0.09560  0.56870  0.16154  Biso   1.000  C
  C93      1.0000 0.09560  0.43130  0.33846  Biso   1.000  C
  C94      1.0000 0.40440  0.56870  0.83846  Biso   1.000  C
  C95      1.0000 0.90440  0.93130  0.16154  Biso   1.000  C
  C96      1.0000 0.59560  0.06870  0.66154  Biso   1.000  C
  H65      1.0000 0.35890  0.11080  0.16090  Biso   1.000  H
  H66      1.0000 0.14110  0.88920  0.66090  Biso   1.000  H
  H67      1.0000 0.64110  0.61080  0.33910  Biso   1.000  H
  H68      1.0000 0.85890  0.38920  0.83910  Biso   1.000  H
  H69      1.0000 0.85890  0.61080  0.66090  Biso   1.000  H
  H70      1.0000 0.64110  0.38920  0.16090  Biso   1.000  H
  H71      1.0000 0.14110  0.11080  0.83910  Biso   1.000  H
  H72      1.0000 0.35890  0.88920  0.33910  Biso   1.000  H
  H73      1.0000 0.64110  0.88920  0.83910  Biso   1.000  H
  H74      1.0000 0.85890  0.11080  0.33910  Biso   1.000  H
  H75      1.0000 0.35890  0.38920  0.66090  Biso   1.000  H
  H76      1.0000 0.14110  0.61080  0.16090  Biso   1.000  H
  H77      1.0000 0.14110  0.38920  0.33910  Biso   1.000  H
  H78      1.0000 0.35890  0.61080  0.83910  Biso   1.000  H
  H79      1.0000 0.85890  0.88920  0.16090  Biso   1.000  H
  H80      1.0000 0.64110  0.11080  0.66090  Biso   1.000  H
  H81      1.0000 0.45380  0.08810  0.18160  Biso   1.000  H
  H82      1.0000 0.04620  0.91190  0.68160  Biso   1.000  H
  H83      1.0000 0.54620  0.58810  0.31840  Biso   1.000  H
  H84      1.0000 0.95380  0.41190  0.81840  Biso   1.000  H
  H85      1.0000 0.95380  0.58810  0.68160  Biso   1.000  H
  H86      1.0000 0.54620  0.41190  0.18160  Biso   1.000  H
  H87      1.0000 0.04620  0.08810  0.81840  Biso   1.000  H
  H88      1.0000 0.45380  0.91190  0.31840  Biso   1.000  H
  H89      1.0000 0.54620  0.91190  0.81840  Biso   1.000  H
  H90      1.0000 0.95380  0.08810  0.31840  Biso   1.000  H
  H91      1.0000 0.45380  0.41190  0.68160  Biso   1.000  H
  H92      1.0000 0.04620  0.58810  0.18160  Biso   1.000  H
  H93      1.0000 0.04620  0.41190  0.31840  Biso   1.000  H
  H94      1.0000 0.45380  0.58810  0.81840  Biso   1.000  H
  H95      1.0000 0.95380  0.91190  0.18160  Biso   1.000  H
  H96      1.0000 0.54620  0.08810  0.68160  Biso   1.000  H
  C97      1.0000 0.51990  0.02930  0.10059  Biso   1.000  C
  C98      1.0000 0.98010  0.97070  0.60059  Biso   1.000  C
  C99      1.0000 0.48010  0.52930  0.39941  Biso   1.000  C
  C100     1.0000 0.01990  0.47070  0.89941  Biso   1.000  C
  C101     1.0000 0.01990  0.52930  0.60059  Biso   1.000  C
  C102     1.0000 0.48010  0.47070  0.10059  Biso   1.000  C
  C103     1.0000 0.98010  0.02930  0.89941  Biso   1.000  C
  C104     1.0000 0.51990  0.97070  0.39941  Biso   1.000  C
  C105     1.0000 0.48010  0.97070  0.89941  Biso   1.000  C
  C106     1.0000 0.01990  0.02930  0.39941  Biso   1.000  C
  C107     1.0000 0.51990  0.47070  0.60059  Biso   1.000  C
  C108     1.0000 0.98010  0.52930  0.10059  Biso   1.000  C
  C109     1.0000 0.98010  0.47070  0.39941  Biso   1.000  C
  C110     1.0000 0.51990  0.52930  0.89941  Biso   1.000  C
  C111     1.0000 0.01990  0.97070  0.10059  Biso   1.000  C
  C112     1.0000 0.48010  0.02930  0.60059  Biso   1.000  C
  C113     1.0000 0.51940  0.01250  0.04701  Biso   1.000  C
  C114     1.0000 0.98060  0.98750  0.54701  Biso   1.000  C
  C115     1.0000 0.48060  0.51250  0.45299  Biso   1.000  C
  C116     1.0000 0.01940  0.48750  0.95299  Biso   1.000  C
  C117     1.0000 0.01940  0.51250  0.54701  Biso   1.000  C
  C118     1.0000 0.48060  0.48750  0.04701  Biso   1.000  C
  C119     1.0000 0.98060  0.01250  0.95299  Biso   1.000  C
  C120     1.0000 0.51940  0.98750  0.45299  Biso   1.000  C
  C121     1.0000 0.48060  0.98750  0.95299  Biso   1.000  C
  C122     1.0000 0.01940  0.01250  0.45299  Biso   1.000  C
  C123     1.0000 0.51940  0.48750  0.54701  Biso   1.000  C
  C124     1.0000 0.98060  0.51250  0.04701  Biso   1.000  C
  C125     1.0000 0.98060  0.48750  0.45299  Biso   1.000  C
  C126     1.0000 0.51940  0.51250  0.95299  Biso   1.000  C
  C127     1.0000 0.01940  0.98750  0.04701  Biso   1.000  C
  C128     1.0000 0.48060  0.01250  0.54701  Biso   1.000  C
  C129     1.0000 0.43530  0.02620  0.03015  Biso   1.000  C
  C130     1.0000 0.06470  0.97380  0.53015  Biso   1.000  C
  C131     1.0000 0.56470  0.52620  0.46985  Biso   1.000  C
  C132     1.0000 0.93530  0.47380  0.96985  Biso   1.000  C
  C133     1.0000 0.93530  0.52620  0.53015  Biso   1.000  C
  C134     1.0000 0.56470  0.47380  0.03015  Biso   1.000  C
  C135     1.0000 0.06470  0.02620  0.96985  Biso   1.000  C
  C136     1.0000 0.43530  0.97380  0.46985  Biso   1.000  C
  C137     1.0000 0.56470  0.97380  0.96985  Biso   1.000  C
  C138     1.0000 0.93530  0.02620  0.46985  Biso   1.000  C
  C139     1.0000 0.43530  0.47380  0.53015  Biso   1.000  C
  C140     1.0000 0.06470  0.52620  0.03015  Biso   1.000  C
  C141     1.0000 0.06470  0.47380  0.46985  Biso   1.000  C
  C142     1.0000 0.43530  0.52620  0.96985  Biso   1.000  C
  C143     1.0000 0.93530  0.97380  0.03015  Biso   1.000  C
  C144     1.0000 0.56470  0.02620  0.53015  Biso   1.000  C
  C145     1.0000 0.38050  0.05220  0.07187  Biso   1.000  C
  C146     1.0000 0.11950  0.94780  0.57187  Biso   1.000  C
  C147     1.0000 0.61950  0.55220  0.42813  Biso   1.000  C
  C148     1.0000 0.88050  0.44780  0.92813  Biso   1.000  C
  C149     1.0000 0.88050  0.55220  0.57187  Biso   1.000  C
  C150     1.0000 0.61950  0.44780  0.07187  Biso   1.000  C
  C151     1.0000 0.11950  0.05220  0.92813  Biso   1.000  C
  C152     1.0000 0.38050  0.94780  0.42813  Biso   1.000  C
  C153     1.0000 0.61950  0.94780  0.92813  Biso   1.000  C
  C154     1.0000 0.88050  0.05220  0.42813  Biso   1.000  C
  C155     1.0000 0.38050  0.44780  0.57187  Biso   1.000  C
  C156     1.0000 0.11950  0.55220  0.07187  Biso   1.000  C
  C157     1.0000 0.11950  0.44780  0.42813  Biso   1.000  C
  C158     1.0000 0.38050  0.55220  0.92813  Biso   1.000  C
  C159     1.0000 0.88050  0.94780  0.07187  Biso   1.000  C
  C160     1.0000 0.61950  0.05220  0.57187  Biso   1.000  C
  C161     1.0000 0.58690  0.98600  0.01829  Biso   1.000  C
  C162     1.0000 0.91310  0.01400  0.51829  Biso   1.000  C
  C163     1.0000 0.41310  0.48600  0.48171  Biso   1.000  C
  C164     1.0000 0.08690  0.51400  0.98171  Biso   1.000  C
  C165     1.0000 0.08690  0.48600  0.51829  Biso   1.000  C
  C166     1.0000 0.41310  0.51400  0.01829  Biso   1.000  C
  C167     1.0000 0.91310  0.98600  0.98171  Biso   1.000  C
  C168     1.0000 0.58690  0.01400  0.48171  Biso   1.000  C
  C169     1.0000 0.41310  0.01400  0.98171  Biso   1.000  C
  C170     1.0000 0.08690  0.98600  0.48171  Biso   1.000  C
  C171     1.0000 0.58690  0.51400  0.51829  Biso   1.000  C
  C172     1.0000 0.91310  0.48600  0.01829  Biso   1.000  C
  C173     1.0000 0.91310  0.51400  0.48171  Biso   1.000  C
  C174     1.0000 0.58690  0.48600  0.98171  Biso   1.000  C
  C175     1.0000 0.08690  0.01400  0.01829  Biso   1.000  C
  C176     1.0000 0.41310  0.98600  0.51829  Biso   1.000  C
  H97      1.0000 0.64410  0.97680  0.03050  Biso   1.000  H
  H98      1.0000 0.85590  0.02320  0.53050  Biso   1.000  H
  H99      1.0000 0.35590  0.47680  0.46950  Biso   1.000  H
  H100     1.0000 0.14410  0.52320  0.96950  Biso   1.000  H
  H101     1.0000 0.14410  0.47680  0.53050  Biso   1.000  H
  H102     1.0000 0.35590  0.52320  0.03050  Biso   1.000  H
  H103     1.0000 0.85590  0.97680  0.96950  Biso   1.000  H
  H104     1.0000 0.64410  0.02320  0.46950  Biso   1.000  H
  H105     1.0000 0.35590  0.02320  0.96950  Biso   1.000  H
  H106     1.0000 0.14410  0.97680  0.46950  Biso   1.000  H
  H107     1.0000 0.64410  0.52320  0.53050  Biso   1.000  H
  H108     1.0000 0.85590  0.47680  0.03050  Biso   1.000  H
  H109     1.0000 0.85590  0.52320  0.46950  Biso   1.000  H
  H110     1.0000 0.64410  0.47680  0.96950  Biso   1.000  H
  H111     1.0000 0.14410  0.02320  0.03050  Biso   1.000  H
  H112     1.0000 0.35590  0.97680  0.53050  Biso   1.000  H
  C177     1.0000 0.40890  0.72380  0.30873  Biso   1.000  C
  C178     1.0000 0.09110  0.27620  0.80873  Biso   1.000  C
  C179     1.0000 0.59110  0.22380  0.19127  Biso   1.000  C
  C180     1.0000 0.90890  0.77620  0.69127  Biso   1.000  C
  C181     1.0000 0.90890  0.22380  0.80873  Biso   1.000  C
  C182     1.0000 0.59110  0.77620  0.30873  Biso   1.000  C
  C183     1.0000 0.09110  0.72380  0.69127  Biso   1.000  C
  C184     1.0000 0.40890  0.27620  0.19127  Biso   1.000  C
  C185     1.0000 0.59110  0.27620  0.69127  Biso   1.000  C
  C186     1.0000 0.90890  0.72380  0.19127  Biso   1.000  C
  C187     1.0000 0.40890  0.77620  0.80873  Biso   1.000  C
  C188     1.0000 0.09110  0.22380  0.30873  Biso   1.000  C
  C189     1.0000 0.09110  0.77620  0.19127  Biso   1.000  C
  C190     1.0000 0.40890  0.22380  0.69127  Biso   1.000  C
  C191     1.0000 0.90890  0.27620  0.30873  Biso   1.000  C
  C192     1.0000 0.59110  0.72380  0.80873  Biso   1.000  C
  C193     1.0000 0.45540  0.74000  0.35479  Biso   1.000  C
  C194     1.0000 0.04460  0.26000  0.85479  Biso   1.000  C
  C195     1.0000 0.54460  0.24000  0.14521  Biso   1.000  C
  C196     1.0000 0.95540  0.76000  0.64521  Biso   1.000  C
  C197     1.0000 0.95540  0.24000  0.85479  Biso   1.000  C
  C198     1.0000 0.54460  0.76000  0.35479  Biso   1.000  C
  C199     1.0000 0.04460  0.74000  0.64521  Biso   1.000  C
  C200     1.0000 0.45540  0.26000  0.14521  Biso   1.000  C
  C201     1.0000 0.54460  0.26000  0.64521  Biso   1.000  C
  C202     1.0000 0.95540  0.74000  0.14521  Biso   1.000  C
  C203     1.0000 0.45540  0.76000  0.85479  Biso   1.000  C
  C204     1.0000 0.04460  0.24000  0.35479  Biso   1.000  C
  C205     1.0000 0.04460  0.76000  0.14521  Biso   1.000  C
  C206     1.0000 0.45540  0.24000  0.64521  Biso   1.000  C
  C207     1.0000 0.95540  0.26000  0.35479  Biso   1.000  C
  C208     1.0000 0.54460  0.74000  0.85479  Biso   1.000  C
  C209     1.0000 0.41250  0.73100  0.39894  Biso   1.000  C
  C210     1.0000 0.08750  0.26900  0.89894  Biso   1.000  C
  C211     1.0000 0.58750  0.23100  0.10106  Biso   1.000  C
  C212     1.0000 0.91250  0.76900  0.60106  Biso   1.000  C
  C213     1.0000 0.91250  0.23100  0.89894  Biso   1.000  C
  C214     1.0000 0.58750  0.76900  0.39894  Biso   1.000  C
  C215     1.0000 0.08750  0.73100  0.60106  Biso   1.000  C
  C216     1.0000 0.41250  0.26900  0.10106  Biso   1.000  C
  C217     1.0000 0.58750  0.26900  0.60106  Biso   1.000  C
  C218     1.0000 0.91250  0.73100  0.10106  Biso   1.000  C
  C219     1.0000 0.41250  0.76900  0.89894  Biso   1.000  C
  C220     1.0000 0.08750  0.23100  0.39894  Biso   1.000  C
  C221     1.0000 0.08750  0.76900  0.10106  Biso   1.000  C
  C222     1.0000 0.41250  0.23100  0.60106  Biso   1.000  C
  C223     1.0000 0.91250  0.26900  0.39894  Biso   1.000  C
  C224     1.0000 0.58750  0.73100  0.89894  Biso   1.000  C
  H113     1.0000 0.35200  0.71820  0.39920  Biso   1.000  H
  H114     1.0000 0.14800  0.28180  0.89920  Biso   1.000  H
  H115     1.0000 0.64800  0.21820  0.10080  Biso   1.000  H
  H116     1.0000 0.85200  0.78180  0.60080  Biso   1.000  H
  H117     1.0000 0.85200  0.21820  0.89920  Biso   1.000  H
  H118     1.0000 0.64800  0.78180  0.39920  Biso   1.000  H
  H119     1.0000 0.14800  0.71820  0.60080  Biso   1.000  H
  H120     1.0000 0.35200  0.28180  0.10080  Biso   1.000  H
  H121     1.0000 0.64800  0.28180  0.60080  Biso   1.000  H
  H122     1.0000 0.85200  0.71820  0.10080  Biso   1.000  H
  H123     1.0000 0.35200  0.78180  0.89920  Biso   1.000  H
  H124     1.0000 0.14800  0.21820  0.39920  Biso   1.000  H
  H125     1.0000 0.14800  0.78180  0.10080  Biso   1.000  H
  H126     1.0000 0.35200  0.21820  0.60080  Biso   1.000  H
  H127     1.0000 0.85200  0.28180  0.39920  Biso   1.000  H
  H128     1.0000 0.64800  0.71820  0.89920  Biso   1.000  H
  C225     1.0000 0.45650  0.74030  0.44290  Biso   1.000  C
  C226     1.0000 0.04350  0.25970  0.94290  Biso   1.000  C
  C227     1.0000 0.54350  0.24030  0.05710  Biso   1.000  C
  C228     1.0000 0.95650  0.75970  0.55710  Biso   1.000  C
  C229     1.0000 0.95650  0.24030  0.94290  Biso   1.000  C
  C230     1.0000 0.54350  0.75970  0.44290  Biso   1.000  C
  C231     1.0000 0.04350  0.74030  0.55710  Biso   1.000  C
  C232     1.0000 0.45650  0.25970  0.05710  Biso   1.000  C
  C233     1.0000 0.54350  0.25970  0.55710  Biso   1.000  C
  C234     1.0000 0.95650  0.74030  0.05710  Biso   1.000  C
  C235     1.0000 0.45650  0.75970  0.94290  Biso   1.000  C
  C236     1.0000 0.04350  0.24030  0.44290  Biso   1.000  C
  C237     1.0000 0.04350  0.75970  0.05710  Biso   1.000  C
  C238     1.0000 0.45650  0.24030  0.55710  Biso   1.000  C
  C239     1.0000 0.95650  0.25970  0.44290  Biso   1.000  C
  C240     1.0000 0.54350  0.74030  0.94290  Biso   1.000  C
  H129     1.0000 0.42630  0.73310  0.47270  Biso   1.000  H
  H130     1.0000 0.07370  0.26690  0.97270  Biso   1.000  H
  H131     1.0000 0.57370  0.23310  0.02730  Biso   1.000  H
  H132     1.0000 0.92630  0.76690  0.52730  Biso   1.000  H
  H133     1.0000 0.92630  0.23310  0.97270  Biso   1.000  H
  H134     1.0000 0.57370  0.76690  0.47270  Biso   1.000  H
  H135     1.0000 0.07370  0.73310  0.52730  Biso   1.000  H
  H136     1.0000 0.42630  0.26690  0.02730  Biso   1.000  H
  H137     1.0000 0.57370  0.26690  0.52730  Biso   1.000  H
  H138     1.0000 0.92630  0.73310  0.02730  Biso   1.000  H
  H139     1.0000 0.42630  0.76690  0.97270  Biso   1.000  H
  H140     1.0000 0.07370  0.23310  0.47270  Biso   1.000  H
  H141     1.0000 0.07370  0.76690  0.02730  Biso   1.000  H
  H142     1.0000 0.42630  0.23310  0.52730  Biso   1.000  H
  H143     1.0000 0.92630  0.26690  0.47270  Biso   1.000  H
  H144     1.0000 0.57370  0.73310  0.97270  Biso   1.000  H
  O1       1.0000 0.30310  0.06900  0.07220  Biso   1.000  O
  O2       1.0000 0.19690  0.93100  0.57220  Biso   1.000  O
  O3       1.0000 0.69690  0.56900  0.42780  Biso   1.000  O
  O4       1.0000 0.80310  0.43100  0.92780  Biso   1.000  O
  O5       1.0000 0.80310  0.56900  0.57220  Biso   1.000  O
  O6       1.0000 0.69690  0.43100  0.07220  Biso   1.000  O
  O7       1.0000 0.19690  0.06900  0.92780  Biso   1.000  O
  O8       1.0000 0.30310  0.93100  0.42780  Biso   1.000  O
  O9       1.0000 0.69690  0.93100  0.92780  Biso   1.000  O
  O10      1.0000 0.80310  0.06900  0.42780  Biso   1.000  O
  O11      1.0000 0.30310  0.43100  0.57220  Biso   1.000  O
  O12      1.0000 0.19690  0.56900  0.07220  Biso   1.000  O
  O13      1.0000 0.19690  0.43100  0.42780  Biso   1.000  O
  O14      1.0000 0.30310  0.56900  0.92780  Biso   1.000  O
  O15      1.0000 0.80310  0.93100  0.07220  Biso   1.000  O
  O16      1.0000 0.69690  0.06900  0.57220  Biso   1.000  O
  O17      1.0000 0.57960  0.02340  0.12899  Biso   1.000  O
  O18      1.0000 0.92040  0.97660  0.62899  Biso   1.000  O
  O19      1.0000 0.42040  0.52340  0.37101  Biso   1.000  O
  O20      1.0000 0.07960  0.47660  0.87101  Biso   1.000  O
  O21      1.0000 0.07960  0.52340  0.62899  Biso   1.000  O
  O22      1.0000 0.42040  0.47660  0.12899  Biso   1.000  O
  O23      1.0000 0.92040  0.02340  0.87101  Biso   1.000  O
  O24      1.0000 0.57960  0.97660  0.37101  Biso   1.000  O
  O25      1.0000 0.42040  0.97660  0.87101  Biso   1.000  O
  O26      1.0000 0.07960  0.02340  0.37101  Biso   1.000  O
  O27      1.0000 0.57960  0.47660  0.62899  Biso   1.000  O
  O28      1.0000 0.92040  0.52340  0.12899  Biso   1.000  O
  O29      1.0000 0.92040  0.47660  0.37101  Biso   1.000  O
  O30      1.0000 0.57960  0.52340  0.87101  Biso   1.000  O
  O31      1.0000 0.07960  0.97660  0.12899  Biso   1.000  O
  O32      1.0000 0.42040  0.02340  0.62899  Biso   1.000  O
  O33      1.0000 0.33280  0.75580  0.30488  Biso   1.000  O
  O34      1.0000 0.16720  0.24420  0.80488  Biso   1.000  O
  O35      1.0000 0.66720  0.25580  0.19512  Biso   1.000  O
  O36      1.0000 0.83280  0.74420  0.69512  Biso   1.000  O
  O37      1.0000 0.83280  0.25580  0.80488  Biso   1.000  O
  O38      1.0000 0.66720  0.74420  0.30488  Biso   1.000  O
  O39      1.0000 0.16720  0.75580  0.69512  Biso   1.000  O
  O40      1.0000 0.33280  0.24420  0.19512  Biso   1.000  O
  O41      1.0000 0.66720  0.24420  0.69512  Biso   1.000  O
  O42      1.0000 0.83280  0.75580  0.19512  Biso   1.000  O
  O43      1.0000 0.33280  0.74420  0.80488  Biso   1.000  O
  O44      1.0000 0.16720  0.25580  0.30488  Biso   1.000  O
  O45      1.0000 0.16720  0.74420  0.19512  Biso   1.000  O
  O46      1.0000 0.33280  0.25580  0.69512  Biso   1.000  O
  O47      1.0000 0.83280  0.24420  0.30488  Biso   1.000  O
  O48      1.0000 0.66720  0.75580  0.80488  Biso   1.000  O
  O49      1.0000 0.44310  0.68020  0.27745  Biso   1.000  O
  O50      1.0000 0.05690  0.31980  0.77745  Biso   1.000  O
  O51      1.0000 0.55690  0.18020  0.22255  Biso   1.000  O
  O52      1.0000 0.94310  0.81980  0.72255  Biso   1.000  O
  O53      1.0000 0.94310  0.18020  0.77745  Biso   1.000  O
  O54      1.0000 0.55690  0.81980  0.27745  Biso   1.000  O
  O55      1.0000 0.05690  0.68020  0.72255  Biso   1.000  O
  O56      1.0000 0.44310  0.31980  0.22255  Biso   1.000  O
  O57      1.0000 0.55690  0.31980  0.72255  Biso   1.000  O
  O58      1.0000 0.94310  0.68020  0.22255  Biso   1.000  O
  O59      1.0000 0.44310  0.81980  0.77745  Biso   1.000  O
  O60      1.0000 0.05690  0.18020  0.27745  Biso   1.000  O
  O61      1.0000 0.05690  0.81980  0.22255  Biso   1.000  O
  O62      1.0000 0.44310  0.18020  0.72255  Biso   1.000  O
  O63      1.0000 0.94310  0.31980  0.27745  Biso   1.000  O
  O64      1.0000 0.55690  0.68020  0.77745  Biso   1.000  O
  O65      1.0000 0.15850  0.83540  0.30121  Biso   1.000  O
  O66      1.0000 0.34150  0.16460  0.80121  Biso   1.000  O
  O67      1.0000 0.84150  0.33540  0.19879  Biso   1.000  O
  O68      1.0000 0.65850  0.66460  0.69879  Biso   1.000  O
  O69      1.0000 0.65850  0.33540  0.80121  Biso   1.000  O
  O70      1.0000 0.84150  0.66460  0.30121  Biso   1.000  O
  O71      1.0000 0.34150  0.83540  0.69879  Biso   1.000  O
  O72      1.0000 0.15850  0.16460  0.19879  Biso   1.000  O
  O73      1.0000 0.84150  0.16460  0.69879  Biso   1.000  O
  O74      1.0000 0.65850  0.83540  0.19879  Biso   1.000  O
  O75      1.0000 0.15850  0.66460  0.80121  Biso   1.000  O
  O76      1.0000 0.34150  0.33540  0.30121  Biso   1.000  O
  O77      1.0000 0.34150  0.66460  0.19879  Biso   1.000  O
  O78      1.0000 0.15850  0.33540  0.69879  Biso   1.000  O
  O79      1.0000 0.65850  0.16460  0.30121  Biso   1.000  O
  O80      1.0000 0.84150  0.83540  0.80121  Biso   1.000  O
  H145     1.0000 0.11540  0.83470  0.28230  Biso   1.000  H
  H146     1.0000 0.38460  0.16530  0.78230  Biso   1.000  H
  H147     1.0000 0.88460  0.33470  0.21770  Biso   1.000  H
  H148     1.0000 0.61540  0.66530  0.71770  Biso   1.000  H
  H149     1.0000 0.61540  0.33470  0.78230  Biso   1.000  H
  H150     1.0000 0.88460  0.66530  0.28230  Biso   1.000  H
  H151     1.0000 0.38460  0.83470  0.71770  Biso   1.000  H
  H152     1.0000 0.11540  0.16530  0.21770  Biso   1.000  H
  H153     1.0000 0.88460  0.16530  0.71770  Biso   1.000  H
  H154     1.0000 0.61540  0.83470  0.21770  Biso   1.000  H
  H155     1.0000 0.11540  0.66530  0.78230  Biso   1.000  H
  H156     1.0000 0.38460  0.33470  0.28230  Biso   1.000  H
  H157     1.0000 0.38460  0.66530  0.21770  Biso   1.000  H
  H158     1.0000 0.11540  0.33470  0.71770  Biso   1.000  H
  H159     1.0000 0.61540  0.16530  0.28230  Biso   1.000  H
  H160     1.0000 0.88460  0.83470  0.78230  Biso   1.000  H
  C241     1.0000 0.13220  0.81700  0.34590  Biso   1.000  C
  C242     1.0000 0.36780  0.18300  0.84590  Biso   1.000  C
  C243     1.0000 0.86780  0.31700  0.15410  Biso   1.000  C
  C244     1.0000 0.63220  0.68300  0.65410  Biso   1.000  C
  C245     1.0000 0.63220  0.31700  0.84590  Biso   1.000  C
  C246     1.0000 0.86780  0.68300  0.34590  Biso   1.000  C
  C247     1.0000 0.36780  0.81700  0.65410  Biso   1.000  C
  C248     1.0000 0.13220  0.18300  0.15410  Biso   1.000  C
  C249     1.0000 0.86780  0.18300  0.65410  Biso   1.000  C
  C250     1.0000 0.63220  0.81700  0.15410  Biso   1.000  C
  C251     1.0000 0.13220  0.68300  0.84590  Biso   1.000  C
  C252     1.0000 0.36780  0.31700  0.34590  Biso   1.000  C
  C253     1.0000 0.36780  0.68300  0.15410  Biso   1.000  C
  C254     1.0000 0.13220  0.31700  0.65410  Biso   1.000  C
  C255     1.0000 0.63220  0.18300  0.34590  Biso   1.000  C
  C256     1.0000 0.86780  0.81700  0.84590  Biso   1.000  C
  H161     1.0000 0.17630  0.78320  0.36150  Biso   1.000  H
  H162     1.0000 0.32370  0.21680  0.86150  Biso   1.000  H
  H163     1.0000 0.82370  0.28320  0.13850  Biso   1.000  H
  H164     1.0000 0.67630  0.71680  0.63850  Biso   1.000  H
  H165     1.0000 0.67630  0.28320  0.86150  Biso   1.000  H
  H166     1.0000 0.82370  0.71680  0.36150  Biso   1.000  H
  H167     1.0000 0.32370  0.78320  0.63850  Biso   1.000  H
  H168     1.0000 0.17630  0.21680  0.13850  Biso   1.000  H
  H169     1.0000 0.82370  0.21680  0.63850  Biso   1.000  H
  H170     1.0000 0.67630  0.78320  0.13850  Biso   1.000  H
  H171     1.0000 0.17630  0.71680  0.86150  Biso   1.000  H
  H172     1.0000 0.32370  0.28320  0.36150  Biso   1.000  H
  H173     1.0000 0.32370  0.71680  0.13850  Biso   1.000  H
  H174     1.0000 0.17630  0.28320  0.63850  Biso   1.000  H
  H175     1.0000 0.67630  0.21680  0.36150  Biso   1.000  H
  H176     1.0000 0.82370  0.78320  0.86150  Biso   1.000  H
  H177     1.0000 0.07650  0.78810  0.34420  Biso   1.000  H
  H178     1.0000 0.42350  0.21190  0.84420  Biso   1.000  H
  H179     1.0000 0.92350  0.28810  0.15580  Biso   1.000  H
  H180     1.0000 0.57650  0.71190  0.65580  Biso   1.000  H
  H181     1.0000 0.57650  0.28810  0.84420  Biso   1.000  H
  H182     1.0000 0.92350  0.71190  0.34420  Biso   1.000  H
  H183     1.0000 0.42350  0.78810  0.65580  Biso   1.000  H
  H184     1.0000 0.07650  0.21190  0.15580  Biso   1.000  H
  H185     1.0000 0.92350  0.21190  0.65580  Biso   1.000  H
  H186     1.0000 0.57650  0.78810  0.15580  Biso   1.000  H
  H187     1.0000 0.07650  0.71190  0.84420  Biso   1.000  H
  H188     1.0000 0.42350  0.28810  0.34420  Biso   1.000  H
  H189     1.0000 0.42350  0.71190  0.15580  Biso   1.000  H
  H190     1.0000 0.07650  0.28810  0.65580  Biso   1.000  H
  H191     1.0000 0.57650  0.21190  0.34420  Biso   1.000  H
  H192     1.0000 0.92350  0.78810  0.84420  Biso   1.000  H
  H193     1.0000 0.12450  0.86620  0.36470  Biso   1.000  H
  H194     1.0000 0.37550  0.13380  0.86470  Biso   1.000  H
  H195     1.0000 0.87550  0.36620  0.13530  Biso   1.000  H
  H196     1.0000 0.62450  0.63380  0.63530  Biso   1.000  H
  H197     1.0000 0.62450  0.36620  0.86470  Biso   1.000  H
  H198     1.0000 0.87550  0.63380  0.36470  Biso   1.000  H
  H199     1.0000 0.37550  0.86620  0.63530  Biso   1.000  H
  H200     1.0000 0.12450  0.13380  0.13530  Biso   1.000  H
  H201     1.0000 0.87550  0.13380  0.63530  Biso   1.000  H
  H202     1.0000 0.62450  0.86620  0.13530  Biso   1.000  H
  H203     1.0000 0.12450  0.63380  0.86470  Biso   1.000  H
  H204     1.0000 0.37550  0.36620  0.36470  Biso   1.000  H
  H205     1.0000 0.37550  0.63380  0.13530  Biso   1.000  H
  H206     1.0000 0.12450  0.36620  0.63530  Biso   1.000  H
  H207     1.0000 0.62450  0.13380  0.36470  Biso   1.000  H
  H208     1.0000 0.87550  0.86620  0.86470  Biso   1.000  H
  O81      1.0000 0.18990  0.62400  0.42070  Biso   1.000  O
  O82      1.0000 0.31010  0.37600  0.92070  Biso   1.000  O
  O83      1.0000 0.81010  0.12400  0.07930  Biso   1.000  O
  O84      1.0000 0.68990  0.87600  0.57930  Biso   1.000  O
  O85      1.0000 0.68990  0.12400  0.92070  Biso   1.000  O
  O86      1.0000 0.81010  0.87600  0.42070  Biso   1.000  O
  O87      1.0000 0.31010  0.62400  0.57930  Biso   1.000  O
  O88      1.0000 0.18990  0.37600  0.07930  Biso   1.000  O
  O89      1.0000 0.81010  0.37600  0.57930  Biso   1.000  O
  O90      1.0000 0.68990  0.62400  0.07930  Biso   1.000  O
  O91      1.0000 0.18990  0.87600  0.92070  Biso   1.000  O
  O92      1.0000 0.31010  0.12400  0.42070  Biso   1.000  O
  O93      1.0000 0.31010  0.87600  0.07930  Biso   1.000  O
  O94      1.0000 0.18990  0.12400  0.57930  Biso   1.000  O
  O95      1.0000 0.68990  0.37600  0.42070  Biso   1.000  O
  O96      1.0000 0.81010  0.62400  0.92070  Biso   1.000  O
  O97      1.0000 0.25000  0.33100  0.00000  Biso   1.000  O
  O98      1.0000 0.25000  0.66900  0.50000  Biso   1.000  O
  O99      1.0000 0.75000  0.83100  0.50000  Biso   1.000  O
  O100     1.0000 0.75000  0.16900  0.00000  Biso   1.000  O
  O101     1.0000 0.75000  0.66900  0.00000  Biso   1.000  O
  O102     1.0000 0.75000  0.33100  0.50000  Biso   1.000  O
  O103     1.0000 0.25000  0.16900  0.50000  Biso   1.000  O
  O104     1.0000 0.25000  0.83100  0.00000  Biso   1.000  O
