data_image0
_cell_length_a       7.1911
_cell_length_b       55.05
_cell_length_c       11.7964
_cell_angle_alpha    90
_cell_angle_beta     99.166
_cell_angle_gamma    90

_symmetry_space_group_name_H-M    "P 1"
_symmetry_int_tables_number       1

loop_
  _symmetry_equiv_pos_as_xyz
  'x, y, z'

loop_
  _atom_site_label
  _atom_site_occupancy
  _atom_site_fract_x
  _atom_site_fract_y
  _atom_site_fract_z
  _atom_site_thermal_displace_type
  _atom_site_B_iso_or_equiv
  _atom_site_type_symbol
  Cu1      1.0000 0.64769  0.47118  0.41986  Biso   1.000  Cu
  Cu2      1.0000 0.35231  0.97118  0.58014  Biso   1.000  Cu
  Cu3      1.0000 0.79149  0.32061  0.42650  Biso   1.000  Cu
  Cu4      1.0000 0.20851  0.82061  0.57350  Biso   1.000  Cu
  Cu5      1.0000 0.72590  0.17268  0.40290  Biso   1.000  Cu
  Cu6      1.0000 0.27410  0.67268  0.59710  Biso   1.000  Cu
  Cu7      1.0000 0.55000  0.02282  0.39221  Biso   1.000  Cu
  Cu8      1.0000 0.45000  0.52282  0.60779  Biso   1.000  Cu
  N1       1.0000 0.63790  0.43377  0.36770  Biso   1.000  N
  N2       1.0000 0.36210  0.93377  0.63230  Biso   1.000  N
  N3       1.0000 0.55570  0.39158  0.31790  Biso   1.000  N
  N4       1.0000 0.44430  0.89158  0.68210  Biso   1.000  N
  N5       1.0000 0.71540  0.35410  0.37780  Biso   1.000  N
  N6       1.0000 0.28460  0.85410  0.62220  Biso   1.000  N
  N7       1.0000 0.85900  0.28638  0.46840  Biso   1.000  N
  N8       1.0000 0.14100  0.78638  0.53160  Biso   1.000  N
  N9       1.0000 0.95750  0.24510  0.47080  Biso   1.000  N
  N10      1.0000 0.04250  0.74510  0.52920  Biso   1.000  N
  N11      1.0000 0.81840  0.20565  0.42880  Biso   1.000  N
  N12      1.0000 0.18160  0.70565  0.57120  Biso   1.000  N
  N13      1.0000 0.63170  0.13948  0.36680  Biso   1.000  N
  N14      1.0000 0.36830  0.63948  0.63320  Biso   1.000  N
  N15      1.0000 0.45600  0.10307  0.30620  Biso   1.000  N
  N16      1.0000 0.54400  0.60307  0.69380  Biso   1.000  N
  N17      1.0000 0.53870  0.06037  0.33920  Biso   1.000  N
  N18      1.0000 0.46130  0.56037  0.66080  Biso   1.000  N
  N19      1.0000 0.42280  0.48201  0.31320  Biso   1.000  N
  N20      1.0000 0.57720  0.98201  0.68680  Biso   1.000  N
  N21      1.0000 0.09740  0.49110  0.22350  Biso   1.000  N
  N22      1.0000 0.90260  0.99110  0.77650  Biso   1.000  N
  N23      1.0000 0.81790  0.48321  0.31590  Biso   1.000  N
  N24      1.0000 0.18210  0.98321  0.68410  Biso   1.000  N
  N25      1.0000 0.87570  0.46804  0.53630  Biso   1.000  N
  N26      1.0000 0.12430  0.96804  0.46370  Biso   1.000  N
  N27      1.0000 0.19260  0.45262  0.60630  Biso   1.000  N
  N28      1.0000 0.80740  0.95262  0.39370  Biso   1.000  N
  N29      1.0000 0.47670  0.46686  0.53650  Biso   1.000  N
  N30      1.0000 0.52330  0.96686  0.46350  Biso   1.000  N
  N31      1.0000 0.54660  0.30934  0.35100  Biso   1.000  N
  N32      1.0000 0.45340  0.80934  0.64900  Biso   1.000  N
  N33      1.0000 0.24330  0.29264  0.27010  Biso   1.000  N
  N34      1.0000 0.75670  0.79264  0.72990  Biso   1.000  N
  N35      1.0000 0.93470  0.31248  0.23040  Biso   1.000  N
  N36      1.0000 0.06530  0.81248  0.76960  Biso   1.000  N
  N37      1.0000 0.04410  0.33139  0.49280  Biso   1.000  N
  N38      1.0000 0.95590  0.83139  0.50720  Biso   1.000  N
  N39      1.0000 0.34560  0.34832  0.58690  Biso   1.000  N
  N40      1.0000 0.65440  0.84832  0.41310  Biso   1.000  N
  N41      1.0000 0.65670  0.33014  0.60580  Biso   1.000  N
  N42      1.0000 0.34330  0.83014  0.39420  Biso   1.000  N
  N43      1.0000 0.48150  0.18461  0.32420  Biso   1.000  N
  N44      1.0000 0.51850  0.68461  0.67580  Biso   1.000  N
  N45      1.0000 0.17060  0.19810  0.23620  Biso   1.000  N
  N46      1.0000 0.82940  0.69810  0.76380  Biso   1.000  N
  N47      1.0000 0.87970  0.17554  0.19740  Biso   1.000  N
  N48      1.0000 0.12030  0.67554  0.80260  Biso   1.000  N
  N49      1.0000 0.97350  0.16004  0.47570  Biso   1.000  N
  N50      1.0000 0.02650  0.66004  0.52430  Biso   1.000  N
  N51      1.0000 0.27950  0.14769  0.57290  Biso   1.000  N
  N52      1.0000 0.72050  0.64769  0.42710  Biso   1.000  N
  N53      1.0000 0.57640  0.17055  0.59070  Biso   1.000  N
  N54      1.0000 0.42360  0.67055  0.40930  Biso   1.000  N
  N55      1.0000 0.32360  0.01258  0.28300  Biso   1.000  N
  N56      1.0000 0.67640  0.51258  0.71700  Biso   1.000  N
  N57      1.0000 0.99920  0.00211  0.19810  Biso   1.000  N
  N58      1.0000 0.00080  0.50211  0.80190  Biso   1.000  N
  N59      1.0000 0.72300  0.01011  0.29090  Biso   1.000  N
  N60      1.0000 0.27700  0.51011  0.70910  Biso   1.000  N
  N61      1.0000 0.77680  0.02645  0.51130  Biso   1.000  N
  N62      1.0000 0.22320  0.52645  0.48870  Biso   1.000  N
  N63      1.0000 0.09670  0.04063  0.58260  Biso   1.000  N
  N64      1.0000 0.90330  0.54063  0.41740  Biso   1.000  N
  N65      1.0000 0.38060  0.02692  0.50780  Biso   1.000  N
  N66      1.0000 0.61940  0.52692  0.49220  Biso   1.000  N
  C1       1.0000 0.60810  0.41336  0.34930  Biso   1.000  C
  C2       1.0000 0.39190  0.91336  0.65070  Biso   1.000  C
  C3       1.0000 0.64830  0.37204  0.35770  Biso   1.000  C
  C4       1.0000 0.35170  0.87204  0.64230  Biso   1.000  C
  C5       1.0000 0.89360  0.26678  0.46420  Biso   1.000  C
  C6       1.0000 0.10640  0.76678  0.53580  Biso   1.000  C
  C7       1.0000 0.87370  0.22546  0.44720  Biso   1.000  C
  C8       1.0000 0.12630  0.72546  0.55280  Biso   1.000  C
  C9       1.0000 0.55620  0.12153  0.34270  Biso   1.000  C
  C10      1.0000 0.44380  0.62153  0.65730  Biso   1.000  C
  C11      1.0000 0.50620  0.08041  0.33040  Biso   1.000  C
  C12      1.0000 0.49380  0.58041  0.66960  Biso   1.000  C
  C13      1.0000 0.26770  0.48638  0.27450  Biso   1.000  C
  C14      1.0000 0.73230  0.98638  0.72550  Biso   1.000  C
  C15      1.0000 0.95400  0.48680  0.27790  Biso   1.000  C
  C16      1.0000 0.04600  0.98680  0.72210  Biso   1.000  C
  C17      1.0000 0.02490  0.46189  0.56610  Biso   1.000  C
  C18      1.0000 0.97510  0.96189  0.43390  Biso   1.000  C
  C19      1.0000 0.34240  0.46064  0.56670  Biso   1.000  C
  C20      1.0000 0.65760  0.96064  0.43330  Biso   1.000  C
  C21      1.0000 0.39920  0.30339  0.31420  Biso   1.000  C
  C22      1.0000 0.60080  0.80339  0.68580  Biso   1.000  C
  C23      1.0000 0.08190  0.30510  0.24860  Biso   1.000  C
  C24      1.0000 0.91810  0.80510  0.75140  Biso   1.000  C
  C25      1.0000 0.19040  0.33819  0.53350  Biso   1.000  C
  C26      1.0000 0.80960  0.83819  0.46650  Biso   1.000  C
  C27      1.0000 0.50750  0.33781  0.59570  Biso   1.000  C
  C28      1.0000 0.49250  0.83781  0.40430  Biso   1.000  C
  C29      1.0000 0.33200  0.18941  0.28130  Biso   1.000  C
  C30      1.0000 0.66800  0.68941  0.71870  Biso   1.000  C
  C31      1.0000 0.02170  0.18430  0.21350  Biso   1.000  C
  C32      1.0000 0.97830  0.68430  0.78650  Biso   1.000  C
  C33      1.0000 0.11930  0.15526  0.51910  Biso   1.000  C
  C34      1.0000 0.88070  0.65526  0.48090  Biso   1.000  C
  C35      1.0000 0.43170  0.16042  0.58020  Biso   1.000  C
  C36      1.0000 0.56830  0.66042  0.41980  Biso   1.000  C
  C37      1.0000 0.16970  0.00838  0.24980  Biso   1.000  C
  C38      1.0000 0.83030  0.50838  0.75020  Biso   1.000  C
  C39      1.0000 0.85600  0.00703  0.25140  Biso   1.000  C
  C40      1.0000 0.14400  0.50703  0.74860  Biso   1.000  C
  C41      1.0000 0.92920  0.03327  0.53960  Biso   1.000  C
  C42      1.0000 0.07080  0.53327  0.46040  Biso   1.000  C
  C43      1.0000 0.24230  0.03287  0.53960  Biso   1.000  C
  C44      1.0000 0.75770  0.53287  0.46040  Biso   1.000  C
  P1       1.0000 0.81420  0.24991  0.85521  Biso   1.000  P
  P2       1.0000 0.18580  0.74991  0.14479  Biso   1.000  P
  C45      1.0000 0.63730  0.25148  0.73170  Biso   1.000  C
  C46      1.0000 0.36270  0.75148  0.26830  Biso   1.000  C
  C47      1.0000 0.51570  0.27172  0.71650  Biso   1.000  C
  C48      1.0000 0.48430  0.77172  0.28350  Biso   1.000  C
  H1       1.0000 0.52350  0.28360  0.77320  Biso   1.000  H
  H2       1.0000 0.47650  0.78360  0.22680  Biso   1.000  H
  C49      1.0000 0.38710  0.27397  0.61910  Biso   1.000  C
  C50      1.0000 0.61290  0.77397  0.38090  Biso   1.000  C
  H3       1.0000 0.30650  0.28730  0.60990  Biso   1.000  H
  H4       1.0000 0.69350  0.78730  0.39010  Biso   1.000  H
  C51      1.0000 0.37570  0.25660  0.53380  Biso   1.000  C
  C52      1.0000 0.62430  0.75660  0.46620  Biso   1.000  C
  H5       1.0000 0.29370  0.25870  0.46520  Biso   1.000  H
  H6       1.0000 0.70630  0.75870  0.53480  Biso   1.000  H
  C53      1.0000 0.48450  0.23620  0.55010  Biso   1.000  C
  C54      1.0000 0.51550  0.73620  0.44990  Biso   1.000  C
  H7       1.0000 0.46680  0.22390  0.49570  Biso   1.000  H
  H8       1.0000 0.53320  0.72390  0.50430  Biso   1.000  H
  C55      1.0000 0.62250  0.23360  0.64720  Biso   1.000  C
  C56      1.0000 0.37750  0.73360  0.35280  Biso   1.000  C
  H9       1.0000 0.70250  0.22020  0.65520  Biso   1.000  H
  H10      1.0000 0.29750  0.72020  0.34480  Biso   1.000  H
  C57      1.0000 0.69900  0.24755  0.97850  Biso   1.000  C
  C58      1.0000 0.30100  0.74755  0.02150  Biso   1.000  C
  C59      1.0000 0.55950  0.23063  0.97800  Biso   1.000  C
  C60      1.0000 0.44050  0.73063  0.02200  Biso   1.000  C
  H11      1.0000 0.52680  0.22070  0.91420  Biso   1.000  H
  H12      1.0000 0.47320  0.72070  0.08580  Biso   1.000  H
  C61      1.0000 0.46830  0.22823  0.07010  Biso   1.000  C
  C62      1.0000 0.53170  0.72823  0.92990  Biso   1.000  C
  H13      1.0000 0.37470  0.21650  0.06820  Biso   1.000  H
  H14      1.0000 0.62530  0.71650  0.93180  Biso   1.000  H
  C63      1.0000 0.51120  0.24281  0.16650  Biso   1.000  C
  C64      1.0000 0.48880  0.74281  0.83350  Biso   1.000  C
  H15      1.0000 0.45100  0.24070  0.23010  Biso   1.000  H
  H16      1.0000 0.54900  0.74070  0.76990  Biso   1.000  H
  C65      1.0000 0.64650  0.26055  0.16480  Biso   1.000  C
  C66      1.0000 0.35350  0.76055  0.83520  Biso   1.000  C
  H17      1.0000 0.67360  0.27110  0.22670  Biso   1.000  H
  H18      1.0000 0.32640  0.77110  0.77330  Biso   1.000  H
  C67      1.0000 0.74230  0.26286  0.07280  Biso   1.000  C
  C68      1.0000 0.25770  0.76286  0.92720  Biso   1.000  C
  H19      1.0000 0.83550  0.27460  0.07390  Biso   1.000  H
  H20      1.0000 0.16450  0.77460  0.92610  Biso   1.000  H
  C69      1.0000 0.96510  0.27596  0.86270  Biso   1.000  C
  C70      1.0000 0.03490  0.77596  0.13730  Biso   1.000  C
  C71      1.0000 0.93990  0.29456  0.78180  Biso   1.000  C
  C72      1.0000 0.06010  0.79456  0.21820  Biso   1.000  C
  H21      1.0000 0.83870  0.29410  0.72200  Biso   1.000  H
  H22      1.0000 0.16130  0.79410  0.27800  Biso   1.000  H
  C73      1.0000 0.06360  0.31353  0.79030  Biso   1.000  C
  C74      1.0000 0.93640  0.81353  0.20970  Biso   1.000  C
  H23      1.0000 0.04480  0.32600  0.73660  Biso   1.000  H
  H24      1.0000 0.95520  0.82600  0.26340  Biso   1.000  H
  C75      1.0000 0.21570  0.31440  0.87710  Biso   1.000  C
  C76      1.0000 0.78430  0.81440  0.12290  Biso   1.000  C
  H25      1.0000 0.29940  0.32740  0.88100  Biso   1.000  H
  H26      1.0000 0.70060  0.82740  0.11900  Biso   1.000  H
  C77      1.0000 0.24470  0.29650  0.95700  Biso   1.000  C
  C78      1.0000 0.75530  0.79650  0.04300  Biso   1.000  C
  H27      1.0000 0.34610  0.29730  0.01660  Biso   1.000  H
  H28      1.0000 0.65390  0.79730  0.98340  Biso   1.000  H
  C79      1.0000 0.12080  0.27682  0.94890  Biso   1.000  C
  C80      1.0000 0.87920  0.77682  0.05110  Biso   1.000  C
  H29      1.0000 0.14280  0.26420  0.00170  Biso   1.000  H
  H30      1.0000 0.85720  0.76420  0.99830  Biso   1.000  H
  C81      1.0000 0.95900  0.22377  0.84600  Biso   1.000  C
  C82      1.0000 0.04100  0.72377  0.15400  Biso   1.000  C
  C83      1.0000 0.06850  0.22301  0.75960  Biso   1.000  C
  C84      1.0000 0.93150  0.72301  0.24040  Biso   1.000  C
  H31      1.0000 0.07220  0.23630  0.71150  Biso   1.000  H
  H32      1.0000 0.92780  0.73630  0.28850  Biso   1.000  H
  C85      1.0000 0.17260  0.20244  0.74490  Biso   1.000  C
  C86      1.0000 0.82740  0.70244  0.25510  Biso   1.000  C
  H33      1.0000 0.24060  0.20150  0.68430  Biso   1.000  H
  H34      1.0000 0.75940  0.70150  0.31570  Biso   1.000  H
  C87      1.0000 0.17440  0.18378  0.81960  Biso   1.000  C
  C88      1.0000 0.82560  0.68378  0.18040  Biso   1.000  C
  H35      1.0000 0.24590  0.17010  0.80960  Biso   1.000  H
  H36      1.0000 0.75410  0.67010  0.19040  Biso   1.000  H
  C89      1.0000 0.07580  0.18427  0.90880  Biso   1.000  C
  C90      1.0000 0.92420  0.68427  0.09120  Biso   1.000  C
  H37      1.0000 0.08190  0.17130  0.95970  Biso   1.000  H
  H38      1.0000 0.91810  0.67130  0.04030  Biso   1.000  H
  C91      1.0000 0.96640  0.20436  0.92250  Biso   1.000  C
  C92      1.0000 0.03360  0.70436  0.07750  Biso   1.000  C
  H39      1.0000 0.89760  0.20490  0.98280  Biso   1.000  H
  H40      1.0000 0.10240  0.70490  0.01720  Biso   1.000  H
  P3       1.0000 0.30240  0.40309  0.96578  Biso   1.000  P
  P4       1.0000 0.69760  0.90309  0.03422  Biso   1.000  P
  C93      1.0000 0.45260  0.37666  0.96720  Biso   1.000  C
  C94      1.0000 0.54740  0.87666  0.03280  Biso   1.000  C
  C95      1.0000 0.55430  0.37362  0.87840  Biso   1.000  C
  C96      1.0000 0.44570  0.87362  0.12160  Biso   1.000  C
  H41      1.0000 0.53710  0.38430  0.81640  Biso   1.000  H
  H42      1.0000 0.46290  0.88430  0.18360  Biso   1.000  H
  C97      1.0000 0.68120  0.35480  0.88180  Biso   1.000  C
  C98      1.0000 0.31880  0.85480  0.11820  Biso   1.000  C
  H43      1.0000 0.74670  0.35240  0.82080  Biso   1.000  H
  H44      1.0000 0.25330  0.85240  0.17920  Biso   1.000  H
  C99      1.0000 0.71090  0.33960  0.97520  Biso   1.000  C
  C100     1.0000 0.28910  0.83960  0.02480  Biso   1.000  C
  H45      1.0000 0.79800  0.32710  0.97740  Biso   1.000  H
  H46      1.0000 0.20200  0.82710  0.02260  Biso   1.000  H
  C101     1.0000 0.61290  0.34270  0.06620  Biso   1.000  C
  C102     1.0000 0.38710  0.84270  0.93380  Biso   1.000  C
  H47      1.0000 0.63470  0.33250  0.12960  Biso   1.000  H
  H48      1.0000 0.36530  0.83250  0.87040  Biso   1.000  H
  C103     1.0000 0.48280  0.36114  0.06140  Biso   1.000  C
  C104     1.0000 0.51720  0.86114  0.93860  Biso   1.000  C
  H49      1.0000 0.41480  0.36320  0.12150  Biso   1.000  H
  H50      1.0000 0.58520  0.86320  0.87850  Biso   1.000  H
  C105     1.0000 0.19300  0.40326  0.09250  Biso   1.000  C
  C106     1.0000 0.80700  0.90326  0.90750  Biso   1.000  C
  C107     1.0000 0.22010  0.42185  0.17180  Biso   1.000  C
  C108     1.0000 0.77990  0.92185  0.82820  Biso   1.000  C
  H51      1.0000 0.29030  0.43540  0.15730  Biso   1.000  H
  H52      1.0000 0.70970  0.93540  0.84270  Biso   1.000  H
  C109     1.0000 0.14480  0.42074  0.27200  Biso   1.000  C
  C110     1.0000 0.85520  0.92074  0.72800  Biso   1.000  C
  H53      1.0000 0.16140  0.43360  0.32390  Biso   1.000  H
  H54      1.0000 0.83860  0.93360  0.67610  Biso   1.000  H
  C111     1.0000 0.04500  0.40052  0.29430  Biso   1.000  C
  C112     1.0000 0.95500  0.90052  0.70570  Biso   1.000  C
  H55      1.0000 0.99680  0.39940  0.36280  Biso   1.000  H
  H56      1.0000 0.00320  0.89940  0.63720  Biso   1.000  H
  C113     1.0000 0.01630  0.38214  0.21700  Biso   1.000  C
  C114     1.0000 0.98370  0.88214  0.78300  Biso   1.000  C
  H57      1.0000 0.94960  0.36850  0.23360  Biso   1.000  H
  H58      1.0000 0.05040  0.86850  0.76640  Biso   1.000  H
  C115     1.0000 0.08550  0.38334  0.11200  Biso   1.000  C
  C116     1.0000 0.91450  0.88334  0.88800  Biso   1.000  C
  H59      1.0000 0.05960  0.37110  0.05740  Biso   1.000  H
  H60      1.0000 0.94040  0.87110  0.94260  Biso   1.000  H
  C117     1.0000 0.45370  0.42961  0.96670  Biso   1.000  C
  C118     1.0000 0.54630  0.92961  0.03330  Biso   1.000  C
  C119     1.0000 0.61420  0.42963  0.04860  Biso   1.000  C
  C120     1.0000 0.38580  0.92963  0.95140  Biso   1.000  C
  H61      1.0000 0.64210  0.41670  0.09890  Biso   1.000  H
  H62      1.0000 0.35790  0.91670  0.90110  Biso   1.000  H
  C121     1.0000 0.73300  0.44976  0.05310  Biso   1.000  C
  C122     1.0000 0.26700  0.94976  0.94690  Biso   1.000  C
  H63      1.0000 0.84270  0.45030  0.10680  Biso   1.000  H
  H64      1.0000 0.15730  0.95030  0.89320  Biso   1.000  H
  C123     1.0000 0.68870  0.46832  0.97990  Biso   1.000  C
  C124     1.0000 0.31130  0.96832  0.02010  Biso   1.000  C
  H65      1.0000 0.76880  0.48170  0.98420  Biso   1.000  H
  H66      1.0000 0.23120  0.98170  0.01580  Biso   1.000  H
  C125     1.0000 0.53140  0.46819  0.90020  Biso   1.000  C
  C126     1.0000 0.46860  0.96819  0.09980  Biso   1.000  C
  H67      1.0000 0.50360  0.48140  0.85110  Biso   1.000  H
  H68      1.0000 0.49640  0.98140  0.14890  Biso   1.000  H
  C127     1.0000 0.41180  0.44837  0.89170  Biso   1.000  C
  C128     1.0000 0.58820  0.94837  0.10830  Biso   1.000  C
  H69      1.0000 0.30480  0.44790  0.83590  Biso   1.000  H
  H70      1.0000 0.69520  0.94790  0.16410  Biso   1.000  H
  C129     1.0000 0.11480  0.40303  0.84510  Biso   1.000  C
  C130     1.0000 0.88520  0.90303  0.15490  Biso   1.000  C
  C131     1.0000 0.98020  0.42179  0.83870  Biso   1.000  C
  C132     1.0000 0.01980  0.92179  0.16130  Biso   1.000  C
  H71      1.0000 0.99000  0.43350  0.89600  Biso   1.000  H
  H72      1.0000 0.01000  0.93350  0.10400  Biso   1.000  H
  C133     1.0000 0.83350  0.42281  0.74720  Biso   1.000  C
  C134     1.0000 0.16650  0.92281  0.25280  Biso   1.000  C
  H73      1.0000 0.74300  0.43500  0.74350  Biso   1.000  H
  H74      1.0000 0.25700  0.93500  0.25650  Biso   1.000  H
  C135     1.0000 0.82320  0.40570  0.66250  Biso   1.000  C
  C136     1.0000 0.17680  0.90570  0.33750  Biso   1.000  C
  H75      1.0000 0.72530  0.40630  0.60080  Biso   1.000  H
  H76      1.0000 0.27470  0.90630  0.39920  Biso   1.000  H
  C137     1.0000 0.95450  0.38776  0.66730  Biso   1.000  C
  C138     1.0000 0.04550  0.88776  0.33270  Biso   1.000  C
  H77      1.0000 0.94190  0.37600  0.60990  Biso   1.000  H
  H78      1.0000 0.05810  0.87600  0.39010  Biso   1.000  H
  C139     1.0000 0.10410  0.38654  0.75430  Biso   1.000  C
  C140     1.0000 0.89590  0.88654  0.24570  Biso   1.000  C
  H79      1.0000 0.19750  0.37490  0.75320  Biso   1.000  H
  H80      1.0000 0.80250  0.87490  0.24680  Biso   1.000  H
  P5       1.0000 0.20130  0.09026  0.94189  Biso   1.000  P
  P6       1.0000 0.79870  0.59026  0.05811  Biso   1.000  P
  C141     1.0000 0.35370  0.11620  0.94730  Biso   1.000  C
  C142     1.0000 0.64630  0.61620  0.05270  Biso   1.000  C
  C143     1.0000 0.45180  0.11947  0.85560  Biso   1.000  C
  C144     1.0000 0.54820  0.61947  0.14440  Biso   1.000  C
  H81      1.0000 0.43030  0.10940  0.79160  Biso   1.000  H
  H82      1.0000 0.56970  0.60940  0.20840  Biso   1.000  H
  C145     1.0000 0.58320  0.13828  0.86260  Biso   1.000  C
  C146     1.0000 0.41680  0.63828  0.13740  Biso   1.000  C
  H83      1.0000 0.65480  0.14020  0.80410  Biso   1.000  H
  H84      1.0000 0.34520  0.64020  0.19590  Biso   1.000  H
  C147     1.0000 0.60870  0.15375  0.95180  Biso   1.000  C
  C148     1.0000 0.39130  0.65375  0.04820  Biso   1.000  C
  H85      1.0000 0.69290  0.16660  0.95330  Biso   1.000  H
  H86      1.0000 0.30710  0.66660  0.04670  Biso   1.000  H
  C149     1.0000 0.50960  0.15041  0.04050  Biso   1.000  C
  C150     1.0000 0.49040  0.65041  0.95950  Biso   1.000  C
  H87      1.0000 0.52950  0.16100  0.10280  Biso   1.000  H
  H88      1.0000 0.47050  0.66100  0.89720  Biso   1.000  H
  C151     1.0000 0.38090  0.13181  0.03990  Biso   1.000  C
  C152     1.0000 0.61910  0.63181  0.96010  Biso   1.000  C
  H89      1.0000 0.31400  0.12980  0.10050  Biso   1.000  H
  H90      1.0000 0.68600  0.62980  0.89950  Biso   1.000  H
  C153     1.0000 0.09250  0.08968  0.06900  Biso   1.000  C
  C154     1.0000 0.90750  0.58968  0.93100  Biso   1.000  C
  C155     1.0000 0.12600  0.07075  0.14830  Biso   1.000  C
  C156     1.0000 0.87400  0.57075  0.85170  Biso   1.000  C
  H91      1.0000 0.19850  0.05750  0.13360  Biso   1.000  H
  H92      1.0000 0.80150  0.55750  0.86640  Biso   1.000  H
  C157     1.0000 0.05090  0.07193  0.24820  Biso   1.000  C
  C158     1.0000 0.94910  0.57193  0.75180  Biso   1.000  C
  H93      1.0000 0.06970  0.05930  0.30130  Biso   1.000  H
  H94      1.0000 0.93030  0.55930  0.69870  Biso   1.000  H
  C159     1.0000 0.94650  0.09221  0.26900  Biso   1.000  C
  C160     1.0000 0.05350  0.59221  0.73100  Biso   1.000  C
  H95      1.0000 0.89830  0.09320  0.33750  Biso   1.000  H
  H96      1.0000 0.10170  0.59320  0.66250  Biso   1.000  H
  C161     1.0000 0.91320  0.11059  0.19180  Biso   1.000  C
  C162     1.0000 0.08680  0.61059  0.80820  Biso   1.000  C
  H97      1.0000 0.84230  0.12400  0.20710  Biso   1.000  H
  H98      1.0000 0.15770  0.62400  0.79290  Biso   1.000  H
  C163     1.0000 0.98380  0.10929  0.09250  Biso   1.000  C
  C164     1.0000 0.01620  0.60929  0.90750  Biso   1.000  C
  H99      1.0000 0.95910  0.12180  0.03900  Biso   1.000  H
  H100     1.0000 0.04090  0.62180  0.96100  Biso   1.000  H
  C165     1.0000 0.01830  0.08966  0.82020  Biso   1.000  C
  C166     1.0000 0.98170  0.58966  0.17980  Biso   1.000  C
  C167     1.0000 0.00320  0.10814  0.73520  Biso   1.000  C
  C168     1.0000 0.99680  0.60814  0.26480  Biso   1.000  C
  H101     1.0000 0.09290  0.12040  0.74040  Biso   1.000  H
  H102     1.0000 0.90710  0.62040  0.25960  Biso   1.000  H
  C169     1.0000 0.85270  0.10780  0.64340  Biso   1.000  C
  C170     1.0000 0.14730  0.60780  0.35660  Biso   1.000  C
  H103     1.0000 0.83980  0.12000  0.58800  Biso   1.000  H
  H104     1.0000 0.16020  0.62000  0.41200  Biso   1.000  H
  C171     1.0000 0.72350  0.08900  0.63740  Biso   1.000  C
  C172     1.0000 0.27650  0.58900  0.36260  Biso   1.000  C
  H105     1.0000 0.62700  0.08780  0.57500  Biso   1.000  H
  H106     1.0000 0.37300  0.58780  0.42500  Biso   1.000  H
  C173     1.0000 0.73790  0.07240  0.72150  Biso   1.000  C
  C174     1.0000 0.26210  0.57240  0.27850  Biso   1.000  C
  H107     1.0000 0.64650  0.06040  0.71820  Biso   1.000  H
  H108     1.0000 0.35350  0.56040  0.28180  Biso   1.000  H
  C175     1.0000 0.88330  0.07261  0.81250  Biso   1.000  C
  C176     1.0000 0.11670  0.57261  0.18750  Biso   1.000  C
  H109     1.0000 0.88820  0.06080  0.86940  Biso   1.000  H
  H110     1.0000 0.11180  0.56080  0.13060  Biso   1.000  H
  C177     1.0000 0.35040  0.06429  0.94230  Biso   1.000  C
  C178     1.0000 0.64960  0.56429  0.05770  Biso   1.000  C
  C179     1.0000 0.51460  0.06356  0.02230  Biso   1.000  C
  C180     1.0000 0.48540  0.56356  0.97770  Biso   1.000  C
  H111     1.0000 0.54220  0.07650  0.07300  Biso   1.000  H
  H112     1.0000 0.45780  0.57650  0.92700  Biso   1.000  H
  C181     1.0000 0.63370  0.04485  0.02860  Biso   1.000  C
  C182     1.0000 0.36630  0.54485  0.97140  Biso   1.000  C
  H113     1.0000 0.74230  0.04490  0.08330  Biso   1.000  H
  H114     1.0000 0.25770  0.54490  0.91670  Biso   1.000  H
  C183     1.0000 0.59570  0.02501  0.95270  Biso   1.000  C
  C184     1.0000 0.40430  0.52501  0.04730  Biso   1.000  C
  H115     1.0000 0.67500  0.01160  0.95860  Biso   1.000  H
  H116     1.0000 0.32500  0.51160  0.04140  Biso   1.000  H
  C185     1.0000 0.43930  0.02607  0.87030  Biso   1.000  C
  C186     1.0000 0.56070  0.52607  0.12970  Biso   1.000  C
  H117     1.0000 0.41530  0.01350  0.81720  Biso   1.000  H
  H118     1.0000 0.58470  0.51350  0.18280  Biso   1.000  H
  C187     1.0000 0.31470  0.04565  0.86410  Biso   1.000  C
  C188     1.0000 0.68530  0.54565  0.13590  Biso   1.000  C
  H119     1.0000 0.20850  0.04610  0.80770  Biso   1.000  H
  H120     1.0000 0.79150  0.54610  0.19230  Biso   1.000  H
