data_image0
_cell_length_a       5.2534
_cell_length_b       7.406
_cell_length_c       14.792
_cell_angle_alpha    84.195
_cell_angle_beta     80.014
_cell_angle_gamma    78.053

_symmetry_space_group_name_H-M    "P 1"
_symmetry_int_tables_number       1

loop_
  _symmetry_equiv_pos_as_xyz
  'x, y, z'

loop_
  _atom_site_label
  _atom_site_occupancy
  _atom_site_fract_x
  _atom_site_fract_y
  _atom_site_fract_z
  _atom_site_thermal_displace_type
  _atom_site_B_iso_or_equiv
  _atom_site_type_symbol
  O1       1.0000 0.73800  0.42120  0.89326  Biso   1.000  O
  O2       1.0000 0.26200  0.57880  0.10674  Biso   1.000  O
  H1       1.0000 0.74700  0.47150  0.83060  Biso   1.000  H
  H2       1.0000 0.25300  0.52850  0.16940  Biso   1.000  H
  H3       1.0000 0.89730  0.33940  0.90570  Biso   1.000  H
  H4       1.0000 0.10270  0.66060  0.09430  Biso   1.000  H
  Cu1      1.0000 0.50000  0.50000  0.00000  Biso   1.000  Cu
  O3       1.0000 0.70330  0.32480  0.07841  Biso   1.000  O
  O4       1.0000 0.29670  0.67520  0.92159  Biso   1.000  O
  O5       1.0000 0.10070  0.24060  0.99296  Biso   1.000  O
  O6       1.0000 0.89930  0.75940  0.00704  Biso   1.000  O
  C1       1.0000 0.94210  0.23940  0.06470  Biso   1.000  C
  C2       1.0000 0.05790  0.76060  0.93530  Biso   1.000  C
  C3       1.0000 0.02880  0.12520  0.14904  Biso   1.000  C
  C4       1.0000 0.97120  0.87480  0.85096  Biso   1.000  C
  C5       1.0000 0.86580  0.13270  0.23330  Biso   1.000  C
  C6       1.0000 0.13420  0.86730  0.76670  Biso   1.000  C
  H5       1.0000 0.69950  0.20830  0.23910  Biso   1.000  H
  H6       1.0000 0.30050  0.79170  0.76090  Biso   1.000  H
  C7       1.0000 0.95000  0.02860  0.30788  Biso   1.000  C
  C8       1.0000 0.05000  0.97140  0.69212  Biso   1.000  C
  H7       1.0000 0.84120  0.03520  0.36470  Biso   1.000  H
  H8       1.0000 0.15880  0.96480  0.63530  Biso   1.000  H
  C9       1.0000 0.35100  0.90640  0.21934  Biso   1.000  C
  C10      1.0000 0.64900  0.09360  0.78066  Biso   1.000  C
  H9       1.0000 0.51540  0.82850  0.21510  Biso   1.000  H
  H10      1.0000 0.48460  0.17150  0.78490  Biso   1.000  H
  N1       1.0000 0.18870  0.91650  0.30026  Biso   1.000  N
  N2       1.0000 0.81130  0.08350  0.69974  Biso   1.000  N
  C11      1.0000 0.27550  0.01050  0.14298  Biso   1.000  C
  C12      1.0000 0.72450  0.98950  0.85702  Biso   1.000  C
  H11      1.0000 0.38920  0.00430  0.08720  Biso   1.000  H
  H12      1.0000 0.61080  0.99570  0.91280  Biso   1.000  H
  C13      1.0000 0.27190  0.80370  0.38290  Biso   1.000  C
  C14      1.0000 0.72810  0.19630  0.61710  Biso   1.000  C
  H13      1.0000 0.40080  0.69530  0.36340  Biso   1.000  H
  H14      1.0000 0.59920  0.30470  0.63660  Biso   1.000  H
  H15      1.0000 0.12050  0.76160  0.41940  Biso   1.000  H
  H16      1.0000 0.87950  0.23840  0.58060  Biso   1.000  H
  C15      1.0000 0.38940  0.90960  0.44208  Biso   1.000  C
  C16      1.0000 0.61060  0.09040  0.55792  Biso   1.000  C
  C17      1.0000 0.33700  0.10180  0.44124  Biso   1.000  C
  C18      1.0000 0.66300  0.89820  0.55876  Biso   1.000  C
  H17      1.0000 0.22700  0.17090  0.40210  Biso   1.000  H
  H18      1.0000 0.77300  0.82910  0.59790  Biso   1.000  H
  C19      1.0000 0.55280  0.80880  0.50180  Biso   1.000  C
  C20      1.0000 0.44720  0.19120  0.49820  Biso   1.000  C
  H19      1.0000 0.58850  0.68030  0.50350  Biso   1.000  H
  H20      1.0000 0.41150  0.31970  0.49650  Biso   1.000  H
  N3       1.0000 0.97130  0.50030  0.31198  Biso   1.000  N
  N4       1.0000 0.02870  0.49970  0.68802  Biso   1.000  N
  O7       1.0000 0.85430  0.63360  0.26980  Biso   1.000  O
  O8       1.0000 0.14570  0.36640  0.73020  Biso   1.000  O
  O9       1.0000 0.87060  0.44270  0.38729  Biso   1.000  O
  O10      1.0000 0.12940  0.55730  0.61271  Biso   1.000  O
  O11      1.0000 0.20140  0.42810  0.27746  Biso   1.000  O
  O12      1.0000 0.79860  0.57190  0.72254  Biso   1.000  O
