data_image0
_cell_length_a       10.222
_cell_length_b       25.287
_cell_length_c       9.277
_cell_angle_alpha    90
_cell_angle_beta     93.572
_cell_angle_gamma    90

_symmetry_space_group_name_H-M    "P 1"
_symmetry_int_tables_number       1

loop_
  _symmetry_equiv_pos_as_xyz
  'x, y, z'

loop_
  _atom_site_label
  _atom_site_occupancy
  _atom_site_fract_x
  _atom_site_fract_y
  _atom_site_fract_z
  _atom_site_thermal_displace_type
  _atom_site_B_iso_or_equiv
  _atom_site_type_symbol
  O1       1.0000 0.20100  0.16891  0.52570  Biso   1.000  O
  O2       1.0000 0.79900  0.66891  0.97430  Biso   1.000  O
  O3       1.0000 0.79900  0.83109  0.47430  Biso   1.000  O
  O4       1.0000 0.20100  0.33109  0.02570  Biso   1.000  O
  H1       1.0000 0.21020  0.19370  0.44860  Biso   1.000  H
  H2       1.0000 0.78980  0.69370  0.05140  Biso   1.000  H
  H3       1.0000 0.78980  0.80630  0.55140  Biso   1.000  H
  H4       1.0000 0.21020  0.30630  0.94860  Biso   1.000  H
  H5       1.0000 0.19720  0.19260  0.60620  Biso   1.000  H
  H6       1.0000 0.80280  0.69260  0.89380  Biso   1.000  H
  H7       1.0000 0.80280  0.80740  0.39380  Biso   1.000  H
  H8       1.0000 0.19720  0.30740  0.10620  Biso   1.000  H
  O5       1.0000 0.99740  0.06211  0.57880  Biso   1.000  O
  O6       1.0000 0.00260  0.56211  0.92120  Biso   1.000  O
  O7       1.0000 0.00260  0.93789  0.42120  Biso   1.000  O
  O8       1.0000 0.99740  0.43789  0.07880  Biso   1.000  O
  H9       1.0000 0.93500  0.06240  0.49710  Biso   1.000  H
  H10      1.0000 0.06500  0.56240  0.00290  Biso   1.000  H
  H11      1.0000 0.06500  0.93760  0.50290  Biso   1.000  H
  H12      1.0000 0.93500  0.43760  0.99710  Biso   1.000  H
  H13      1.0000 0.00350  0.03090  0.63790  Biso   1.000  H
  H14      1.0000 0.99650  0.53090  0.86210  Biso   1.000  H
  H15      1.0000 0.99650  0.96910  0.36210  Biso   1.000  H
  H16      1.0000 0.00350  0.46910  0.13790  Biso   1.000  H
  O9       1.0000 0.34420  0.05625  0.47150  Biso   1.000  O
  O10      1.0000 0.65580  0.55625  0.02850  Biso   1.000  O
  O11      1.0000 0.65580  0.94375  0.52850  Biso   1.000  O
  O12      1.0000 0.34420  0.44375  0.97150  Biso   1.000  O
  H17      1.0000 0.41690  0.05640  0.54220  Biso   1.000  H
  H18      1.0000 0.58310  0.55640  0.95780  Biso   1.000  H
  H19      1.0000 0.58310  0.94360  0.45780  Biso   1.000  H
  H20      1.0000 0.41690  0.44360  0.04220  Biso   1.000  H
  H21      1.0000 0.34130  0.02610  0.40840  Biso   1.000  H
  H22      1.0000 0.65870  0.52610  0.09160  Biso   1.000  H
  H23      1.0000 0.65870  0.97390  0.59160  Biso   1.000  H
  H24      1.0000 0.34130  0.47390  0.90840  Biso   1.000  H
  Cu1      1.0000 0.17231  0.08701  0.52879  Biso   1.000  Cu
  Cu2      1.0000 0.82769  0.58701  0.97121  Biso   1.000  Cu
  Cu3      1.0000 0.82769  0.91299  0.47121  Biso   1.000  Cu
  Cu4      1.0000 0.17231  0.41299  0.02879  Biso   1.000  Cu
  O13      1.0000 0.11280  0.09797  0.33100  Biso   1.000  O
  O14      1.0000 0.88720  0.59797  0.16900  Biso   1.000  O
  O15      1.0000 0.88720  0.90203  0.66900  Biso   1.000  O
  O16      1.0000 0.11280  0.40203  0.83100  Biso   1.000  O
  O17      1.0000 0.04820  0.01893  0.24940  Biso   1.000  O
  O18      1.0000 0.95180  0.51893  0.25060  Biso   1.000  O
  O19      1.0000 0.95180  0.98107  0.75060  Biso   1.000  O
  O20      1.0000 0.04820  0.48107  0.74940  Biso   1.000  O
  C1       1.0000 0.06010  0.06647  0.23940  Biso   1.000  C
  C2       1.0000 0.93990  0.56647  0.26060  Biso   1.000  C
  C3       1.0000 0.93990  0.93353  0.76060  Biso   1.000  C
  C4       1.0000 0.06010  0.43353  0.73940  Biso   1.000  C
  C5       1.0000 0.00900  0.09347  0.10060  Biso   1.000  C
  C6       1.0000 0.99100  0.59347  0.39940  Biso   1.000  C
  C7       1.0000 0.99100  0.90653  0.89940  Biso   1.000  C
  C8       1.0000 0.00900  0.40653  0.60060  Biso   1.000  C
  C9       1.0000 0.91950  0.06822  0.00690  Biso   1.000  C
  C10      1.0000 0.08050  0.56822  0.49310  Biso   1.000  C
  C11      1.0000 0.08050  0.93178  0.99310  Biso   1.000  C
  C12      1.0000 0.91950  0.43178  0.50690  Biso   1.000  C
  H25      1.0000 0.88870  0.03470  0.02840  Biso   1.000  H
  H26      1.0000 0.11130  0.53470  0.47160  Biso   1.000  H
  H27      1.0000 0.11130  0.96530  0.97160  Biso   1.000  H
  H28      1.0000 0.88870  0.46530  0.52840  Biso   1.000  H
  C13      1.0000 0.87610  0.09333  0.88100  Biso   1.000  C
  C14      1.0000 0.12390  0.59333  0.61900  Biso   1.000  C
  C15      1.0000 0.12390  0.90667  0.11900  Biso   1.000  C
  C16      1.0000 0.87610  0.40667  0.38100  Biso   1.000  C
  H29      1.0000 0.81500  0.07680  0.81760  Biso   1.000  H
  H30      1.0000 0.18500  0.57680  0.68240  Biso   1.000  H
  H31      1.0000 0.18500  0.92320  0.18240  Biso   1.000  H
  H32      1.0000 0.81500  0.42320  0.31760  Biso   1.000  H
  C17      1.0000 0.00780  0.16622  0.93920  Biso   1.000  C
  C18      1.0000 0.99220  0.66622  0.56080  Biso   1.000  C
  C19      1.0000 0.99220  0.83378  0.06080  Biso   1.000  C
  C20      1.0000 0.00780  0.33378  0.43920  Biso   1.000  C
  H33      1.0000 0.03820  0.19950  0.91490  Biso   1.000  H
  H34      1.0000 0.96180  0.69950  0.58510  Biso   1.000  H
  H35      1.0000 0.96180  0.80050  0.08510  Biso   1.000  H
  H36      1.0000 0.03820  0.30050  0.41490  Biso   1.000  H
  N1       1.0000 0.92110  0.14102  0.84950  Biso   1.000  N
  N2       1.0000 0.07890  0.64102  0.65050  Biso   1.000  N
  N3       1.0000 0.07890  0.85898  0.15050  Biso   1.000  N
  N4       1.0000 0.92110  0.35898  0.34950  Biso   1.000  N
  C21      1.0000 0.05190  0.14321  0.06610  Biso   1.000  C
  C22      1.0000 0.94810  0.64321  0.43390  Biso   1.000  C
  C23      1.0000 0.94810  0.85679  0.93390  Biso   1.000  C
  C24      1.0000 0.05190  0.35679  0.56610  Biso   1.000  C
  H37      1.0000 0.11070  0.16110  0.12920  Biso   1.000  H
  H38      1.0000 0.88930  0.66110  0.37080  Biso   1.000  H
  H39      1.0000 0.88930  0.83890  0.87080  Biso   1.000  H
  H40      1.0000 0.11070  0.33890  0.62920  Biso   1.000  H
  C25      1.0000 0.87370  0.16797  0.71210  Biso   1.000  C
  C26      1.0000 0.12630  0.66797  0.78790  Biso   1.000  C
  C27      1.0000 0.12630  0.83203  0.28790  Biso   1.000  C
  C28      1.0000 0.87370  0.33203  0.21210  Biso   1.000  C
  H41      1.0000 0.82760  0.14270  0.64900  Biso   1.000  H
  H42      1.0000 0.17240  0.64270  0.85100  Biso   1.000  H
  H43      1.0000 0.17240  0.85730  0.35100  Biso   1.000  H
  H44      1.0000 0.82760  0.35730  0.14900  Biso   1.000  H
  H45      1.0000 0.94820  0.18110  0.66320  Biso   1.000  H
  H46      1.0000 0.05180  0.68110  0.83680  Biso   1.000  H
  H47      1.0000 0.05180  0.81890  0.33680  Biso   1.000  H
  H48      1.0000 0.94820  0.31890  0.16320  Biso   1.000  H
  C29      1.0000 0.78330  0.21332  0.74230  Biso   1.000  C
  C30      1.0000 0.21670  0.71332  0.75770  Biso   1.000  C
  C31      1.0000 0.21670  0.78668  0.25770  Biso   1.000  C
  C32      1.0000 0.78330  0.28668  0.24230  Biso   1.000  C
  C33      1.0000 0.65450  0.20389  0.76680  Biso   1.000  C
  C34      1.0000 0.34550  0.70389  0.73320  Biso   1.000  C
  C35      1.0000 0.34550  0.79611  0.23320  Biso   1.000  C
  C36      1.0000 0.65450  0.29611  0.26680  Biso   1.000  C
  H49      1.0000 0.62230  0.16950  0.76380  Biso   1.000  H
  H50      1.0000 0.37770  0.66950  0.73620  Biso   1.000  H
  H51      1.0000 0.37770  0.83050  0.23620  Biso   1.000  H
  H52      1.0000 0.62230  0.33050  0.26380  Biso   1.000  H
  C37      1.0000 0.57270  0.24531  0.79600  Biso   1.000  C
  C38      1.0000 0.42730  0.74531  0.70400  Biso   1.000  C
  C39      1.0000 0.42730  0.75469  0.20400  Biso   1.000  C
  C40      1.0000 0.57270  0.25469  0.29600  Biso   1.000  C
  H53      1.0000 0.48590  0.23840  0.81430  Biso   1.000  H
  H54      1.0000 0.51410  0.73840  0.68570  Biso   1.000  H
  H55      1.0000 0.51410  0.76160  0.18570  Biso   1.000  H
  H56      1.0000 0.48590  0.26160  0.31430  Biso   1.000  H
  C41      1.0000 0.61640  0.29657  0.79850  Biso   1.000  C
  C42      1.0000 0.38360  0.79657  0.70150  Biso   1.000  C
  C43      1.0000 0.38360  0.70343  0.20150  Biso   1.000  C
  C44      1.0000 0.61640  0.20343  0.29850  Biso   1.000  C
  C45      1.0000 0.74580  0.30607  0.77520  Biso   1.000  C
  C46      1.0000 0.25420  0.80607  0.72480  Biso   1.000  C
  C47      1.0000 0.25420  0.69393  0.22480  Biso   1.000  C
  C48      1.0000 0.74580  0.19393  0.27520  Biso   1.000  C
  H57      1.0000 0.77810  0.34050  0.77860  Biso   1.000  H
  H58      1.0000 0.22190  0.84050  0.72140  Biso   1.000  H
  H59      1.0000 0.22190  0.65950  0.22140  Biso   1.000  H
  H60      1.0000 0.77810  0.15950  0.27860  Biso   1.000  H
  C49      1.0000 0.82830  0.26432  0.74640  Biso   1.000  C
  C50      1.0000 0.17170  0.76432  0.75360  Biso   1.000  C
  C51      1.0000 0.17170  0.73568  0.25360  Biso   1.000  C
  C52      1.0000 0.82830  0.23568  0.24640  Biso   1.000  C
  H61      1.0000 0.91540  0.27110  0.72960  Biso   1.000  H
  H62      1.0000 0.08460  0.77110  0.77040  Biso   1.000  H
  H63      1.0000 0.08460  0.72890  0.27040  Biso   1.000  H
  H64      1.0000 0.91540  0.22890  0.22960  Biso   1.000  H
  C53      1.0000 0.52480  0.34131  0.82760  Biso   1.000  C
  C54      1.0000 0.47520  0.84131  0.67240  Biso   1.000  C
  C55      1.0000 0.47520  0.65869  0.17240  Biso   1.000  C
  C56      1.0000 0.52480  0.15869  0.32760  Biso   1.000  C
  H65      1.0000 0.57140  0.36750  0.88750  Biso   1.000  H
  H66      1.0000 0.42860  0.86750  0.61250  Biso   1.000  H
  H67      1.0000 0.42860  0.63250  0.11250  Biso   1.000  H
  H68      1.0000 0.57140  0.13250  0.38750  Biso   1.000  H
  H69      1.0000 0.45300  0.32790  0.88070  Biso   1.000  H
  H70      1.0000 0.54700  0.82790  0.61930  Biso   1.000  H
  H71      1.0000 0.54700  0.67210  0.11930  Biso   1.000  H
  H72      1.0000 0.45300  0.17210  0.38070  Biso   1.000  H
  N5       1.0000 0.47020  0.36732  0.69090  Biso   1.000  N
  N6       1.0000 0.52980  0.86732  0.80910  Biso   1.000  N
  N7       1.0000 0.52980  0.63268  0.30910  Biso   1.000  N
  N8       1.0000 0.47020  0.13268  0.19090  Biso   1.000  N
  C57      1.0000 0.41580  0.33720  0.58380  Biso   1.000  C
  C58      1.0000 0.58420  0.83720  0.91620  Biso   1.000  C
  C59      1.0000 0.58420  0.66280  0.41620  Biso   1.000  C
  C60      1.0000 0.41580  0.16280  0.08380  Biso   1.000  C
  H73      1.0000 0.41750  0.30060  0.59270  Biso   1.000  H
  H74      1.0000 0.58250  0.80060  0.90730  Biso   1.000  H
  H75      1.0000 0.58250  0.69940  0.40730  Biso   1.000  H
  H76      1.0000 0.41750  0.19940  0.09270  Biso   1.000  H
  C61      1.0000 0.35810  0.35969  0.46220  Biso   1.000  C
  C62      1.0000 0.64190  0.85969  0.03780  Biso   1.000  C
  C63      1.0000 0.64190  0.64031  0.53780  Biso   1.000  C
  C64      1.0000 0.35810  0.14031  0.96220  Biso   1.000  C
  H77      1.0000 0.32300  0.33850  0.38750  Biso   1.000  H
  H78      1.0000 0.67700  0.83850  0.11250  Biso   1.000  H
  H79      1.0000 0.67700  0.66150  0.61250  Biso   1.000  H
  H80      1.0000 0.32300  0.16150  0.88750  Biso   1.000  H
  C65      1.0000 0.35220  0.41420  0.45070  Biso   1.000  C
  C66      1.0000 0.64780  0.91420  0.04930  Biso   1.000  C
  C67      1.0000 0.64780  0.58580  0.54930  Biso   1.000  C
  C68      1.0000 0.35220  0.08580  0.95070  Biso   1.000  C
  C69      1.0000 0.40720  0.44423  0.56160  Biso   1.000  C
  C70      1.0000 0.59280  0.94423  0.93840  Biso   1.000  C
  C71      1.0000 0.59280  0.55577  0.43840  Biso   1.000  C
  C72      1.0000 0.40720  0.05577  0.06160  Biso   1.000  C
  H81      1.0000 0.40340  0.48090  0.55650  Biso   1.000  H
  H82      1.0000 0.59660  0.98090  0.94350  Biso   1.000  H
  H83      1.0000 0.59660  0.51910  0.44350  Biso   1.000  H
  H84      1.0000 0.40340  0.01910  0.05650  Biso   1.000  H
  C73      1.0000 0.46810  0.41994  0.68080  Biso   1.000  C
  C74      1.0000 0.53190  0.91994  0.81920  Biso   1.000  C
  C75      1.0000 0.53190  0.58006  0.31920  Biso   1.000  C
  C76      1.0000 0.46810  0.08006  0.18080  Biso   1.000  C
  H85      1.0000 0.50790  0.44040  0.75440  Biso   1.000  H
  H86      1.0000 0.49210  0.94040  0.74560  Biso   1.000  H
  H87      1.0000 0.49210  0.55960  0.24560  Biso   1.000  H
  H88      1.0000 0.50790  0.05960  0.25440  Biso   1.000  H
  C77      1.0000 0.28470  0.44037  0.31740  Biso   1.000  C
  C78      1.0000 0.71530  0.94037  0.18260  Biso   1.000  C
  C79      1.0000 0.71530  0.55963  0.68260  Biso   1.000  C
  C80      1.0000 0.28470  0.05963  0.81740  Biso   1.000  C
  O21      1.0000 0.23420  0.40732  0.22750  Biso   1.000  O
  O22      1.0000 0.76580  0.90732  0.27250  Biso   1.000  O
  O23      1.0000 0.76580  0.59268  0.77250  Biso   1.000  O
  O24      1.0000 0.23420  0.09268  0.72750  Biso   1.000  O
  O25      1.0000 0.28520  0.48875  0.31000  Biso   1.000  O
  O26      1.0000 0.71480  0.98875  0.19000  Biso   1.000  O
  O27      1.0000 0.71480  0.51125  0.69000  Biso   1.000  O
  O28      1.0000 0.28520  0.01125  0.81000  Biso   1.000  O
  O29      1.0000 0.78280  0.06186  0.39700  Biso   1.000  O
  O30      1.0000 0.21720  0.56186  0.10300  Biso   1.000  O
  O31      1.0000 0.21720  0.93814  0.60300  Biso   1.000  O
  O32      1.0000 0.78280  0.43814  0.89700  Biso   1.000  O
  H89      1.0000 0.70310  0.06940  0.44250  Biso   1.000  H
  H90      1.0000 0.29690  0.56940  0.05750  Biso   1.000  H
  H91      1.0000 0.29690  0.93060  0.55750  Biso   1.000  H
  H92      1.0000 0.70310  0.43060  0.94250  Biso   1.000  H
  H93      1.0000 0.77160  0.03070  0.33850  Biso   1.000  H
  H94      1.0000 0.22840  0.53070  0.16150  Biso   1.000  H
  H95      1.0000 0.22840  0.96930  0.66150  Biso   1.000  H
  H96      1.0000 0.77160  0.46930  0.83850  Biso   1.000  H
  Cl1      1.0000 0.21301  0.24658  0.26773  Biso   1.000  Cl
  Cl2      1.0000 0.78699  0.74658  0.23227  Biso   1.000  Cl
  Cl3      1.0000 0.78699  0.75342  0.73227  Biso   1.000  Cl
  Cl4      1.0000 0.21301  0.25342  0.76773  Biso   1.000  Cl
  Cl5      1.0000 0.60050  0.05446  0.66078  Biso   1.000  Cl
  Cl6      1.0000 0.39950  0.55446  0.83922  Biso   1.000  Cl
  Cl7      1.0000 0.39950  0.94554  0.33922  Biso   1.000  Cl
  Cl8      1.0000 0.60050  0.44554  0.16078  Biso   1.000  Cl
