data_image0
_cell_length_a       23.31
_cell_length_b       12.2338
_cell_length_c       10.6075
_cell_angle_alpha    90
_cell_angle_beta     110.487
_cell_angle_gamma    90

_symmetry_space_group_name_H-M    "P 1"
_symmetry_int_tables_number       1

loop_
  _symmetry_equiv_pos_as_xyz
  'x, y, z'

loop_
  _atom_site_label
  _atom_site_occupancy
  _atom_site_fract_x
  _atom_site_fract_y
  _atom_site_fract_z
  _atom_site_thermal_displace_type
  _atom_site_B_iso_or_equiv
  _atom_site_type_symbol
  C1       1.0000 0.29688  0.18630  0.57640  Biso   1.000  C
  C2       1.0000 0.79688  0.68630  0.57640  Biso   1.000  C
  C3       1.0000 0.70312  0.18630  0.92360  Biso   1.000  C
  C4       1.0000 0.20312  0.68630  0.92360  Biso   1.000  C
  C5       1.0000 0.70312  0.81370  0.42360  Biso   1.000  C
  C6       1.0000 0.20312  0.31370  0.42360  Biso   1.000  C
  C7       1.0000 0.29688  0.81370  0.07640  Biso   1.000  C
  C8       1.0000 0.79688  0.31370  0.07640  Biso   1.000  C
  H1       1.0000 0.32900  0.14250  0.62870  Biso   1.000  H
  H2       1.0000 0.82900  0.64250  0.62870  Biso   1.000  H
  H3       1.0000 0.67100  0.14250  0.87130  Biso   1.000  H
  H4       1.0000 0.17100  0.64250  0.87130  Biso   1.000  H
  H5       1.0000 0.67100  0.85750  0.37130  Biso   1.000  H
  H6       1.0000 0.17100  0.35750  0.37130  Biso   1.000  H
  H7       1.0000 0.32900  0.85750  0.12870  Biso   1.000  H
  H8       1.0000 0.82900  0.35750  0.12870  Biso   1.000  H
  C9       1.0000 0.29953  0.18450  0.05180  Biso   1.000  C
  C10      1.0000 0.79953  0.68450  0.05180  Biso   1.000  C
  C11      1.0000 0.70047  0.18450  0.44820  Biso   1.000  C
  C12      1.0000 0.20047  0.68450  0.44820  Biso   1.000  C
  C13      1.0000 0.70047  0.81550  0.94820  Biso   1.000  C
  C14      1.0000 0.20047  0.31550  0.94820  Biso   1.000  C
  C15      1.0000 0.29953  0.81550  0.55180  Biso   1.000  C
  C16      1.0000 0.79953  0.31550  0.55180  Biso   1.000  C
  H9       1.0000 0.33340  0.13920  0.08760  Biso   1.000  H
  H10      1.0000 0.83340  0.63920  0.08760  Biso   1.000  H
  H11      1.0000 0.66660  0.13920  0.41240  Biso   1.000  H
  H12      1.0000 0.16660  0.63920  0.41240  Biso   1.000  H
  H13      1.0000 0.66660  0.86080  0.91240  Biso   1.000  H
  H14      1.0000 0.16660  0.36080  0.91240  Biso   1.000  H
  H15      1.0000 0.33340  0.86080  0.58760  Biso   1.000  H
  H16      1.0000 0.83340  0.36080  0.58760  Biso   1.000  H
  C17      1.0000 0.49245  0.44130  0.18160  Biso   1.000  C
  C18      1.0000 0.99245  0.94130  0.18160  Biso   1.000  C
  C19      1.0000 0.50755  0.44130  0.31840  Biso   1.000  C
  C20      1.0000 0.00755  0.94130  0.31840  Biso   1.000  C
  C21      1.0000 0.50755  0.55870  0.81840  Biso   1.000  C
  C22      1.0000 0.00755  0.05870  0.81840  Biso   1.000  C
  C23      1.0000 0.49245  0.55870  0.68160  Biso   1.000  C
  C24      1.0000 0.99245  0.05870  0.68160  Biso   1.000  C
  H17      1.0000 0.48740  0.50710  0.13500  Biso   1.000  H
  H18      1.0000 0.98740  0.00710  0.13500  Biso   1.000  H
  H19      1.0000 0.51260  0.50710  0.36500  Biso   1.000  H
  H20      1.0000 0.01260  0.00710  0.36500  Biso   1.000  H
  H21      1.0000 0.51260  0.49290  0.86500  Biso   1.000  H
  H22      1.0000 0.01260  0.99290  0.86500  Biso   1.000  H
  H23      1.0000 0.48740  0.49290  0.63500  Biso   1.000  H
  H24      1.0000 0.98740  0.99290  0.63500  Biso   1.000  H
  Cu1      1.0000 0.38779  0.31919  0.86626  Biso   1.000  Cu
  Cu2      1.0000 0.88779  0.81919  0.86626  Biso   1.000  Cu
  Cu3      1.0000 0.61221  0.31919  0.63374  Biso   1.000  Cu
  Cu4      1.0000 0.11221  0.81919  0.63374  Biso   1.000  Cu
  Cu5      1.0000 0.61221  0.68081  0.13374  Biso   1.000  Cu
  Cu6      1.0000 0.11221  0.18081  0.13374  Biso   1.000  Cu
  Cu7      1.0000 0.38779  0.68081  0.36626  Biso   1.000  Cu
  Cu8      1.0000 0.88779  0.18081  0.36626  Biso   1.000  Cu
  Cl1      1.0000 0.34778  0.59828  0.85211  Biso   1.000  Cl
  Cl2      1.0000 0.84778  0.09828  0.85211  Biso   1.000  Cl
  Cl3      1.0000 0.65222  0.59828  0.64789  Biso   1.000  Cl
  Cl4      1.0000 0.15222  0.09828  0.64789  Biso   1.000  Cl
  Cl5      1.0000 0.65222  0.40172  0.14789  Biso   1.000  Cl
  Cl6      1.0000 0.15222  0.90172  0.14789  Biso   1.000  Cl
  Cl7      1.0000 0.34778  0.40172  0.35211  Biso   1.000  Cl
  Cl8      1.0000 0.84778  0.90172  0.35211  Biso   1.000  Cl
  Cl9      1.0000 0.39804  0.00580  0.89290  Biso   1.000  Cl
  Cl10     1.0000 0.89804  0.50580  0.89290  Biso   1.000  Cl
  Cl11     1.0000 0.60196  0.00580  0.60710  Biso   1.000  Cl
  Cl12     1.0000 0.10196  0.50580  0.60710  Biso   1.000  Cl
  Cl13     1.0000 0.60196  0.99420  0.10710  Biso   1.000  Cl
  Cl14     1.0000 0.10196  0.49420  0.10710  Biso   1.000  Cl
  Cl15     1.0000 0.39804  0.99420  0.39290  Biso   1.000  Cl
  Cl16     1.0000 0.89804  0.49420  0.39290  Biso   1.000  Cl
  O1       1.0000 0.41922  0.31510  0.71885  Biso   1.000  O
  O2       1.0000 0.91922  0.81510  0.71885  Biso   1.000  O
  O3       1.0000 0.58078  0.31510  0.78115  Biso   1.000  O
  O4       1.0000 0.08078  0.81510  0.78115  Biso   1.000  O
  O5       1.0000 0.58078  0.68490  0.28115  Biso   1.000  O
  O6       1.0000 0.08078  0.18490  0.28115  Biso   1.000  O
  O7       1.0000 0.41922  0.68490  0.21885  Biso   1.000  O
  O8       1.0000 0.91922  0.18490  0.21885  Biso   1.000  O
  H25      1.0000 0.44470  0.26180  0.71580  Biso   1.000  H
  H26      1.0000 0.94470  0.76180  0.71580  Biso   1.000  H
  H27      1.0000 0.55530  0.26180  0.78420  Biso   1.000  H
  H28      1.0000 0.05530  0.76180  0.78420  Biso   1.000  H
  H29      1.0000 0.55530  0.73820  0.28420  Biso   1.000  H
  H30      1.0000 0.05530  0.23820  0.28420  Biso   1.000  H
  H31      1.0000 0.44470  0.73820  0.21580  Biso   1.000  H
  H32      1.0000 0.94470  0.23820  0.21580  Biso   1.000  H
  H33      1.0000 0.40390  0.34230  0.63670  Biso   1.000  H
  H34      1.0000 0.90390  0.84230  0.63670  Biso   1.000  H
  H35      1.0000 0.59610  0.34230  0.86330  Biso   1.000  H
  H36      1.0000 0.09610  0.84230  0.86330  Biso   1.000  H
  H37      1.0000 0.59610  0.65770  0.36330  Biso   1.000  H
  H38      1.0000 0.09610  0.15770  0.36330  Biso   1.000  H
  H39      1.0000 0.40390  0.65770  0.13670  Biso   1.000  H
  H40      1.0000 0.90390  0.15770  0.13670  Biso   1.000  H
  O9       1.0000 0.47184  0.34669  0.98339  Biso   1.000  O
  O10      1.0000 0.97184  0.84669  0.98339  Biso   1.000  O
  O11      1.0000 0.52816  0.34669  0.51661  Biso   1.000  O
  O12      1.0000 0.02816  0.84669  0.51661  Biso   1.000  O
  O13      1.0000 0.52816  0.65331  0.01661  Biso   1.000  O
  O14      1.0000 0.02816  0.15331  0.01661  Biso   1.000  O
  O15      1.0000 0.47184  0.65331  0.48339  Biso   1.000  O
  O16      1.0000 0.97184  0.15331  0.48339  Biso   1.000  O
  O17      1.0000 0.36149  0.32038  0.02150  Biso   1.000  O
  O18      1.0000 0.86149  0.82038  0.02150  Biso   1.000  O
  O19      1.0000 0.63851  0.32038  0.47850  Biso   1.000  O
  O20      1.0000 0.13851  0.82038  0.47850  Biso   1.000  O
  O21      1.0000 0.63851  0.67962  0.97850  Biso   1.000  O
  O22      1.0000 0.13851  0.17962  0.97850  Biso   1.000  O
  O23      1.0000 0.36149  0.67962  0.52150  Biso   1.000  O
  O24      1.0000 0.86149  0.17962  0.52150  Biso   1.000  O
  O25      1.0000 0.30285  0.29320  0.76063  Biso   1.000  O
  O26      1.0000 0.80285  0.79320  0.76063  Biso   1.000  O
  O27      1.0000 0.69715  0.29320  0.73937  Biso   1.000  O
  O28      1.0000 0.19715  0.79320  0.73937  Biso   1.000  O
  O29      1.0000 0.69715  0.70680  0.23937  Biso   1.000  O
  O30      1.0000 0.19715  0.20680  0.23937  Biso   1.000  O
  O31      1.0000 0.30285  0.70680  0.26063  Biso   1.000  O
  O32      1.0000 0.80285  0.20680  0.26063  Biso   1.000  O
  N1       1.0000 0.48499  0.34659  0.11530  Biso   1.000  N
  N2       1.0000 0.98499  0.84659  0.11530  Biso   1.000  N
  N3       1.0000 0.51501  0.34659  0.38470  Biso   1.000  N
  N4       1.0000 0.01501  0.84659  0.38470  Biso   1.000  N
  N5       1.0000 0.51501  0.65341  0.88470  Biso   1.000  N
  N6       1.0000 0.01501  0.15341  0.88470  Biso   1.000  N
  N7       1.0000 0.48499  0.65341  0.61530  Biso   1.000  N
  N8       1.0000 0.98499  0.15341  0.61530  Biso   1.000  N
  N9       1.0000 0.27824  0.27206  0.63132  Biso   1.000  N
  N10      1.0000 0.77824  0.77206  0.63132  Biso   1.000  N
  N11      1.0000 0.72176  0.27206  0.86868  Biso   1.000  N
  N12      1.0000 0.22176  0.77206  0.86868  Biso   1.000  N
  N13      1.0000 0.72176  0.72794  0.36868  Biso   1.000  N
  N14      1.0000 0.22176  0.22794  0.36868  Biso   1.000  N
  N15      1.0000 0.27824  0.72794  0.13132  Biso   1.000  N
  N16      1.0000 0.77824  0.22794  0.13132  Biso   1.000  N
  N17      1.0000 0.30626  0.28527  0.00953  Biso   1.000  N
  N18      1.0000 0.80626  0.78527  0.00953  Biso   1.000  N
  N19      1.0000 0.69374  0.28527  0.49047  Biso   1.000  N
  N20      1.0000 0.19374  0.78527  0.49047  Biso   1.000  N
  N21      1.0000 0.69374  0.71473  0.99047  Biso   1.000  N
  N22      1.0000 0.19374  0.21473  0.99047  Biso   1.000  N
  N23      1.0000 0.30626  0.71473  0.50953  Biso   1.000  N
  N24      1.0000 0.80626  0.21473  0.50953  Biso   1.000  N
  O33      1.0000 0.34099  0.98720  0.78960  Biso   1.000  O
  O34      1.0000 0.84099  0.48720  0.78960  Biso   1.000  O
  O35      1.0000 0.65901  0.98720  0.71040  Biso   1.000  O
  O36      1.0000 0.15901  0.48720  0.71040  Biso   1.000  O
  O37      1.0000 0.65901  0.01280  0.21040  Biso   1.000  O
  O38      1.0000 0.15901  0.51280  0.21040  Biso   1.000  O
  O39      1.0000 0.34099  0.01280  0.28960  Biso   1.000  O
  O40      1.0000 0.84099  0.51280  0.28960  Biso   1.000  O
  C25      1.0000 0.26806  0.16460  0.44290  Biso   1.000  C
  C26      1.0000 0.76806  0.66460  0.44290  Biso   1.000  C
  C27      1.0000 0.73194  0.16460  0.05710  Biso   1.000  C
  C28      1.0000 0.23194  0.66460  0.05710  Biso   1.000  C
  C29      1.0000 0.73194  0.83540  0.55710  Biso   1.000  C
  C30      1.0000 0.23194  0.33540  0.55710  Biso   1.000  C
  C31      1.0000 0.26806  0.83540  0.94290  Biso   1.000  C
  C32      1.0000 0.76806  0.33540  0.94290  Biso   1.000  C
  H41      1.0000 0.28060  0.10570  0.40350  Biso   1.000  H
  H42      1.0000 0.78060  0.60570  0.40350  Biso   1.000  H
  H43      1.0000 0.71940  0.10570  0.09650  Biso   1.000  H
  H44      1.0000 0.21940  0.60570  0.09650  Biso   1.000  H
  H45      1.0000 0.71940  0.89430  0.59650  Biso   1.000  H
  H46      1.0000 0.21940  0.39430  0.59650  Biso   1.000  H
  H47      1.0000 0.28060  0.89430  0.90350  Biso   1.000  H
  H48      1.0000 0.78060  0.39430  0.90350  Biso   1.000  H
  O41      1.0000 0.50000  0.15380  0.75000  Biso   1.000  O
  O42      1.0000 0.00000  0.65380  0.75000  Biso   1.000  O
  O43      1.0000 0.50000  0.84620  0.25000  Biso   1.000  O
  O44      1.0000 0.00000  0.34620  0.25000  Biso   1.000  O
  H49      1.0000 0.49940  0.10670  0.81430  Biso   1.000  H
  H50      1.0000 0.99940  0.60670  0.81430  Biso   1.000  H
  H51      1.0000 0.50060  0.10670  0.68570  Biso   1.000  H
  H52      1.0000 0.00060  0.60670  0.68570  Biso   1.000  H
  H53      1.0000 0.50060  0.89330  0.18570  Biso   1.000  H
  H54      1.0000 0.00060  0.39330  0.18570  Biso   1.000  H
  H55      1.0000 0.49940  0.89330  0.31430  Biso   1.000  H
  H56      1.0000 0.99940  0.39330  0.31430  Biso   1.000  H
  C33      1.0000 0.49236  0.25150  0.18200  Biso   1.000  C
  C34      1.0000 0.99236  0.75150  0.18200  Biso   1.000  C
  C35      1.0000 0.50764  0.25150  0.31800  Biso   1.000  C
  C36      1.0000 0.00764  0.75150  0.31800  Biso   1.000  C
  C37      1.0000 0.50764  0.74850  0.81800  Biso   1.000  C
  C38      1.0000 0.00764  0.24850  0.81800  Biso   1.000  C
  C39      1.0000 0.49236  0.74850  0.68200  Biso   1.000  C
  C40      1.0000 0.99236  0.24850  0.68200  Biso   1.000  C
  H57      1.0000 0.48700  0.18570  0.13540  Biso   1.000  H
  H58      1.0000 0.98700  0.68570  0.13540  Biso   1.000  H
  H59      1.0000 0.51300  0.18570  0.36460  Biso   1.000  H
  H60      1.0000 0.01300  0.68570  0.36460  Biso   1.000  H
  H61      1.0000 0.51300  0.81430  0.86460  Biso   1.000  H
  H62      1.0000 0.01300  0.31430  0.86460  Biso   1.000  H
  H63      1.0000 0.48700  0.81430  0.63540  Biso   1.000  H
  H64      1.0000 0.98700  0.31430  0.63540  Biso   1.000  H
  O45      1.0000 0.34599  0.58630  0.98490  Biso   1.000  O
  O46      1.0000 0.84599  0.08630  0.98490  Biso   1.000  O
  O47      1.0000 0.65401  0.58630  0.51510  Biso   1.000  O
  O48      1.0000 0.15401  0.08630  0.51510  Biso   1.000  O
  O49      1.0000 0.65401  0.41370  0.01510  Biso   1.000  O
  O50      1.0000 0.15401  0.91370  0.01510  Biso   1.000  O
  O51      1.0000 0.34599  0.41370  0.48490  Biso   1.000  O
  O52      1.0000 0.84599  0.91370  0.48490  Biso   1.000  O
  C41      1.0000 0.24247  0.14870  0.04200  Biso   1.000  C
  C42      1.0000 0.74247  0.64870  0.04200  Biso   1.000  C
  C43      1.0000 0.75753  0.14870  0.45800  Biso   1.000  C
  C44      1.0000 0.25753  0.64870  0.45800  Biso   1.000  C
  C45      1.0000 0.75753  0.85130  0.95800  Biso   1.000  C
  C46      1.0000 0.25753  0.35130  0.95800  Biso   1.000  C
  C47      1.0000 0.24247  0.85130  0.54200  Biso   1.000  C
  C48      1.0000 0.74247  0.35130  0.54200  Biso   1.000  C
  H65      1.0000 0.23740  0.07870  0.07090  Biso   1.000  H
  H66      1.0000 0.73740  0.57870  0.07090  Biso   1.000  H
  H67      1.0000 0.76260  0.07870  0.42910  Biso   1.000  H
  H68      1.0000 0.26260  0.57870  0.42910  Biso   1.000  H
  H69      1.0000 0.76260  0.92130  0.92910  Biso   1.000  H
  H70      1.0000 0.26260  0.42130  0.92910  Biso   1.000  H
  H71      1.0000 0.23740  0.92130  0.57090  Biso   1.000  H
  H72      1.0000 0.73740  0.42130  0.57090  Biso   1.000  H
  O53      1.0000 0.41198  0.11960  0.90450  Biso   1.000  O
  O54      1.0000 0.91198  0.61960  0.90450  Biso   1.000  O
  O55      1.0000 0.58802  0.11960  0.59550  Biso   1.000  O
  O56      1.0000 0.08802  0.61960  0.59550  Biso   1.000  O
  O57      1.0000 0.58802  0.88040  0.09550  Biso   1.000  O
  O58      1.0000 0.08802  0.38040  0.09550  Biso   1.000  O
  O59      1.0000 0.41198  0.88040  0.40450  Biso   1.000  O
  O60      1.0000 0.91198  0.38040  0.40450  Biso   1.000  O
  O61      1.0000 0.28693  0.58610  0.76130  Biso   1.000  O
  O62      1.0000 0.78693  0.08610  0.76130  Biso   1.000  O
  O63      1.0000 0.71307  0.58610  0.73870  Biso   1.000  O
  O64      1.0000 0.21307  0.08610  0.73870  Biso   1.000  O
  O65      1.0000 0.71307  0.41390  0.23870  Biso   1.000  O
  O66      1.0000 0.21307  0.91390  0.23870  Biso   1.000  O
  O67      1.0000 0.28693  0.41390  0.26130  Biso   1.000  O
  O68      1.0000 0.78693  0.91390  0.26130  Biso   1.000  O
  O69      1.0000 0.38436  0.51520  0.82500  Biso   1.000  O
  O70      1.0000 0.88436  0.01520  0.82500  Biso   1.000  O
  O71      1.0000 0.61564  0.51520  0.67500  Biso   1.000  O
  O72      1.0000 0.11564  0.01520  0.67500  Biso   1.000  O
  O73      1.0000 0.61564  0.48480  0.17500  Biso   1.000  O
  O74      1.0000 0.11564  0.98480  0.17500  Biso   1.000  O
  O75      1.0000 0.38436  0.48480  0.32500  Biso   1.000  O
  O76      1.0000 0.88436  0.98480  0.32500  Biso   1.000  O
  O77      1.0000 0.39623  0.96580  0.01480  Biso   1.000  O
  O78      1.0000 0.89623  0.46580  0.01480  Biso   1.000  O
  O79      1.0000 0.60377  0.96580  0.48520  Biso   1.000  O
  O80      1.0000 0.10377  0.46580  0.48520  Biso   1.000  O
  O81      1.0000 0.60377  0.03420  0.98520  Biso   1.000  O
  O82      1.0000 0.10377  0.53420  0.98520  Biso   1.000  O
  O83      1.0000 0.39623  0.03420  0.51480  Biso   1.000  O
  O84      1.0000 0.89623  0.53420  0.51480  Biso   1.000  O
  O85      1.0000 0.37018  0.70230  0.83470  Biso   1.000  O
  O86      1.0000 0.87018  0.20230  0.83470  Biso   1.000  O
  O87      1.0000 0.62982  0.70230  0.66530  Biso   1.000  O
  O88      1.0000 0.12982  0.20230  0.66530  Biso   1.000  O
  O89      1.0000 0.62982  0.29770  0.16530  Biso   1.000  O
  O90      1.0000 0.12982  0.79770  0.16530  Biso   1.000  O
  O91      1.0000 0.37018  0.29770  0.33470  Biso   1.000  O
  O92      1.0000 0.87018  0.79770  0.33470  Biso   1.000  O
  O93      1.0000 0.44420  0.95470  0.85800  Biso   1.000  O
  O94      1.0000 0.94420  0.45470  0.85800  Biso   1.000  O
  O95      1.0000 0.55580  0.95470  0.64200  Biso   1.000  O
  O96      1.0000 0.05580  0.45470  0.64200  Biso   1.000  O
  O97      1.0000 0.55580  0.04530  0.14200  Biso   1.000  O
  O98      1.0000 0.05580  0.54530  0.14200  Biso   1.000  O
  O99      1.0000 0.44420  0.04530  0.35800  Biso   1.000  O
  O100     1.0000 0.94420  0.54530  0.35800  Biso   1.000  O
