data_image0
_cell_length_a       18.751
_cell_length_b       18.751
_cell_length_c       13.6077
_cell_angle_alpha    90
_cell_angle_beta     90
_cell_angle_gamma    120

_symmetry_space_group_name_H-M    "P 1"
_symmetry_int_tables_number       1

loop_
  _symmetry_equiv_pos_as_xyz
  'x, y, z'

loop_
  _atom_site_label
  _atom_site_occupancy
  _atom_site_fract_x
  _atom_site_fract_y
  _atom_site_fract_z
  _atom_site_thermal_displace_type
  _atom_site_B_iso_or_equiv
  _atom_site_type_symbol
  Cu1      1.0000 0.58039  0.44393  0.70968  Biso   1.000  Cu
  Cu2      1.0000 0.55607  0.13646  0.70968  Biso   1.000  Cu
  Cu3      1.0000 0.86354  0.41961  0.70968  Biso   1.000  Cu
  Cu4      1.0000 0.41961  0.55607  0.20968  Biso   1.000  Cu
  Cu5      1.0000 0.44393  0.86354  0.20968  Biso   1.000  Cu
  Cu6      1.0000 0.13646  0.58039  0.20968  Biso   1.000  Cu
  Cu7      1.0000 0.58371  0.44707  0.44997  Biso   1.000  Cu
  Cu8      1.0000 0.55293  0.13664  0.44997  Biso   1.000  Cu
  Cu9      1.0000 0.86336  0.41629  0.44997  Biso   1.000  Cu
  Cu10     1.0000 0.41629  0.55293  0.94997  Biso   1.000  Cu
  Cu11     1.0000 0.44707  0.86336  0.94997  Biso   1.000  Cu
  Cu12     1.0000 0.13664  0.58371  0.94997  Biso   1.000  Cu
  Ca1      1.0000 0.66670  0.33330  0.57960  Biso   1.000  Ca
  Ca2      1.0000 0.33330  0.66670  0.07960  Biso   1.000  Ca
  O1       1.0000 0.64170  0.46540  0.58230  Biso   1.000  O
  O2       1.0000 0.53460  0.17630  0.58230  Biso   1.000  O
  O3       1.0000 0.82370  0.35830  0.58230  Biso   1.000  O
  O4       1.0000 0.35830  0.53460  0.08230  Biso   1.000  O
  O5       1.0000 0.46540  0.82370  0.08230  Biso   1.000  O
  O6       1.0000 0.17630  0.64170  0.08230  Biso   1.000  O
  O7       1.0000 0.43890  0.67560  0.21520  Biso   1.000  O
  O8       1.0000 0.32440  0.76330  0.21520  Biso   1.000  O
  O9       1.0000 0.23670  0.56110  0.21520  Biso   1.000  O
  O10      1.0000 0.56110  0.32440  0.71520  Biso   1.000  O
  O11      1.0000 0.67560  0.23670  0.71520  Biso   1.000  O
  O12      1.0000 0.76330  0.43890  0.71520  Biso   1.000  O
  N1       1.0000 0.56260  0.32530  0.44910  Biso   1.000  N
  N2       1.0000 0.67470  0.23730  0.44910  Biso   1.000  N
  N3       1.0000 0.76270  0.43740  0.44910  Biso   1.000  N
  N4       1.0000 0.43740  0.67470  0.94910  Biso   1.000  N
  N5       1.0000 0.32530  0.76270  0.94910  Biso   1.000  N
  N6       1.0000 0.23730  0.56260  0.94910  Biso   1.000  N
  O13      1.0000 0.57540  0.55710  0.42860  Biso   1.000  O
  O14      1.0000 0.44290  0.01830  0.42860  Biso   1.000  O
  O15      1.0000 0.98170  0.42460  0.42860  Biso   1.000  O
  O16      1.0000 0.42460  0.44290  0.92860  Biso   1.000  O
  O17      1.0000 0.55710  0.98170  0.92860  Biso   1.000  O
  O18      1.0000 0.01830  0.57540  0.92860  Biso   1.000  O
  O19      1.0000 0.42510  0.44590  0.22560  Biso   1.000  O
  O20      1.0000 0.55410  0.97920  0.22560  Biso   1.000  O
  O21      1.0000 0.02080  0.57490  0.22560  Biso   1.000  O
  O22      1.0000 0.57490  0.55410  0.72560  Biso   1.000  O
  O23      1.0000 0.44590  0.02080  0.72560  Biso   1.000  O
  O24      1.0000 0.97920  0.42510  0.72560  Biso   1.000  O
  N7       1.0000 0.50710  0.60140  0.31490  Biso   1.000  N
  N8       1.0000 0.39860  0.90570  0.31490  Biso   1.000  N
  N9       1.0000 0.09430  0.49290  0.31490  Biso   1.000  N
  N10      1.0000 0.49290  0.39860  0.81490  Biso   1.000  N
  N11      1.0000 0.60140  0.09430  0.81490  Biso   1.000  N
  N12      1.0000 0.90570  0.50710  0.81490  Biso   1.000  N
  O25      1.0000 0.50230  0.40560  0.33750  Biso   1.000  O
  O26      1.0000 0.59440  0.09670  0.33750  Biso   1.000  O
  O27      1.0000 0.90330  0.49770  0.33750  Biso   1.000  O
  O28      1.0000 0.49770  0.59440  0.83750  Biso   1.000  O
  O29      1.0000 0.40560  0.90330  0.83750  Biso   1.000  O
  O30      1.0000 0.09670  0.50230  0.83750  Biso   1.000  O
  C1       1.0000 0.50790  0.27420  0.38130  Biso   1.000  C
  C2       1.0000 0.72580  0.23370  0.38130  Biso   1.000  C
  C3       1.0000 0.76630  0.49210  0.38130  Biso   1.000  C
  C4       1.0000 0.49210  0.72580  0.88130  Biso   1.000  C
  C5       1.0000 0.27420  0.76630  0.88130  Biso   1.000  C
  C6       1.0000 0.23370  0.50790  0.88130  Biso   1.000  C
  C7       1.0000 0.49370  0.72530  0.28480  Biso   1.000  C
  C8       1.0000 0.27470  0.76840  0.28480  Biso   1.000  C
  C9       1.0000 0.23160  0.50630  0.28480  Biso   1.000  C
  C10      1.0000 0.50630  0.27470  0.78480  Biso   1.000  C
  C11      1.0000 0.72530  0.23160  0.78480  Biso   1.000  C
  C12      1.0000 0.76840  0.49370  0.78480  Biso   1.000  C
  C13      1.0000 0.54500  0.69280  0.33370  Biso   1.000  C
  C14      1.0000 0.30720  0.85220  0.33370  Biso   1.000  C
  C15      1.0000 0.14780  0.45500  0.33370  Biso   1.000  C
  C16      1.0000 0.45500  0.30720  0.83370  Biso   1.000  C
  C17      1.0000 0.69280  0.14780  0.83370  Biso   1.000  C
  C18      1.0000 0.85220  0.54500  0.83370  Biso   1.000  C
  H1       1.0000 0.53740  0.69710  0.40580  Biso   1.000  H
  H2       1.0000 0.30290  0.84030  0.40580  Biso   1.000  H
  H3       1.0000 0.15970  0.46260  0.40580  Biso   1.000  H
  H4       1.0000 0.46260  0.30290  0.90580  Biso   1.000  H
  H5       1.0000 0.69710  0.15970  0.90580  Biso   1.000  H
  H6       1.0000 0.84030  0.53740  0.90580  Biso   1.000  H
  C19      1.0000 0.46630  0.31390  0.29350  Biso   1.000  C
  C20      1.0000 0.68610  0.15240  0.29350  Biso   1.000  C
  C21      1.0000 0.84760  0.53370  0.29350  Biso   1.000  C
  C22      1.0000 0.53370  0.68610  0.79350  Biso   1.000  C
  C23      1.0000 0.31390  0.84760  0.79350  Biso   1.000  C
  C24      1.0000 0.15240  0.46630  0.79350  Biso   1.000  C
  H7       1.0000 0.40470  0.28250  0.29390  Biso   1.000  H
  H8       1.0000 0.71750  0.12220  0.29390  Biso   1.000  H
  H9       1.0000 0.87780  0.59530  0.29390  Biso   1.000  H
  H10      1.0000 0.59530  0.71750  0.79390  Biso   1.000  H
  H11      1.0000 0.28250  0.87780  0.79390  Biso   1.000  H
  H12      1.0000 0.12220  0.40470  0.79390  Biso   1.000  H
  C25      1.0000 0.47970  0.45760  0.29850  Biso   1.000  C
  C26      1.0000 0.54240  0.02210  0.29850  Biso   1.000  C
  C27      1.0000 0.97790  0.52030  0.29850  Biso   1.000  C
  C28      1.0000 0.52030  0.54240  0.79850  Biso   1.000  C
  C29      1.0000 0.45760  0.97790  0.79850  Biso   1.000  C
  C30      1.0000 0.02210  0.47970  0.79850  Biso   1.000  C
  C31      1.0000 0.52580  0.54470  0.35500  Biso   1.000  C
  C32      1.0000 0.45530  0.98110  0.35500  Biso   1.000  C
  C33      1.0000 0.01890  0.47420  0.35500  Biso   1.000  C
  C34      1.0000 0.47420  0.45530  0.85500  Biso   1.000  C
  C35      1.0000 0.54470  0.01890  0.85500  Biso   1.000  C
  C36      1.0000 0.98110  0.52580  0.85500  Biso   1.000  C
  O31      1.0000 0.50590  0.80000  0.30540  Biso   1.000  O
  O32      1.0000 0.20000  0.70590  0.30540  Biso   1.000  O
  O33      1.0000 0.29410  0.49410  0.30540  Biso   1.000  O
  O34      1.0000 0.49410  0.20000  0.80540  Biso   1.000  O
  O35      1.0000 0.80000  0.29410  0.80540  Biso   1.000  O
  O36      1.0000 0.70590  0.50590  0.80540  Biso   1.000  O
  O37      1.0000 0.48500  0.19760  0.36980  Biso   1.000  O
  O38      1.0000 0.80240  0.28740  0.36980  Biso   1.000  O
  O39      1.0000 0.71260  0.51500  0.36980  Biso   1.000  O
  O40      1.0000 0.51500  0.80240  0.86980  Biso   1.000  O
  O41      1.0000 0.19760  0.71260  0.86980  Biso   1.000  O
  O42      1.0000 0.28740  0.48500  0.86980  Biso   1.000  O
  C37      1.0000 0.63830  0.74470  0.31740  Biso   1.000  C
  C38      1.0000 0.25530  0.89360  0.31740  Biso   1.000  C
  C39      1.0000 0.10640  0.36170  0.31740  Biso   1.000  C
  C40      1.0000 0.36170  0.25530  0.81740  Biso   1.000  C
  C41      1.0000 0.74470  0.10640  0.81740  Biso   1.000  C
  C42      1.0000 0.89360  0.63830  0.81740  Biso   1.000  C
  H13      1.0000 0.65870  0.80070  0.34390  Biso   1.000  H
  H14      1.0000 0.19930  0.85800  0.34390  Biso   1.000  H
  H15      1.0000 0.14200  0.34130  0.34390  Biso   1.000  H
  H16      1.0000 0.34130  0.19930  0.84390  Biso   1.000  H
  H17      1.0000 0.80070  0.14200  0.84390  Biso   1.000  H
  H18      1.0000 0.85800  0.65870  0.84390  Biso   1.000  H
  H19      1.0000 0.66610  0.71960  0.35360  Biso   1.000  H
  H20      1.0000 0.28040  0.94650  0.35360  Biso   1.000  H
  H21      1.0000 0.05350  0.33390  0.35360  Biso   1.000  H
  H22      1.0000 0.33390  0.28040  0.85360  Biso   1.000  H
  H23      1.0000 0.71960  0.05350  0.85360  Biso   1.000  H
  H24      1.0000 0.94650  0.66610  0.85360  Biso   1.000  H
  S1       1.0000 0.65100  0.80300  0.10100  Biso   1.000  S
  S2       1.0000 0.19700  0.84800  0.10100  Biso   1.000  S
  S3       1.0000 0.15200  0.34900  0.10100  Biso   1.000  S
  S4       1.0000 0.34900  0.19700  0.60100  Biso   1.000  S
  S5       1.0000 0.80300  0.15200  0.60100  Biso   1.000  S
  S6       1.0000 0.84800  0.65100  0.60100  Biso   1.000  S
  S7       1.0000 0.59630  0.24170  0.03620  Biso   1.000  S
  S8       1.0000 0.75830  0.35460  0.03620  Biso   1.000  S
  S9       1.0000 0.64540  0.40370  0.03620  Biso   1.000  S
  S10      1.0000 0.40370  0.75830  0.53620  Biso   1.000  S
  S11      1.0000 0.24170  0.64540  0.53620  Biso   1.000  S
  S12      1.0000 0.35460  0.59630  0.53620  Biso   1.000  S
  C43      1.0000 0.65900  0.75000  0.21200  Biso   1.000  C
  C44      1.0000 0.25000  0.90900  0.21200  Biso   1.000  C
  C45      1.0000 0.09100  0.34100  0.21200  Biso   1.000  C
  C46      1.0000 0.34100  0.25000  0.71200  Biso   1.000  C
  C47      1.0000 0.75000  0.09100  0.71200  Biso   1.000  C
  C48      1.0000 0.90900  0.65900  0.71200  Biso   1.000  C
  H25      1.0000 0.63130  0.69170  0.19130  Biso   1.000  H
  H26      1.0000 0.30830  0.93960  0.19130  Biso   1.000  H
  H27      1.0000 0.06040  0.36870  0.19130  Biso   1.000  H
  H28      1.0000 0.36870  0.30830  0.69130  Biso   1.000  H
  H29      1.0000 0.69170  0.06040  0.69130  Biso   1.000  H
  H30      1.0000 0.93960  0.63130  0.69130  Biso   1.000  H
  H31      1.0000 0.71870  0.76770  0.21320  Biso   1.000  H
  H32      1.0000 0.23230  0.95100  0.21320  Biso   1.000  H
  H33      1.0000 0.04900  0.28130  0.21320  Biso   1.000  H
  H34      1.0000 0.28130  0.23230  0.71320  Biso   1.000  H
  H35      1.0000 0.76770  0.04900  0.71320  Biso   1.000  H
  H36      1.0000 0.95100  0.71870  0.71320  Biso   1.000  H
  C49      1.0000 0.50200  0.30700  0.19200  Biso   1.000  C
  C50      1.0000 0.69300  0.19500  0.19200  Biso   1.000  C
  C51      1.0000 0.80500  0.49800  0.19200  Biso   1.000  C
  C52      1.0000 0.49800  0.69300  0.69200  Biso   1.000  C
  C53      1.0000 0.30700  0.80500  0.69200  Biso   1.000  C
  C54      1.0000 0.19500  0.50200  0.69200  Biso   1.000  C
  H37      1.0000 0.46380  0.30970  0.14410  Biso   1.000  H
  H38      1.0000 0.69030  0.15410  0.14410  Biso   1.000  H
  H39      1.0000 0.84590  0.53620  0.14410  Biso   1.000  H
  H40      1.0000 0.53620  0.69030  0.64410  Biso   1.000  H
  H41      1.0000 0.30970  0.84590  0.64410  Biso   1.000  H
  H42      1.0000 0.15410  0.46380  0.64410  Biso   1.000  H
  H43      1.0000 0.55360  0.36020  0.18630  Biso   1.000  H
  H44      1.0000 0.63980  0.19340  0.18630  Biso   1.000  H
  H45      1.0000 0.80660  0.44640  0.18630  Biso   1.000  H
  H46      1.0000 0.44640  0.63980  0.68630  Biso   1.000  H
  H47      1.0000 0.36020  0.80660  0.68630  Biso   1.000  H
  H48      1.0000 0.19340  0.55360  0.68630  Biso   1.000  H
  C55      1.0000 0.52400  0.24500  0.14300  Biso   1.000  C
  C56      1.0000 0.75500  0.27900  0.14300  Biso   1.000  C
  C57      1.0000 0.72100  0.47600  0.14300  Biso   1.000  C
  C58      1.0000 0.47600  0.75500  0.64300  Biso   1.000  C
  C59      1.0000 0.24500  0.72100  0.64300  Biso   1.000  C
  C60      1.0000 0.27900  0.52400  0.64300  Biso   1.000  C
  H49      1.0000 0.46910  0.19960  0.12410  Biso   1.000  H
  H50      1.0000 0.80040  0.26950  0.12410  Biso   1.000  H
  H51      1.0000 0.73050  0.53090  0.12410  Biso   1.000  H
  H52      1.0000 0.53090  0.80040  0.62410  Biso   1.000  H
  H53      1.0000 0.19960  0.73050  0.62410  Biso   1.000  H
  H54      1.0000 0.26950  0.46910  0.62410  Biso   1.000  H
  H55      1.0000 0.54040  0.22440  0.20040  Biso   1.000  H
  H56      1.0000 0.77560  0.31600  0.20040  Biso   1.000  H
  H57      1.0000 0.68400  0.45960  0.20040  Biso   1.000  H
  H58      1.0000 0.45960  0.77560  0.70040  Biso   1.000  H
  H59      1.0000 0.22440  0.68400  0.70040  Biso   1.000  H
  H60      1.0000 0.31600  0.54040  0.70040  Biso   1.000  H
  C61      1.0000 0.72100  0.80200  0.00500  Biso   1.000  C
  C62      1.0000 0.19800  0.91900  0.00500  Biso   1.000  C
  C63      1.0000 0.08100  0.27900  0.00500  Biso   1.000  C
  C64      1.0000 0.27900  0.19800  0.50500  Biso   1.000  C
  C65      1.0000 0.80200  0.08100  0.50500  Biso   1.000  C
  C66      1.0000 0.91900  0.72100  0.50500  Biso   1.000  C
  H61      1.0000 0.75900  0.85890  0.98370  Biso   1.000  H
  H62      1.0000 0.14110  0.90010  0.98370  Biso   1.000  H
  H63      1.0000 0.09990  0.24100  0.98370  Biso   1.000  H
  H64      1.0000 0.24100  0.14110  0.48370  Biso   1.000  H
  H65      1.0000 0.85890  0.09990  0.48370  Biso   1.000  H
  H66      1.0000 0.90010  0.75900  0.48370  Biso   1.000  H
  H67      1.0000 0.68910  0.76920  0.94930  Biso   1.000  H
  H68      1.0000 0.23080  0.91990  0.94930  Biso   1.000  H
  H69      1.0000 0.08010  0.31090  0.94930  Biso   1.000  H
  H70      1.0000 0.31090  0.23080  0.44930  Biso   1.000  H
  H71      1.0000 0.76920  0.08010  0.44930  Biso   1.000  H
  H72      1.0000 0.91990  0.68910  0.44930  Biso   1.000  H
  H73      1.0000 0.75340  0.77880  0.03290  Biso   1.000  H
  H74      1.0000 0.22120  0.97460  0.03290  Biso   1.000  H
  H75      1.0000 0.02540  0.24660  0.03290  Biso   1.000  H
  H76      1.0000 0.24660  0.22120  0.53290  Biso   1.000  H
  H77      1.0000 0.77880  0.02540  0.53290  Biso   1.000  H
  H78      1.0000 0.97460  0.75340  0.53290  Biso   1.000  H
  C67      1.0000 0.54200  0.25000  0.92400  Biso   1.000  C
  C68      1.0000 0.75000  0.29200  0.92400  Biso   1.000  C
  C69      1.0000 0.70800  0.45800  0.92400  Biso   1.000  C
  C70      1.0000 0.45800  0.75000  0.42400  Biso   1.000  C
  C71      1.0000 0.25000  0.70800  0.42400  Biso   1.000  C
  C72      1.0000 0.29200  0.54200  0.42400  Biso   1.000  C
  H79      1.0000 0.55630  0.30740  0.91460  Biso   1.000  H
  H80      1.0000 0.69260  0.24890  0.91460  Biso   1.000  H
  H81      1.0000 0.75110  0.44370  0.91460  Biso   1.000  H
  H82      1.0000 0.44370  0.69260  0.41460  Biso   1.000  H
  H83      1.0000 0.30740  0.75110  0.41460  Biso   1.000  H
  H84      1.0000 0.24890  0.55630  0.41460  Biso   1.000  H
  H85      1.0000 0.48260  0.21530  0.93200  Biso   1.000  H
  H86      1.0000 0.78470  0.26730  0.93200  Biso   1.000  H
  H87      1.0000 0.73270  0.51740  0.93200  Biso   1.000  H
  H88      1.0000 0.51740  0.78470  0.43200  Biso   1.000  H
  H89      1.0000 0.21530  0.73270  0.43200  Biso   1.000  H
  H90      1.0000 0.26730  0.48260  0.43200  Biso   1.000  H
  Pt1      1.0000 0.66670  0.33330  0.16450  Biso   1.000  Pt
  Pt2      1.0000 0.33330  0.66670  0.66450  Biso   1.000  Pt
  Cl1      1.0000 0.66670  0.33330  0.35000  Biso   1.000  Cl
  Cl2      1.0000 0.33330  0.66670  0.85000  Biso   1.000  Cl
  O43      1.0000 0.32290  0.00630  0.58700  Biso   1.000  O
  O44      1.0000 0.99370  0.31660  0.58700  Biso   1.000  O
  O45      1.0000 0.68340  0.67710  0.58700  Biso   1.000  O
  O46      1.0000 0.67710  0.99370  0.08700  Biso   1.000  O
  O47      1.0000 0.00630  0.68340  0.08700  Biso   1.000  O
  O48      1.0000 0.31660  0.32290  0.08700  Biso   1.000  O
  O49      1.0000 0.00000  0.00000  0.63900  Biso   1.000  O
  O50      1.0000 0.00000  0.00000  0.13900  Biso   1.000  O
  Pt3      1.0000 0.60160  0.65540  0.07700  Biso   1.000  Pt
  Pt4      1.0000 0.34460  0.94620  0.07700  Biso   1.000  Pt
  Pt5      1.0000 0.05380  0.39840  0.07700  Biso   1.000  Pt
  Pt6      1.0000 0.39840  0.34460  0.57700  Biso   1.000  Pt
  Pt7      1.0000 0.65540  0.05380  0.57700  Biso   1.000  Pt
  Pt8      1.0000 0.94620  0.60160  0.57700  Biso   1.000  Pt
  H91      1.0000 0.55990  0.23160  0.86590  Biso   1.000  H
  H92      1.0000 0.76840  0.32830  0.86590  Biso   1.000  H
  H93      1.0000 0.67170  0.44010  0.86590  Biso   1.000  H
  H94      1.0000 0.44010  0.76840  0.36590  Biso   1.000  H
  H95      1.0000 0.23160  0.67170  0.36590  Biso   1.000  H
  H96      1.0000 0.32830  0.55990  0.36590  Biso   1.000  H
