data_image0
_cell_length_a       17.4806
_cell_length_b       17.4806
_cell_length_c       13.2938
_cell_angle_alpha    90
_cell_angle_beta     90
_cell_angle_gamma    120

_symmetry_space_group_name_H-M    "P 1"
_symmetry_int_tables_number       1

loop_
  _symmetry_equiv_pos_as_xyz
  'x, y, z'

loop_
  _atom_site_label
  _atom_site_occupancy
  _atom_site_fract_x
  _atom_site_fract_y
  _atom_site_fract_z
  _atom_site_thermal_displace_type
  _atom_site_B_iso_or_equiv
  _atom_site_type_symbol
  Cu1      1.0000 0.13273  0.55812  0.64167  Biso   1.000  Cu
  Cu2      1.0000 0.44188  0.57461  0.64167  Biso   1.000  Cu
  Cu3      1.0000 0.42539  0.86727  0.64167  Biso   1.000  Cu
  Cu4      1.0000 0.86727  0.44188  0.14167  Biso   1.000  Cu
  Cu5      1.0000 0.55812  0.42539  0.14167  Biso   1.000  Cu
  Cu6      1.0000 0.57461  0.13273  0.14167  Biso   1.000  Cu
  Cu7      1.0000 0.13376  0.55234  0.39052  Biso   1.000  Cu
  Cu8      1.0000 0.44766  0.58142  0.39052  Biso   1.000  Cu
  Cu9      1.0000 0.41858  0.86624  0.39052  Biso   1.000  Cu
  Cu10     1.0000 0.86624  0.44766  0.89052  Biso   1.000  Cu
  Cu11     1.0000 0.55234  0.41858  0.89052  Biso   1.000  Cu
  Cu12     1.0000 0.58142  0.13376  0.89052  Biso   1.000  Cu
  Ca1      1.0000 0.33330  0.66670  0.51970  Biso   1.000  Ca
  Ca2      1.0000 0.66670  0.33330  0.01970  Biso   1.000  Ca
  O1       1.0000 0.17160  0.53400  0.52300  Biso   1.000  O
  O2       1.0000 0.46600  0.63760  0.52300  Biso   1.000  O
  O3       1.0000 0.36240  0.82840  0.52300  Biso   1.000  O
  O4       1.0000 0.82840  0.46600  0.02300  Biso   1.000  O
  O5       1.0000 0.53400  0.36240  0.02300  Biso   1.000  O
  O6       1.0000 0.63760  0.17160  0.02300  Biso   1.000  O
  N1       1.0000 0.09550  0.60320  0.74740  Biso   1.000  N
  N2       1.0000 0.39680  0.49230  0.74740  Biso   1.000  N
  N3       1.0000 0.50770  0.90450  0.74740  Biso   1.000  N
  N4       1.0000 0.90450  0.39680  0.24740  Biso   1.000  N
  N5       1.0000 0.60320  0.50770  0.24740  Biso   1.000  N
  N6       1.0000 0.49230  0.09550  0.24740  Biso   1.000  N
  N7       1.0000 0.90460  0.40460  0.77990  Biso   1.000  N
  N8       1.0000 0.59540  0.50000  0.77990  Biso   1.000  N
  N9       1.0000 0.50000  0.09540  0.77990  Biso   1.000  N
  N10      1.0000 0.09540  0.59540  0.27990  Biso   1.000  N
  N11      1.0000 0.40460  0.50000  0.27990  Biso   1.000  N
  N12      1.0000 0.50000  0.90460  0.27990  Biso   1.000  N
  O7       1.0000 0.23770  0.67900  0.64560  Biso   1.000  O
  O8       1.0000 0.32100  0.55870  0.64560  Biso   1.000  O
  O9       1.0000 0.44130  0.76230  0.64560  Biso   1.000  O
  O10      1.0000 0.76230  0.32100  0.14560  Biso   1.000  O
  O11      1.0000 0.67900  0.44130  0.14560  Biso   1.000  O
  O12      1.0000 0.55870  0.23770  0.14560  Biso   1.000  O
  O13      1.0000 0.70920  0.19670  0.81240  Biso   1.000  O
  O14      1.0000 0.80330  0.51250  0.81240  Biso   1.000  O
  O15      1.0000 0.48750  0.29080  0.81240  Biso   1.000  O
  O16      1.0000 0.29080  0.80330  0.31240  Biso   1.000  O
  O17      1.0000 0.19670  0.48750  0.31240  Biso   1.000  O
  O18      1.0000 0.51250  0.70920  0.31240  Biso   1.000  O
  O19      1.0000 0.98250  0.55800  0.87190  Biso   1.000  O
  O20      1.0000 0.44200  0.42450  0.87190  Biso   1.000  O
  O21      1.0000 0.57550  0.01750  0.87190  Biso   1.000  O
  O22      1.0000 0.01750  0.44200  0.37190  Biso   1.000  O
  O23      1.0000 0.55800  0.57550  0.37190  Biso   1.000  O
  O24      1.0000 0.42450  0.98250  0.37190  Biso   1.000  O
  O25      1.0000 0.01270  0.44670  0.66560  Biso   1.000  O
  O26      1.0000 0.55330  0.56600  0.66560  Biso   1.000  O
  O27      1.0000 0.43400  0.98730  0.66560  Biso   1.000  O
  O28      1.0000 0.98730  0.55330  0.16560  Biso   1.000  O
  O29      1.0000 0.44670  0.43400  0.16560  Biso   1.000  O
  O30      1.0000 0.56600  0.01270  0.16560  Biso   1.000  O
  O31      1.0000 0.29510  0.80650  0.73350  Biso   1.000  O
  O32      1.0000 0.19350  0.48860  0.73350  Biso   1.000  O
  O33      1.0000 0.51140  0.70490  0.73350  Biso   1.000  O
  O34      1.0000 0.70490  0.19350  0.23350  Biso   1.000  O
  O35      1.0000 0.80650  0.51140  0.23350  Biso   1.000  O
  O36      1.0000 0.48860  0.29510  0.23350  Biso   1.000  O
  O37      1.0000 0.76520  0.32460  0.89010  Biso   1.000  O
  O38      1.0000 0.67540  0.44060  0.89010  Biso   1.000  O
  O39      1.0000 0.55940  0.23480  0.89010  Biso   1.000  O
  O40      1.0000 0.23480  0.67540  0.39010  Biso   1.000  O
  O41      1.0000 0.32460  0.55940  0.39010  Biso   1.000  O
  O42      1.0000 0.44060  0.76520  0.39010  Biso   1.000  O
  C1       1.0000 0.76970  0.27880  0.82600  Biso   1.000  C
  C2       1.0000 0.72120  0.49090  0.82600  Biso   1.000  C
  C3       1.0000 0.50910  0.23030  0.82600  Biso   1.000  C
  C4       1.0000 0.23030  0.72120  0.32600  Biso   1.000  C
  C5       1.0000 0.27880  0.50910  0.32600  Biso   1.000  C
  C6       1.0000 0.49090  0.76970  0.32600  Biso   1.000  C
  C7       1.0000 0.84570  0.31120  0.75690  Biso   1.000  C
  C8       1.0000 0.68880  0.53450  0.75690  Biso   1.000  C
  C9       1.0000 0.46550  0.15430  0.75690  Biso   1.000  C
  C10      1.0000 0.15430  0.68880  0.25690  Biso   1.000  C
  C11      1.0000 0.31120  0.46550  0.25690  Biso   1.000  C
  C12      1.0000 0.53450  0.84570  0.25690  Biso   1.000  C
  H1       1.0000 0.87570  0.27530  0.75840  Biso   1.000  H
  H2       1.0000 0.72470  0.60040  0.75840  Biso   1.000  H
  H3       1.0000 0.39960  0.12430  0.75840  Biso   1.000  H
  H4       1.0000 0.12430  0.72470  0.25840  Biso   1.000  H
  H5       1.0000 0.27530  0.39960  0.25840  Biso   1.000  H
  H6       1.0000 0.60040  0.87570  0.25840  Biso   1.000  H
  C13      1.0000 0.23510  0.73060  0.71460  Biso   1.000  C
  C14      1.0000 0.26940  0.50450  0.71460  Biso   1.000  C
  C15      1.0000 0.49550  0.76490  0.71460  Biso   1.000  C
  C16      1.0000 0.76490  0.26940  0.21460  Biso   1.000  C
  C17      1.0000 0.73060  0.49550  0.21460  Biso   1.000  C
  C18      1.0000 0.50450  0.23510  0.21460  Biso   1.000  C
  C19      1.0000 0.15070  0.69870  0.78600  Biso   1.000  C
  C20      1.0000 0.30130  0.45200  0.78600  Biso   1.000  C
  C21      1.0000 0.54800  0.84930  0.78600  Biso   1.000  C
  C22      1.0000 0.84930  0.30130  0.28600  Biso   1.000  C
  C23      1.0000 0.69870  0.54800  0.28600  Biso   1.000  C
  C24      1.0000 0.45200  0.15070  0.28600  Biso   1.000  C
  H7       1.0000 0.16500  0.70260  0.85890  Biso   1.000  H
  H8       1.0000 0.29740  0.46240  0.85890  Biso   1.000  H
  H9       1.0000 0.53760  0.83500  0.85890  Biso   1.000  H
  H10      1.0000 0.83500  0.29740  0.35890  Biso   1.000  H
  H11      1.0000 0.70260  0.53760  0.35890  Biso   1.000  H
  H12      1.0000 0.46240  0.16500  0.35890  Biso   1.000  H
  C25      1.0000 0.02140  0.54720  0.79000  Biso   1.000  C
  C26      1.0000 0.45280  0.47420  0.79000  Biso   1.000  C
  C27      1.0000 0.52580  0.97860  0.79000  Biso   1.000  C
  C28      1.0000 0.97860  0.45280  0.29000  Biso   1.000  C
  C29      1.0000 0.54720  0.52580  0.29000  Biso   1.000  C
  C30      1.0000 0.47420  0.02140  0.29000  Biso   1.000  C
  C31      1.0000 0.97820  0.45730  0.73480  Biso   1.000  C
  C32      1.0000 0.54270  0.52090  0.73480  Biso   1.000  C
  C33      1.0000 0.47910  0.02180  0.73480  Biso   1.000  C
  C34      1.0000 0.02180  0.54270  0.23480  Biso   1.000  C
  C35      1.0000 0.45730  0.47910  0.23480  Biso   1.000  C
  C36      1.0000 0.52090  0.97820  0.23480  Biso   1.000  C
  C37      1.0000 0.10890  0.75140  0.75700  Biso   1.000  C
  C38      1.0000 0.24860  0.35750  0.75700  Biso   1.000  C
  C39      1.0000 0.64250  0.89110  0.75700  Biso   1.000  C
  C40      1.0000 0.89110  0.24860  0.25700  Biso   1.000  C
  C41      1.0000 0.75140  0.64250  0.25700  Biso   1.000  C
  C42      1.0000 0.35750  0.10890  0.25700  Biso   1.000  C
  H13      1.0000 0.05290  0.72800  0.79460  Biso   1.000  H
  H14      1.0000 0.27200  0.32490  0.79460  Biso   1.000  H
  H15      1.0000 0.67510  0.94710  0.79460  Biso   1.000  H
  H16      1.0000 0.94710  0.27200  0.29460  Biso   1.000  H
  H17      1.0000 0.72800  0.67510  0.29460  Biso   1.000  H
  H18      1.0000 0.32490  0.05290  0.29460  Biso   1.000  H
  H19      1.0000 0.14810  0.81270  0.78000  Biso   1.000  H
  H20      1.0000 0.18730  0.33540  0.78000  Biso   1.000  H
  H21      1.0000 0.66460  0.85190  0.78000  Biso   1.000  H
  H22      1.0000 0.85190  0.18730  0.28000  Biso   1.000  H
  H23      1.0000 0.81270  0.66460  0.28000  Biso   1.000  H
  H24      1.0000 0.33540  0.14810  0.28000  Biso   1.000  H
  C43      1.0000 0.09000  0.75500  0.65400  Biso   1.000  C
  C44      1.0000 0.24500  0.33500  0.65400  Biso   1.000  C
  C45      1.0000 0.66500  0.91000  0.65400  Biso   1.000  C
  C46      1.0000 0.91000  0.24500  0.15400  Biso   1.000  C
  C47      1.0000 0.75500  0.66500  0.15400  Biso   1.000  C
  C48      1.0000 0.33500  0.09000  0.15400  Biso   1.000  C
  H25      1.0000 0.12670  0.82050  0.65020  Biso   1.000  H
  H26      1.0000 0.17950  0.30620  0.65020  Biso   1.000  H
  H27      1.0000 0.69380  0.87330  0.65020  Biso   1.000  H
  H28      1.0000 0.87330  0.17950  0.15020  Biso   1.000  H
  H29      1.0000 0.82050  0.69380  0.15020  Biso   1.000  H
  H30      1.0000 0.30620  0.12670  0.15020  Biso   1.000  H
  H31      1.0000 0.03000  0.74600  0.66780  Biso   1.000  H
  H32      1.0000 0.25400  0.28400  0.66780  Biso   1.000  H
  H33      1.0000 0.71600  0.97000  0.66780  Biso   1.000  H
  H34      1.0000 0.97000  0.25400  0.16780  Biso   1.000  H
  H35      1.0000 0.74600  0.71600  0.16780  Biso   1.000  H
  H36      1.0000 0.28400  0.03000  0.16780  Biso   1.000  H
  C49      1.0000 0.03700  0.62700  0.51600  Biso   1.000  C
  C50      1.0000 0.37300  0.41000  0.51600  Biso   1.000  C
  C51      1.0000 0.59000  0.96300  0.51600  Biso   1.000  C
  C52      1.0000 0.96300  0.37300  0.01600  Biso   1.000  C
  C53      1.0000 0.62700  0.59000  0.01600  Biso   1.000  C
  C54      1.0000 0.41000  0.03700  0.01600  Biso   1.000  C
  H37      1.0000 0.97840  0.59260  0.54590  Biso   1.000  H
  H38      1.0000 0.40740  0.38580  0.54590  Biso   1.000  H
  H39      1.0000 0.61420  0.02160  0.54590  Biso   1.000  H
  H40      1.0000 0.02160  0.40740  0.04590  Biso   1.000  H
  H41      1.0000 0.59260  0.61420  0.04590  Biso   1.000  H
  H42      1.0000 0.38580  0.97840  0.04590  Biso   1.000  H
  H43      1.0000 0.07860  0.61380  0.55180  Biso   1.000  H
  H44      1.0000 0.38620  0.46480  0.55180  Biso   1.000  H
  H45      1.0000 0.53520  0.92140  0.55180  Biso   1.000  H
  H46      1.0000 0.92140  0.38620  0.05180  Biso   1.000  H
  H47      1.0000 0.61380  0.53520  0.05180  Biso   1.000  H
  H48      1.0000 0.46480  0.07860  0.05180  Biso   1.000  H
  H49      1.0000 0.03470  0.61030  0.44500  Biso   1.000  H
  H50      1.0000 0.38970  0.42440  0.44500  Biso   1.000  H
  H51      1.0000 0.57560  0.96530  0.44500  Biso   1.000  H
  H52      1.0000 0.96530  0.38970  0.94500  Biso   1.000  H
  H53      1.0000 0.61030  0.57560  0.94500  Biso   1.000  H
  H54      1.0000 0.42440  0.03470  0.94500  Biso   1.000  H
  S1       1.0000 0.07400  0.74100  0.52500  Biso   1.000  S
  S2       1.0000 0.25900  0.33300  0.52500  Biso   1.000  S
  S3       1.0000 0.66700  0.92600  0.52500  Biso   1.000  S
  S4       1.0000 0.92600  0.25900  0.02500  Biso   1.000  S
  S5       1.0000 0.74100  0.66700  0.02500  Biso   1.000  S
  S6       1.0000 0.33300  0.07400  0.02500  Biso   1.000  S
  C55      1.0000 0.80320  0.31300  0.64000  Biso   1.000  C
  C56      1.0000 0.68700  0.49020  0.64000  Biso   1.000  C
  C57      1.0000 0.50980  0.19680  0.64000  Biso   1.000  C
  C58      1.0000 0.19680  0.68700  0.14000  Biso   1.000  C
  C59      1.0000 0.31300  0.50980  0.14000  Biso   1.000  C
  C60      1.0000 0.49020  0.80320  0.14000  Biso   1.000  C
  H55      1.0000 0.81260  0.37380  0.63090  Biso   1.000  H
  H56      1.0000 0.62620  0.43880  0.63090  Biso   1.000  H
  H57      1.0000 0.56120  0.18740  0.63090  Biso   1.000  H
  H58      1.0000 0.18740  0.62620  0.13090  Biso   1.000  H
  H59      1.0000 0.37380  0.56120  0.13090  Biso   1.000  H
  H60      1.0000 0.43880  0.81260  0.13090  Biso   1.000  H
  H61      1.0000 0.84050  0.30600  0.58940  Biso   1.000  H
  H62      1.0000 0.69400  0.53450  0.58940  Biso   1.000  H
  H63      1.0000 0.46550  0.15950  0.58940  Biso   1.000  H
  H64      1.0000 0.15950  0.69400  0.08940  Biso   1.000  H
  H65      1.0000 0.30600  0.46550  0.08940  Biso   1.000  H
  H66      1.0000 0.53450  0.84050  0.08940  Biso   1.000  H
  C61      1.0000 0.71200  0.25300  0.61300  Biso   1.000  C
  C62      1.0000 0.74700  0.45900  0.61300  Biso   1.000  C
  C63      1.0000 0.54100  0.28800  0.61300  Biso   1.000  C
  C64      1.0000 0.28800  0.74700  0.11300  Biso   1.000  C
  C65      1.0000 0.25300  0.54100  0.11300  Biso   1.000  C
  C66      1.0000 0.45900  0.71200  0.11300  Biso   1.000  C
  H67      1.0000 0.67370  0.27720  0.63020  Biso   1.000  H
  H68      1.0000 0.72280  0.39650  0.63020  Biso   1.000  H
  H69      1.0000 0.60350  0.32630  0.63020  Biso   1.000  H
  H70      1.0000 0.32630  0.72280  0.13020  Biso   1.000  H
  H71      1.0000 0.27720  0.60350  0.13020  Biso   1.000  H
  H72      1.0000 0.39650  0.67370  0.13020  Biso   1.000  H
  H73      1.0000 0.68990  0.19520  0.64760  Biso   1.000  H
  H74      1.0000 0.80480  0.49470  0.64760  Biso   1.000  H
  H75      1.0000 0.50530  0.31010  0.64760  Biso   1.000  H
  H76      1.0000 0.31010  0.80480  0.14760  Biso   1.000  H
  H77      1.0000 0.19520  0.50530  0.14760  Biso   1.000  H
  H78      1.0000 0.49470  0.68990  0.14760  Biso   1.000  H
  C67      1.0000 0.75800  0.16700  0.48900  Biso   1.000  C
  C68      1.0000 0.83300  0.59100  0.48900  Biso   1.000  C
  C69      1.0000 0.40900  0.24200  0.48900  Biso   1.000  C
  C70      1.0000 0.24200  0.83300  0.98900  Biso   1.000  C
  C71      1.0000 0.16700  0.40900  0.98900  Biso   1.000  C
  C72      1.0000 0.59100  0.75800  0.98900  Biso   1.000  C
  H79      1.0000 0.76020  0.15410  0.56070  Biso   1.000  H
  H80      1.0000 0.84590  0.60610  0.56070  Biso   1.000  H
  H81      1.0000 0.39390  0.23980  0.56070  Biso   1.000  H
  H82      1.0000 0.23980  0.84590  0.06070  Biso   1.000  H
  H83      1.0000 0.15410  0.39390  0.06070  Biso   1.000  H
  H84      1.0000 0.60610  0.76020  0.06070  Biso   1.000  H
  H85      1.0000 0.81780  0.19420  0.46090  Biso   1.000  H
  H86      1.0000 0.80580  0.62360  0.46090  Biso   1.000  H
  H87      1.0000 0.37640  0.18220  0.46090  Biso   1.000  H
  H88      1.0000 0.18220  0.80580  0.96090  Biso   1.000  H
  H89      1.0000 0.19420  0.37640  0.96090  Biso   1.000  H
  H90      1.0000 0.62360  0.81780  0.96090  Biso   1.000  H
  H91      1.0000 0.71990  0.11120  0.45340  Biso   1.000  H
  H92      1.0000 0.88880  0.60870  0.45340  Biso   1.000  H
  H93      1.0000 0.39130  0.28010  0.45340  Biso   1.000  H
  H94      1.0000 0.28010  0.88880  0.95340  Biso   1.000  H
  H95      1.0000 0.11120  0.39130  0.95340  Biso   1.000  H
  H96      1.0000 0.60870  0.71990  0.95340  Biso   1.000  H
  S7       1.0000 0.71530  0.23920  0.47560  Biso   1.000  S
  S8       1.0000 0.76080  0.47610  0.47560  Biso   1.000  S
  S9       1.0000 0.52390  0.28470  0.47560  Biso   1.000  S
  S10      1.0000 0.28470  0.76080  0.97560  Biso   1.000  S
  S11      1.0000 0.23920  0.52390  0.97560  Biso   1.000  S
  S12      1.0000 0.47610  0.71530  0.97560  Biso   1.000  S
  Cl1      1.0000 0.66670  0.33330  0.69800  Biso   1.000  Cl
  Cl2      1.0000 0.33330  0.66670  0.19800  Biso   1.000  Cl
  Pt1      1.0000 0.66670  0.33330  0.51100  Biso   1.000  Pt
  Pt2      1.0000 0.33330  0.66670  0.01100  Biso   1.000  Pt
  Pt3      1.0000 0.66670  0.33330  0.40100  Biso   1.000  Pt
  Pt4      1.0000 0.33330  0.66670  0.90100  Biso   1.000  Pt
  Cl3      1.0000 0.66670  0.33330  0.22000  Biso   1.000  Cl
  Cl4      1.0000 0.33330  0.66670  0.72000  Biso   1.000  Cl
  Pt5      1.0000 0.19900  0.86200  0.46300  Biso   1.000  Pt
  Pt6      1.0000 0.13800  0.33700  0.46300  Biso   1.000  Pt
  Pt7      1.0000 0.66300  0.80100  0.46300  Biso   1.000  Pt
  Pt8      1.0000 0.80100  0.13800  0.96300  Biso   1.000  Pt
  Pt9      1.0000 0.86200  0.66300  0.96300  Biso   1.000  Pt
  Pt10     1.0000 0.33700  0.19900  0.96300  Biso   1.000  Pt
  Pt11     1.0000 0.32600  0.00400  0.52300  Biso   1.000  Pt
  Pt12     1.0000 0.99600  0.32200  0.52300  Biso   1.000  Pt
  Pt13     1.0000 0.67800  0.67400  0.52300  Biso   1.000  Pt
  Pt14     1.0000 0.67400  0.99600  0.02300  Biso   1.000  Pt
  Pt15     1.0000 0.00400  0.67800  0.02300  Biso   1.000  Pt
  Pt16     1.0000 0.32200  0.32600  0.02300  Biso   1.000  Pt
