data_image0
_cell_length_a       17.8904
_cell_length_b       17.8904
_cell_length_c       12.7999
_cell_angle_alpha    90
_cell_angle_beta     90
_cell_angle_gamma    120

_symmetry_space_group_name_H-M    "P 1"
_symmetry_int_tables_number       1

loop_
  _symmetry_equiv_pos_as_xyz
  'x, y, z'

loop_
  _atom_site_label
  _atom_site_occupancy
  _atom_site_fract_x
  _atom_site_fract_y
  _atom_site_fract_z
  _atom_site_thermal_displace_type
  _atom_site_B_iso_or_equiv
  _atom_site_type_symbol
  Ca1      1.0000 0.66670  0.33330  0.56440  Biso   1.000  Ca
  Ca2      1.0000 0.33330  0.66670  0.06440  Biso   1.000  Ca
  Cu1      1.0000 0.86369  0.44178  0.43630  Biso   1.000  Cu
  Cu2      1.0000 0.55822  0.42191  0.43630  Biso   1.000  Cu
  Cu3      1.0000 0.57809  0.13631  0.43630  Biso   1.000  Cu
  Cu4      1.0000 0.13631  0.55822  0.93630  Biso   1.000  Cu
  Cu5      1.0000 0.44178  0.57809  0.93630  Biso   1.000  Cu
  Cu6      1.0000 0.42191  0.86369  0.93630  Biso   1.000  Cu
  Cu7      1.0000 0.86296  0.44594  0.69397  Biso   1.000  Cu
  Cu8      1.0000 0.55406  0.41702  0.69397  Biso   1.000  Cu
  Cu9      1.0000 0.58298  0.13704  0.69397  Biso   1.000  Cu
  Cu10     1.0000 0.13704  0.55406  0.19397  Biso   1.000  Cu
  Cu11     1.0000 0.44594  0.58298  0.19397  Biso   1.000  Cu
  Cu12     1.0000 0.41702  0.86296  0.19397  Biso   1.000  Cu
  N1       1.0000 0.90360  0.40110  0.32220  Biso   1.000  N
  N2       1.0000 0.59890  0.50250  0.32220  Biso   1.000  N
  N3       1.0000 0.49750  0.09640  0.32220  Biso   1.000  N
  N4       1.0000 0.09640  0.59890  0.82220  Biso   1.000  N
  N5       1.0000 0.40110  0.49750  0.82220  Biso   1.000  N
  N6       1.0000 0.50250  0.90360  0.82220  Biso   1.000  N
  N7       1.0000 0.09980  0.59260  0.31240  Biso   1.000  N
  N8       1.0000 0.40740  0.50720  0.31240  Biso   1.000  N
  N9       1.0000 0.49280  0.90020  0.31240  Biso   1.000  N
  N10      1.0000 0.90020  0.40740  0.81240  Biso   1.000  N
  N11      1.0000 0.59260  0.49280  0.81240  Biso   1.000  N
  N12      1.0000 0.50720  0.09980  0.81240  Biso   1.000  N
  O1       1.0000 0.82154  0.46356  0.56340  Biso   1.000  O
  O2       1.0000 0.53644  0.35798  0.56340  Biso   1.000  O
  O3       1.0000 0.64202  0.17846  0.56340  Biso   1.000  O
  O4       1.0000 0.17846  0.53644  0.06340  Biso   1.000  O
  O5       1.0000 0.46356  0.64202  0.06340  Biso   1.000  O
  O6       1.0000 0.35798  0.82154  0.06340  Biso   1.000  O
  O7       1.0000 0.98020  0.55000  0.41950  Biso   1.000  O
  O8       1.0000 0.45000  0.43020  0.41950  Biso   1.000  O
  O9       1.0000 0.56980  0.01980  0.41950  Biso   1.000  O
  O10      1.0000 0.01980  0.45000  0.91950  Biso   1.000  O
  O11      1.0000 0.55000  0.56980  0.91950  Biso   1.000  O
  O12      1.0000 0.43020  0.98020  0.91950  Biso   1.000  O
  O13      1.0000 0.76130  0.32240  0.42760  Biso   1.000  O
  O14      1.0000 0.67760  0.43890  0.42760  Biso   1.000  O
  O15      1.0000 0.56110  0.23870  0.42760  Biso   1.000  O
  O16      1.0000 0.23870  0.67760  0.92760  Biso   1.000  O
  O17      1.0000 0.32240  0.56110  0.92760  Biso   1.000  O
  O18      1.0000 0.43890  0.76130  0.92760  Biso   1.000  O
  O19      1.0000 0.70320  0.20170  0.33390  Biso   1.000  O
  O20      1.0000 0.79830  0.50150  0.33390  Biso   1.000  O
  O21      1.0000 0.49850  0.29680  0.33390  Biso   1.000  O
  O22      1.0000 0.29680  0.79830  0.83390  Biso   1.000  O
  O23      1.0000 0.20170  0.49850  0.83390  Biso   1.000  O
  O24      1.0000 0.50150  0.70320  0.83390  Biso   1.000  O
  O25      1.0000 0.01940  0.44510  0.20760  Biso   1.000  O
  O26      1.0000 0.55490  0.57430  0.20760  Biso   1.000  O
  O27      1.0000 0.42570  0.98060  0.20760  Biso   1.000  O
  O28      1.0000 0.98060  0.55490  0.70760  Biso   1.000  O
  O29      1.0000 0.44510  0.42570  0.70760  Biso   1.000  O
  O30      1.0000 0.57430  0.01940  0.70760  Biso   1.000  O
  O31      1.0000 0.23800  0.67530  0.20070  Biso   1.000  O
  O32      1.0000 0.32470  0.56270  0.20070  Biso   1.000  O
  O33      1.0000 0.43730  0.76200  0.20070  Biso   1.000  O
  O34      1.0000 0.76200  0.32470  0.70070  Biso   1.000  O
  O35      1.0000 0.67530  0.43730  0.70070  Biso   1.000  O
  O36      1.0000 0.56270  0.23800  0.70070  Biso   1.000  O
  O37      1.0000 0.29090  0.79770  0.29380  Biso   1.000  O
  O38      1.0000 0.20230  0.49320  0.29380  Biso   1.000  O
  O39      1.0000 0.50680  0.70910  0.29380  Biso   1.000  O
  O40      1.0000 0.70910  0.20230  0.79380  Biso   1.000  O
  O41      1.0000 0.79770  0.50680  0.79380  Biso   1.000  O
  O42      1.0000 0.49320  0.29090  0.79380  Biso   1.000  O
  C1       1.0000 0.76240  0.27550  0.35500  Biso   1.000  C
  C2       1.0000 0.72450  0.48690  0.35500  Biso   1.000  C
  C3       1.0000 0.51310  0.23760  0.35500  Biso   1.000  C
  C4       1.0000 0.23760  0.72450  0.85500  Biso   1.000  C
  C5       1.0000 0.27550  0.51310  0.85500  Biso   1.000  C
  C6       1.0000 0.48690  0.76240  0.85500  Biso   1.000  C
  C7       1.0000 0.84520  0.31260  0.28430  Biso   1.000  C
  C8       1.0000 0.68740  0.53260  0.28430  Biso   1.000  C
  C9       1.0000 0.46740  0.15480  0.28430  Biso   1.000  C
  C10      1.0000 0.15480  0.68740  0.78430  Biso   1.000  C
  C11      1.0000 0.31260  0.46740  0.78430  Biso   1.000  C
  C12      1.0000 0.53260  0.84520  0.78430  Biso   1.000  C
  H1       1.0000 0.83000  0.31310  0.20920  Biso   1.000  H
  H2       1.0000 0.68690  0.51690  0.20920  Biso   1.000  H
  H3       1.0000 0.48310  0.17000  0.20920  Biso   1.000  H
  H4       1.0000 0.17000  0.68690  0.70920  Biso   1.000  H
  H5       1.0000 0.31310  0.48310  0.70920  Biso   1.000  H
  H6       1.0000 0.51690  0.83000  0.70920  Biso   1.000  H
  C13      1.0000 0.02210  0.54000  0.34590  Biso   1.000  C
  C14      1.0000 0.46000  0.48210  0.34590  Biso   1.000  C
  C15      1.0000 0.51790  0.97790  0.34590  Biso   1.000  C
  C16      1.0000 0.97790  0.46000  0.84590  Biso   1.000  C
  C17      1.0000 0.54000  0.51790  0.84590  Biso   1.000  C
  C18      1.0000 0.48210  0.02210  0.84590  Biso   1.000  C
  C19      1.0000 0.23410  0.72090  0.27750  Biso   1.000  C
  C20      1.0000 0.27910  0.51320  0.27750  Biso   1.000  C
  C21      1.0000 0.48680  0.76590  0.27750  Biso   1.000  C
  C22      1.0000 0.76590  0.27910  0.77750  Biso   1.000  C
  C23      1.0000 0.72090  0.48680  0.77750  Biso   1.000  C
  C24      1.0000 0.51320  0.23410  0.77750  Biso   1.000  C
  C25      1.0000 0.15710  0.67850  0.35010  Biso   1.000  C
  C26      1.0000 0.32150  0.47860  0.35010  Biso   1.000  C
  C27      1.0000 0.52140  0.84290  0.35010  Biso   1.000  C
  C28      1.0000 0.84290  0.32150  0.85010  Biso   1.000  C
  C29      1.0000 0.67850  0.52140  0.85010  Biso   1.000  C
  C30      1.0000 0.47860  0.15710  0.85010  Biso   1.000  C
  H7       1.0000 0.12650  0.71230  0.34970  Biso   1.000  H
  H8       1.0000 0.28770  0.41420  0.34970  Biso   1.000  H
  H9       1.0000 0.58580  0.87350  0.34970  Biso   1.000  H
  H10      1.0000 0.87350  0.28770  0.84970  Biso   1.000  H
  H11      1.0000 0.71230  0.58580  0.84970  Biso   1.000  H
  H12      1.0000 0.41420  0.12650  0.84970  Biso   1.000  H
  C31      1.0000 0.97910  0.45490  0.28480  Biso   1.000  C
  C32      1.0000 0.54510  0.52420  0.28480  Biso   1.000  C
  C33      1.0000 0.47580  0.02090  0.28480  Biso   1.000  C
  C34      1.0000 0.02090  0.54510  0.78480  Biso   1.000  C
  C35      1.0000 0.45490  0.47580  0.78480  Biso   1.000  C
  C36      1.0000 0.52420  0.97910  0.78480  Biso   1.000  C
  C37      1.0000 0.88830  0.25360  0.30090  Biso   1.000  C
  C38      1.0000 0.74640  0.63470  0.30090  Biso   1.000  C
  C39      1.0000 0.36530  0.11170  0.30090  Biso   1.000  C
  C40      1.0000 0.11170  0.74640  0.80090  Biso   1.000  C
  C41      1.0000 0.25360  0.36530  0.80090  Biso   1.000  C
  C42      1.0000 0.63470  0.88830  0.80090  Biso   1.000  C
  H13      1.0000 0.84670  0.19390  0.27860  Biso   1.000  H
  H14      1.0000 0.80610  0.65280  0.27860  Biso   1.000  H
  H15      1.0000 0.34720  0.15330  0.27860  Biso   1.000  H
  H16      1.0000 0.15330  0.80610  0.77860  Biso   1.000  H
  H17      1.0000 0.19390  0.34720  0.77860  Biso   1.000  H
  H18      1.0000 0.65280  0.84670  0.77860  Biso   1.000  H
  H19      1.0000 0.93960  0.27530  0.25520  Biso   1.000  H
  H20      1.0000 0.72470  0.66430  0.25520  Biso   1.000  H
  H21      1.0000 0.33570  0.06040  0.25520  Biso   1.000  H
  H22      1.0000 0.06040  0.72470  0.75520  Biso   1.000  H
  H23      1.0000 0.27530  0.33570  0.75520  Biso   1.000  H
  H24      1.0000 0.66430  0.93960  0.75520  Biso   1.000  H
  C43      1.0000 0.18920  0.67640  0.46600  Biso   1.000  C
  C44      1.0000 0.32360  0.51280  0.46600  Biso   1.000  C
  C45      1.0000 0.48720  0.81080  0.46600  Biso   1.000  C
  C46      1.0000 0.81080  0.32360  0.96600  Biso   1.000  C
  C47      1.0000 0.67640  0.48720  0.96600  Biso   1.000  C
  C48      1.0000 0.51280  0.18920  0.96600  Biso   1.000  C
  H25      1.0000 0.22960  0.73650  0.48760  Biso   1.000  H
  H26      1.0000 0.26350  0.49310  0.48760  Biso   1.000  H
  H27      1.0000 0.50690  0.77040  0.48760  Biso   1.000  H
  H28      1.0000 0.77040  0.26350  0.98760  Biso   1.000  H
  H29      1.0000 0.73650  0.50690  0.98760  Biso   1.000  H
  H30      1.0000 0.49310  0.22960  0.98760  Biso   1.000  H
  H31      1.0000 0.13860  0.65370  0.51310  Biso   1.000  H
  H32      1.0000 0.34630  0.48490  0.51310  Biso   1.000  H
  H33      1.0000 0.51510  0.86140  0.51310  Biso   1.000  H
  H34      1.0000 0.86140  0.34630  0.01310  Biso   1.000  H
  H35      1.0000 0.65370  0.51510  0.01310  Biso   1.000  H
  H36      1.0000 0.48490  0.13860  0.01310  Biso   1.000  H
  O43      1.0000 0.91410  0.25150  0.40720  Biso   1.000  O
  O44      1.0000 0.74850  0.66260  0.40720  Biso   1.000  O
  O45      1.0000 0.33740  0.08590  0.40720  Biso   1.000  O
  O46      1.0000 0.08590  0.74850  0.90720  Biso   1.000  O
  O47      1.0000 0.25150  0.33740  0.90720  Biso   1.000  O
  O48      1.0000 0.66260  0.91410  0.90720  Biso   1.000  O
  H37      1.0000 0.90020  0.20060  0.42330  Biso   1.000  H
  H38      1.0000 0.79940  0.69960  0.42330  Biso   1.000  H
  H39      1.0000 0.30040  0.09980  0.42330  Biso   1.000  H
  H40      1.0000 0.09980  0.79940  0.92330  Biso   1.000  H
  H41      1.0000 0.20060  0.30040  0.92330  Biso   1.000  H
  H42      1.0000 0.69960  0.90020  0.92330  Biso   1.000  H
  O49      1.0000 0.22780  0.63030  0.48110  Biso   1.000  O
  O50      1.0000 0.36970  0.59750  0.48110  Biso   1.000  O
  O51      1.0000 0.40250  0.77220  0.48110  Biso   1.000  O
  O52      1.0000 0.77220  0.36970  0.98110  Biso   1.000  O
  O53      1.0000 0.63030  0.40250  0.98110  Biso   1.000  O
  O54      1.0000 0.59750  0.22780  0.98110  Biso   1.000  O
  H43      1.0000 0.26730  0.65500  0.52550  Biso   1.000  H
  H44      1.0000 0.34500  0.61230  0.52550  Biso   1.000  H
  H45      1.0000 0.38770  0.73270  0.52550  Biso   1.000  H
  H46      1.0000 0.73270  0.34500  0.02550  Biso   1.000  H
  H47      1.0000 0.65500  0.38770  0.02550  Biso   1.000  H
  H48      1.0000 0.61230  0.26730  0.02550  Biso   1.000  H
  O55      1.0000 0.94270  0.38490  0.56700  Biso   1.000  O
  O56      1.0000 0.61510  0.55780  0.56700  Biso   1.000  O
  O57      1.0000 0.44220  0.05730  0.56700  Biso   1.000  O
  O58      1.0000 0.05730  0.61510  0.06700  Biso   1.000  O
  O59      1.0000 0.38490  0.44220  0.06700  Biso   1.000  O
  O60      1.0000 0.55780  0.94270  0.06700  Biso   1.000  O
  O61      1.0000 0.18210  0.37630  0.06650  Biso   1.000  O
  O62      1.0000 0.62370  0.80580  0.06650  Biso   1.000  O
  O63      1.0000 0.19420  0.81790  0.06650  Biso   1.000  O
  O64      1.0000 0.81790  0.62370  0.56650  Biso   1.000  O
  O65      1.0000 0.37630  0.19420  0.56650  Biso   1.000  O
  O66      1.0000 0.80580  0.18210  0.56650  Biso   1.000  O
  O67      1.0000 0.31590  0.32890  0.55730  Biso   1.000  O
  O68      1.0000 0.67110  0.98700  0.55730  Biso   1.000  O
  O69      1.0000 0.01300  0.68410  0.55730  Biso   1.000  O
  O70      1.0000 0.68410  0.67110  0.05730  Biso   1.000  O
  O71      1.0000 0.32890  0.01300  0.05730  Biso   1.000  O
  O72      1.0000 0.98700  0.31590  0.05730  Biso   1.000  O
  O73      1.0000 0.15410  0.85320  0.55100  Biso   1.000  O
  O74      1.0000 0.14680  0.30090  0.55100  Biso   1.000  O
  O75      1.0000 0.69910  0.84590  0.55100  Biso   1.000  O
  O76      1.0000 0.84590  0.14680  0.05100  Biso   1.000  O
  O77      1.0000 0.85320  0.69910  0.05100  Biso   1.000  O
  O78      1.0000 0.30090  0.15410  0.05100  Biso   1.000  O
  O79      1.0000 0.08220  0.37600  0.43020  Biso   1.000  O
  O80      1.0000 0.62400  0.70620  0.43020  Biso   1.000  O
  O81      1.0000 0.29380  0.91780  0.43020  Biso   1.000  O
  O82      1.0000 0.91780  0.62400  0.93020  Biso   1.000  O
  O83      1.0000 0.37600  0.29380  0.93020  Biso   1.000  O
  O84      1.0000 0.70620  0.08220  0.93020  Biso   1.000  O
  O85      1.0000 0.08390  0.33250  0.37640  Biso   1.000  O
  O86      1.0000 0.66750  0.75140  0.37640  Biso   1.000  O
  O87      1.0000 0.24860  0.91610  0.37640  Biso   1.000  O
  O88      1.0000 0.91610  0.66750  0.87640  Biso   1.000  O
  O89      1.0000 0.33250  0.24860  0.87640  Biso   1.000  O
  O90      1.0000 0.75140  0.08390  0.87640  Biso   1.000  O
  O91      1.0000 0.08310  0.38120  0.69800  Biso   1.000  O
  O92      1.0000 0.61880  0.70190  0.69800  Biso   1.000  O
  O93      1.0000 0.29810  0.91690  0.69800  Biso   1.000  O
  O94      1.0000 0.91690  0.61880  0.19800  Biso   1.000  O
  O95      1.0000 0.38120  0.29810  0.19800  Biso   1.000  O
  O96      1.0000 0.70190  0.08310  0.19800  Biso   1.000  O
  O97      1.0000 0.09800  0.25580  0.21100  Biso   1.000  O
  O98      1.0000 0.74420  0.84220  0.21100  Biso   1.000  O
  O99      1.0000 0.15780  0.90200  0.21100  Biso   1.000  O
  O100     1.0000 0.90200  0.74420  0.71100  Biso   1.000  O
  O101     1.0000 0.25580  0.15780  0.71100  Biso   1.000  O
  O102     1.0000 0.84220  0.09800  0.71100  Biso   1.000  O
  O103     1.0000 0.12610  0.48280  0.62090  Biso   1.000  O
  O104     1.0000 0.51720  0.64330  0.62090  Biso   1.000  O
  O105     1.0000 0.35670  0.87390  0.62090  Biso   1.000  O
  O106     1.0000 0.87390  0.51720  0.12090  Biso   1.000  O
  O107     1.0000 0.48280  0.35670  0.12090  Biso   1.000  O
  O108     1.0000 0.64330  0.12610  0.12090  Biso   1.000  O
  O109     1.0000 0.00900  0.12200  0.16400  Biso   1.000  O
  O110     1.0000 0.87800  0.88700  0.16400  Biso   1.000  O
  O111     1.0000 0.11300  0.99100  0.16400  Biso   1.000  O
  O112     1.0000 0.99100  0.87800  0.66400  Biso   1.000  O
  O113     1.0000 0.12200  0.11300  0.66400  Biso   1.000  O
  O114     1.0000 0.88700  0.00900  0.66400  Biso   1.000  O
  O115     1.0000 0.93800  0.99600  0.42400  Biso   1.000  O
  O116     1.0000 0.00400  0.94200  0.42400  Biso   1.000  O
  O117     1.0000 0.05800  0.06200  0.42400  Biso   1.000  O
  O118     1.0000 0.06200  0.00400  0.92400  Biso   1.000  O
  O119     1.0000 0.99600  0.05800  0.92400  Biso   1.000  O
  O120     1.0000 0.94200  0.93800  0.92400  Biso   1.000  O
  O121     1.0000 0.86000  0.01800  0.10400  Biso   1.000  O
  O122     1.0000 0.98200  0.84200  0.10400  Biso   1.000  O
  O123     1.0000 0.15800  0.14000  0.10400  Biso   1.000  O
  O124     1.0000 0.14000  0.98200  0.60400  Biso   1.000  O
  O125     1.0000 0.01800  0.15800  0.60400  Biso   1.000  O
  O126     1.0000 0.84200  0.86000  0.60400  Biso   1.000  O
  O127     1.0000 0.84800  0.98400  0.29600  Biso   1.000  O
  O128     1.0000 0.01600  0.86400  0.29600  Biso   1.000  O
  O129     1.0000 0.13600  0.15200  0.29600  Biso   1.000  O
  O130     1.0000 0.15200  0.01600  0.79600  Biso   1.000  O
  O131     1.0000 0.98400  0.13600  0.79600  Biso   1.000  O
  O132     1.0000 0.86400  0.84800  0.79600  Biso   1.000  O
  O133     1.0000 0.73800  0.01800  0.38000  Biso   1.000  O
  O134     1.0000 0.98200  0.72000  0.38000  Biso   1.000  O
  O135     1.0000 0.28000  0.26200  0.38000  Biso   1.000  O
  O136     1.0000 0.26200  0.98200  0.88000  Biso   1.000  O
  O137     1.0000 0.01800  0.28000  0.88000  Biso   1.000  O
  O138     1.0000 0.72000  0.73800  0.88000  Biso   1.000  O
  O139     1.0000 0.89800  0.07600  0.38700  Biso   1.000  O
  O140     1.0000 0.92400  0.82200  0.38700  Biso   1.000  O
  O141     1.0000 0.17800  0.10200  0.38700  Biso   1.000  O
  O142     1.0000 0.10200  0.92400  0.88700  Biso   1.000  O
  O143     1.0000 0.07600  0.17800  0.88700  Biso   1.000  O
  O144     1.0000 0.82200  0.89800  0.88700  Biso   1.000  O
