data_image0
_cell_length_a       7.5521
_cell_length_b       7.8791
_cell_length_c       13.0201
_cell_angle_alpha    86.878
_cell_angle_beta     80.835
_cell_angle_gamma    84.143

_symmetry_space_group_name_H-M    "P 1"
_symmetry_int_tables_number       1

loop_
  _symmetry_equiv_pos_as_xyz
  'x, y, z'

loop_
  _atom_site_label
  _atom_site_occupancy
  _atom_site_fract_x
  _atom_site_fract_y
  _atom_site_fract_z
  _atom_site_thermal_displace_type
  _atom_site_B_iso_or_equiv
  _atom_site_type_symbol
  Cu1      1.0000 0.75705  0.34705  0.24555  Biso   1.000  Cu
  Cu2      1.0000 0.24295  0.65295  0.75445  Biso   1.000  Cu
  O1       1.0000 0.76730  0.45710  0.10130  Biso   1.000  O
  O2       1.0000 0.23270  0.54290  0.89870  Biso   1.000  O
  N1       1.0000 0.70890  0.19350  0.06490  Biso   1.000  N
  N2       1.0000 0.29110  0.80650  0.93510  Biso   1.000  N
  H1       1.0000 0.69090  0.12010  0.02210  Biso   1.000  H
  H2       1.0000 0.30910  0.87990  0.97790  Biso   1.000  H
  N3       1.0000 0.70800  0.15560  0.16870  Biso   1.000  N
  N4       1.0000 0.29200  0.84440  0.83130  Biso   1.000  N
  N5       1.0000 0.75240  0.15960  0.35640  Biso   1.000  N
  N6       1.0000 0.24760  0.84040  0.64360  Biso   1.000  N
  N7       1.0000 0.50570  0.49050  0.30620  Biso   1.000  N
  N8       1.0000 0.49430  0.50950  0.69380  Biso   1.000  N
  N9       1.0000 0.92280  0.48470  0.29860  Biso   1.000  N
  N10      1.0000 0.07720  0.51530  0.70140  Biso   1.000  N
  N11      1.0000 0.18360  0.54420  0.37600  Biso   1.000  N
  N12      1.0000 0.81640  0.45580  0.62400  Biso   1.000  N
  C1       1.0000 0.77180  0.17420  0.45560  Biso   1.000  C
  C2       1.0000 0.22820  0.82580  0.54440  Biso   1.000  C
  H3       1.0000 0.79370  0.27950  0.47740  Biso   1.000  H
  H4       1.0000 0.20630  0.72050  0.52260  Biso   1.000  H
  C3       1.0000 0.76040  0.03720  0.52710  Biso   1.000  C
  C4       1.0000 0.23960  0.96280  0.47290  Biso   1.000  C
  H5       1.0000 0.77520  0.05010  0.59570  Biso   1.000  H
  H6       1.0000 0.22480  0.94990  0.40430  Biso   1.000  H
  C5       1.0000 0.72670  0.88180  0.49480  Biso   1.000  C
  C6       1.0000 0.27330  0.11820  0.50520  Biso   1.000  C
  H7       1.0000 0.71610  0.78910  0.54200  Biso   1.000  H
  H8       1.0000 0.28390  0.21090  0.45800  Biso   1.000  H
  C7       1.0000 0.70840  0.86370  0.39150  Biso   1.000  C
  C8       1.0000 0.29160  0.13630  0.60850  Biso   1.000  C
  H9       1.0000 0.68800  0.75900  0.36820  Biso   1.000  H
  H10      1.0000 0.31200  0.24100  0.63180  Biso   1.000  H
  C9       1.0000 0.72170  0.00740  0.32350  Biso   1.000  C
  C10      1.0000 0.27830  0.99260  0.67650  Biso   1.000  C
  C11      1.0000 0.71170  0.00520  0.21090  Biso   1.000  C
  C12      1.0000 0.28830  0.99480  0.78910  Biso   1.000  C
  C13      1.0000 0.71560  0.84100  0.15870  Biso   1.000  C
  C14      1.0000 0.28440  0.15900  0.84130  Biso   1.000  C
  H11      1.0000 0.60720  0.78820  0.18430  Biso   1.000  H
  H12      1.0000 0.39280  0.21180  0.81570  Biso   1.000  H
  H13      1.0000 0.81800  0.76640  0.17320  Biso   1.000  H
  H14      1.0000 0.18200  0.23360  0.82680  Biso   1.000  H
  H15      1.0000 0.72400  0.86270  0.08490  Biso   1.000  H
  H16      1.0000 0.27600  0.13730  0.91510  Biso   1.000  H
  C15      1.0000 0.74060  0.35650  0.03550  Biso   1.000  C
  C16      1.0000 0.25940  0.64350  0.96450  Biso   1.000  C
  C17      1.0000 0.74290  0.40760  0.92400  Biso   1.000  C
  C18      1.0000 0.25710  0.59240  0.07600  Biso   1.000  C
  H17      1.0000 0.64290  0.49070  0.91690  Biso   1.000  H
  H18      1.0000 0.35710  0.50930  0.08310  Biso   1.000  H
  H19      1.0000 0.73370  0.30920  0.88550  Biso   1.000  H
  H20      1.0000 0.26630  0.69080  0.11450  Biso   1.000  H
  H21      1.0000 0.85340  0.45610  0.89730  Biso   1.000  H
  H22      1.0000 0.14660  0.54390  0.10270  Biso   1.000  H
  C19      1.0000 0.05230  0.50860  0.33010  Biso   1.000  C
  C20      1.0000 0.94770  0.49140  0.66990  Biso   1.000  C
  C21      1.0000 0.35310  0.51150  0.33410  Biso   1.000  C
  C22      1.0000 0.64690  0.48850  0.66590  Biso   1.000  C
  Cl1      1.0000 0.21359  0.08580  0.17124  Biso   1.000  Cl
  Cl2      1.0000 0.78641  0.91420  0.82876  Biso   1.000  Cl
  O3       1.0000 0.28730  0.17940  0.24360  Biso   1.000  O
  O4       1.0000 0.71270  0.82060  0.75640  Biso   1.000  O
  O5       1.0000 0.12210  0.94750  0.22460  Biso   1.000  O
  O6       1.0000 0.87790  0.05250  0.77540  Biso   1.000  O
  O7       1.0000 0.36050  0.01690  0.09350  Biso   1.000  O
  O8       1.0000 0.63950  0.98310  0.90650  Biso   1.000  O
  O9       1.0000 0.09140  0.19720  0.11830  Biso   1.000  O
  O10      1.0000 0.90860  0.80280  0.88170  Biso   1.000  O
