data_image0
_cell_length_a       17.9607
_cell_length_b       17.9607
_cell_length_c       12.6765
_cell_angle_alpha    90
_cell_angle_beta     90
_cell_angle_gamma    120

_symmetry_space_group_name_H-M    "P 1"
_symmetry_int_tables_number       1

loop_
  _symmetry_equiv_pos_as_xyz
  'x, y, z'

loop_
  _atom_site_label
  _atom_site_occupancy
  _atom_site_fract_x
  _atom_site_fract_y
  _atom_site_fract_z
  _atom_site_thermal_displace_type
  _atom_site_B_iso_or_equiv
  _atom_site_type_symbol
  Ca1      1.0000 0.33330  0.66670  0.95380  Biso   1.000  Ca
  Ca2      1.0000 0.66670  0.33330  0.45380  Biso   1.000  Ca
  Cu1      1.0000 0.44760  0.86155  0.82146  Biso   1.000  Cu
  Cu2      1.0000 0.13845  0.58605  0.82146  Biso   1.000  Cu
  Cu3      1.0000 0.41395  0.55240  0.82146  Biso   1.000  Cu
  Cu4      1.0000 0.55240  0.13845  0.32146  Biso   1.000  Cu
  Cu5      1.0000 0.86155  0.41395  0.32146  Biso   1.000  Cu
  Cu6      1.0000 0.58605  0.44760  0.32146  Biso   1.000  Cu
  Cu7      1.0000 0.44158  0.86228  0.08373  Biso   1.000  Cu
  Cu8      1.0000 0.13772  0.57930  0.08373  Biso   1.000  Cu
  Cu9      1.0000 0.42070  0.55842  0.08373  Biso   1.000  Cu
  Cu10     1.0000 0.55842  0.13772  0.58373  Biso   1.000  Cu
  Cu11     1.0000 0.86228  0.42070  0.58373  Biso   1.000  Cu
  Cu12     1.0000 0.57930  0.44158  0.58373  Biso   1.000  Cu
  O1       1.0000 0.46380  0.82030  0.95440  Biso   1.000  O
  O2       1.0000 0.17970  0.64350  0.95440  Biso   1.000  O
  O3       1.0000 0.35650  0.53620  0.95440  Biso   1.000  O
  O4       1.0000 0.53620  0.17970  0.45440  Biso   1.000  O
  O5       1.0000 0.82030  0.35650  0.45440  Biso   1.000  O
  O6       1.0000 0.64350  0.46380  0.45440  Biso   1.000  O
  N1       1.0000 0.58920  0.09800  0.20330  Biso   1.000  N
  N2       1.0000 0.90200  0.49120  0.20330  Biso   1.000  N
  N3       1.0000 0.50880  0.41080  0.20330  Biso   1.000  N
  N4       1.0000 0.41080  0.90200  0.70330  Biso   1.000  N
  N5       1.0000 0.09800  0.50880  0.70330  Biso   1.000  N
  N6       1.0000 0.49120  0.58920  0.70330  Biso   1.000  N
  N7       1.0000 0.39940  0.90190  0.19770  Biso   1.000  N
  N8       1.0000 0.09810  0.49750  0.19770  Biso   1.000  N
  N9       1.0000 0.50250  0.60060  0.19770  Biso   1.000  N
  N10      1.0000 0.60060  0.09810  0.69770  Biso   1.000  N
  N11      1.0000 0.90190  0.50250  0.69770  Biso   1.000  N
  N12      1.0000 0.49750  0.39940  0.69770  Biso   1.000  N
  O7       1.0000 0.44420  0.02090  0.31000  Biso   1.000  O
  O8       1.0000 0.97910  0.42330  0.31000  Biso   1.000  O
  O9       1.0000 0.57670  0.55580  0.31000  Biso   1.000  O
  O10      1.0000 0.55580  0.97910  0.81000  Biso   1.000  O
  O11      1.0000 0.02090  0.57670  0.81000  Biso   1.000  O
  O12      1.0000 0.42330  0.44420  0.81000  Biso   1.000  O
  O13      1.0000 0.79780  0.28850  0.22410  Biso   1.000  O
  O14      1.0000 0.71150  0.50930  0.22410  Biso   1.000  O
  O15      1.0000 0.49070  0.20220  0.22410  Biso   1.000  O
  O16      1.0000 0.20220  0.71150  0.72410  Biso   1.000  O
  O17      1.0000 0.28850  0.49070  0.72410  Biso   1.000  O
  O18      1.0000 0.50930  0.79780  0.72410  Biso   1.000  O
  O19      1.0000 0.67440  0.23810  0.31480  Biso   1.000  O
  O20      1.0000 0.76190  0.43630  0.31480  Biso   1.000  O
  O21      1.0000 0.56370  0.32560  0.31480  Biso   1.000  O
  O22      1.0000 0.32560  0.76190  0.81480  Biso   1.000  O
  O23      1.0000 0.23810  0.56370  0.81480  Biso   1.000  O
  O24      1.0000 0.43630  0.67440  0.81480  Biso   1.000  O
  O25      1.0000 0.20230  0.70290  0.18710  Biso   1.000  O
  O26      1.0000 0.29710  0.49940  0.18710  Biso   1.000  O
  O27      1.0000 0.50060  0.79770  0.18710  Biso   1.000  O
  O28      1.0000 0.79770  0.29710  0.68710  Biso   1.000  O
  O29      1.0000 0.70290  0.50060  0.68710  Biso   1.000  O
  O30      1.0000 0.49940  0.20230  0.68710  Biso   1.000  O
  O31      1.0000 0.54930  0.97940  0.09760  Biso   1.000  O
  O32      1.0000 0.02060  0.56990  0.09760  Biso   1.000  O
  O33      1.0000 0.43010  0.45070  0.09760  Biso   1.000  O
  O34      1.0000 0.45070  0.02060  0.59760  Biso   1.000  O
  O35      1.0000 0.97940  0.43010  0.59760  Biso   1.000  O
  O36      1.0000 0.56990  0.54930  0.59760  Biso   1.000  O
  O37      1.0000 0.32260  0.76070  0.09010  Biso   1.000  O
  O38      1.0000 0.23930  0.56190  0.09010  Biso   1.000  O
  O39      1.0000 0.43810  0.67740  0.09010  Biso   1.000  O
  O40      1.0000 0.67740  0.23930  0.59010  Biso   1.000  O
  O41      1.0000 0.76070  0.43810  0.59010  Biso   1.000  O
  O42      1.0000 0.56190  0.32260  0.59010  Biso   1.000  O
  C1       1.0000 0.71910  0.23260  0.23880  Biso   1.000  C
  C2       1.0000 0.76740  0.48650  0.23880  Biso   1.000  C
  C3       1.0000 0.51350  0.28090  0.23880  Biso   1.000  C
  C4       1.0000 0.28090  0.76740  0.73880  Biso   1.000  C
  C5       1.0000 0.23260  0.51350  0.73880  Biso   1.000  C
  C6       1.0000 0.48650  0.71910  0.73880  Biso   1.000  C
  C7       1.0000 0.67740  0.15500  0.16570  Biso   1.000  C
  C8       1.0000 0.84500  0.52240  0.16570  Biso   1.000  C
  C9       1.0000 0.47760  0.32260  0.16570  Biso   1.000  C
  C10      1.0000 0.32260  0.84500  0.66570  Biso   1.000  C
  C11      1.0000 0.15500  0.47760  0.66570  Biso   1.000  C
  C12      1.0000 0.52240  0.67740  0.66570  Biso   1.000  C
  H1       1.0000 0.71060  0.12400  0.16750  Biso   1.000  H
  H2       1.0000 0.87600  0.58660  0.16750  Biso   1.000  H
  H3       1.0000 0.41340  0.28940  0.16750  Biso   1.000  H
  H4       1.0000 0.28940  0.87600  0.66750  Biso   1.000  H
  H5       1.0000 0.12400  0.41340  0.66750  Biso   1.000  H
  H6       1.0000 0.58660  0.71060  0.66750  Biso   1.000  H
  C13      1.0000 0.53900  0.02240  0.17040  Biso   1.000  C
  C14      1.0000 0.97760  0.51660  0.17040  Biso   1.000  C
  C15      1.0000 0.48340  0.46100  0.17040  Biso   1.000  C
  C16      1.0000 0.46100  0.97760  0.67040  Biso   1.000  C
  C17      1.0000 0.02240  0.48340  0.67040  Biso   1.000  C
  C18      1.0000 0.51660  0.53900  0.67040  Biso   1.000  C
  C19      1.0000 0.45350  0.98000  0.23280  Biso   1.000  C
  C20      1.0000 0.02000  0.47350  0.23280  Biso   1.000  C
  C21      1.0000 0.52650  0.54650  0.23280  Biso   1.000  C
  C22      1.0000 0.54650  0.02000  0.73280  Biso   1.000  C
  C23      1.0000 0.98000  0.52650  0.73280  Biso   1.000  C
  C24      1.0000 0.47350  0.45350  0.73280  Biso   1.000  C
  C25      1.0000 0.27480  0.76130  0.16530  Biso   1.000  C
  C26      1.0000 0.23870  0.51350  0.16530  Biso   1.000  C
  C27      1.0000 0.48650  0.72520  0.16530  Biso   1.000  C
  C28      1.0000 0.72520  0.23870  0.66530  Biso   1.000  C
  C29      1.0000 0.76130  0.48650  0.66530  Biso   1.000  C
  C30      1.0000 0.51350  0.27480  0.66530  Biso   1.000  C
  C31      1.0000 0.31250  0.84310  0.23730  Biso   1.000  C
  C32      1.0000 0.15690  0.46940  0.23730  Biso   1.000  C
  C33      1.0000 0.53060  0.68750  0.23730  Biso   1.000  C
  C34      1.0000 0.68750  0.15690  0.73730  Biso   1.000  C
  C35      1.0000 0.84310  0.53060  0.73730  Biso   1.000  C
  C36      1.0000 0.46940  0.31250  0.73730  Biso   1.000  C
  H7       1.0000 0.31520  0.82720  0.31220  Biso   1.000  H
  H8       1.0000 0.17280  0.48800  0.31220  Biso   1.000  H
  H9       1.0000 0.51200  0.68480  0.31220  Biso   1.000  H
  H10      1.0000 0.68480  0.17280  0.81220  Biso   1.000  H
  H11      1.0000 0.82720  0.51200  0.81220  Biso   1.000  H
  H12      1.0000 0.48800  0.31520  0.81220  Biso   1.000  H
  C37      1.0000 0.67810  0.18880  0.04950  Biso   1.000  C
  C38      1.0000 0.81120  0.48930  0.04950  Biso   1.000  C
  C39      1.0000 0.51070  0.32190  0.04950  Biso   1.000  C
  C40      1.0000 0.32190  0.81120  0.54950  Biso   1.000  C
  C41      1.0000 0.18880  0.51070  0.54950  Biso   1.000  C
  C42      1.0000 0.48930  0.67810  0.54950  Biso   1.000  C
  H13      1.0000 0.73850  0.22950  0.02990  Biso   1.000  H
  H14      1.0000 0.77050  0.50900  0.02990  Biso   1.000  H
  H15      1.0000 0.49100  0.26150  0.02990  Biso   1.000  H
  H16      1.0000 0.26150  0.77050  0.52990  Biso   1.000  H
  H17      1.0000 0.22950  0.49100  0.52990  Biso   1.000  H
  H18      1.0000 0.50900  0.73850  0.52990  Biso   1.000  H
  H19      1.0000 0.65660  0.13920  0.00070  Biso   1.000  H
  H20      1.0000 0.86080  0.51740  0.00070  Biso   1.000  H
  H21      1.0000 0.48260  0.34340  0.00070  Biso   1.000  H
  H22      1.0000 0.34340  0.86080  0.50070  Biso   1.000  H
  H23      1.0000 0.13920  0.48260  0.50070  Biso   1.000  H
  H24      1.0000 0.51740  0.65660  0.50070  Biso   1.000  H
  O43      1.0000 0.62960  0.22980  0.03270  Biso   1.000  O
  O44      1.0000 0.77020  0.39980  0.03270  Biso   1.000  O
  O45      1.0000 0.60020  0.37040  0.03270  Biso   1.000  O
  O46      1.0000 0.37040  0.77020  0.53270  Biso   1.000  O
  O47      1.0000 0.22980  0.60020  0.53270  Biso   1.000  O
  O48      1.0000 0.39980  0.62960  0.53270  Biso   1.000  O
  H25      1.0000 0.66270  0.28330  0.03100  Biso   1.000  H
  H26      1.0000 0.71670  0.37940  0.03100  Biso   1.000  H
  H27      1.0000 0.62060  0.33730  0.03100  Biso   1.000  H
  H28      1.0000 0.33730  0.71670  0.53100  Biso   1.000  H
  H29      1.0000 0.28330  0.62060  0.53100  Biso   1.000  H
  H30      1.0000 0.37940  0.66270  0.53100  Biso   1.000  H
  C43      1.0000 0.25330  0.88380  0.22820  Biso   1.000  C
  C44      1.0000 0.11620  0.36950  0.22820  Biso   1.000  C
  C45      1.0000 0.63050  0.74670  0.22820  Biso   1.000  C
  C46      1.0000 0.74670  0.11620  0.72820  Biso   1.000  C
  C47      1.0000 0.88380  0.63050  0.72820  Biso   1.000  C
  C48      1.0000 0.36950  0.25330  0.72820  Biso   1.000  C
  H31      1.0000 0.19570  0.84240  0.25630  Biso   1.000  H
  H32      1.0000 0.15760  0.35330  0.25630  Biso   1.000  H
  H33      1.0000 0.64670  0.80430  0.25630  Biso   1.000  H
  H34      1.0000 0.80430  0.15760  0.75630  Biso   1.000  H
  H35      1.0000 0.84240  0.64670  0.75630  Biso   1.000  H
  H36      1.0000 0.35330  0.19570  0.75630  Biso   1.000  H
  H37      1.0000 0.27740  0.93600  0.27270  Biso   1.000  H
  H38      1.0000 0.06400  0.34140  0.27270  Biso   1.000  H
  H39      1.0000 0.65860  0.72260  0.27270  Biso   1.000  H
  H40      1.0000 0.72260  0.06400  0.77270  Biso   1.000  H
  H41      1.0000 0.93600  0.65860  0.77270  Biso   1.000  H
  H42      1.0000 0.34140  0.27740  0.77270  Biso   1.000  H
  O49      1.0000 0.24400  0.90650  0.12130  Biso   1.000  O
  O50      1.0000 0.09350  0.33750  0.12130  Biso   1.000  O
  O51      1.0000 0.66250  0.75600  0.12130  Biso   1.000  O
  O52      1.0000 0.75600  0.09350  0.62130  Biso   1.000  O
  O53      1.0000 0.90650  0.66250  0.62130  Biso   1.000  O
  O54      1.0000 0.33750  0.24400  0.62130  Biso   1.000  O
  H43      1.0000 0.26820  0.96020  0.11590  Biso   1.000  H
  H44      1.0000 0.03980  0.30800  0.11590  Biso   1.000  H
  H45      1.0000 0.69200  0.73180  0.11590  Biso   1.000  H
  H46      1.0000 0.73180  0.03980  0.61590  Biso   1.000  H
  H47      1.0000 0.96020  0.69200  0.61590  Biso   1.000  H
  H48      1.0000 0.30800  0.26820  0.61590  Biso   1.000  H
  O55      1.0000 0.38110  0.94360  0.94570  Biso   1.000  O
  O56      1.0000 0.05640  0.43750  0.94570  Biso   1.000  O
  O57      1.0000 0.56250  0.61890  0.94570  Biso   1.000  O
  O58      1.0000 0.61890  0.05640  0.44570  Biso   1.000  O
  O59      1.0000 0.94360  0.56250  0.44570  Biso   1.000  O
  O60      1.0000 0.43750  0.38110  0.44570  Biso   1.000  O
  O61      1.0000 0.32780  0.98930  0.46000  Biso   1.000  O
  O62      1.0000 0.01070  0.33850  0.46000  Biso   1.000  O
  O63      1.0000 0.66150  0.67220  0.46000  Biso   1.000  O
  O64      1.0000 0.67220  0.01070  0.96000  Biso   1.000  O
  O65      1.0000 0.98930  0.66150  0.96000  Biso   1.000  O
  O66      1.0000 0.33850  0.32780  0.96000  Biso   1.000  O
  O67      1.0000 0.36030  0.47760  0.40150  Biso   1.000  O
  O68      1.0000 0.52240  0.88270  0.40150  Biso   1.000  O
  O69      1.0000 0.11730  0.63970  0.40150  Biso   1.000  O
  O70      1.0000 0.63970  0.52240  0.90150  Biso   1.000  O
  O71      1.0000 0.47760  0.11730  0.90150  Biso   1.000  O
  O72      1.0000 0.88270  0.36030  0.90150  Biso   1.000  O
  O73      1.0000 0.37230  0.17830  0.45200  Biso   1.000  O
  O74      1.0000 0.82170  0.19400  0.45200  Biso   1.000  O
  O75      1.0000 0.80600  0.62770  0.45200  Biso   1.000  O
  O76      1.0000 0.62770  0.82170  0.95200  Biso   1.000  O
  O77      1.0000 0.17830  0.80600  0.95200  Biso   1.000  O
  O78      1.0000 0.19400  0.37230  0.95200  Biso   1.000  O
  O79      1.0000 0.28630  0.37190  0.57900  Biso   1.000  O
  O80      1.0000 0.62810  0.91440  0.57900  Biso   1.000  O
  O81      1.0000 0.08560  0.71370  0.57900  Biso   1.000  O
  O82      1.0000 0.71370  0.62810  0.07900  Biso   1.000  O
  O83      1.0000 0.37190  0.08560  0.07900  Biso   1.000  O
  O84      1.0000 0.91440  0.28630  0.07900  Biso   1.000  O
  O85      1.0000 0.24700  0.32700  0.64400  Biso   1.000  O
  O86      1.0000 0.67300  0.92000  0.64400  Biso   1.000  O
  O87      1.0000 0.08000  0.75300  0.64400  Biso   1.000  O
  O88      1.0000 0.75300  0.67300  0.14400  Biso   1.000  O
  O89      1.0000 0.32700  0.08000  0.14400  Biso   1.000  O
  O90      1.0000 0.92000  0.24700  0.14400  Biso   1.000  O
  C49      1.0000 0.16400  0.07100  0.54400  Biso   1.000  C
  C50      1.0000 0.92900  0.09300  0.54400  Biso   1.000  C
  C51      1.0000 0.90700  0.83600  0.54400  Biso   1.000  C
  C52      1.0000 0.83600  0.92900  0.04400  Biso   1.000  C
  C53      1.0000 0.07100  0.90700  0.04400  Biso   1.000  C
  C54      1.0000 0.09300  0.16400  0.04400  Biso   1.000  C
  C55      1.0000 0.13600  0.13600  0.51300  Biso   1.000  C
  C56      1.0000 0.86400  0.00000  0.51300  Biso   1.000  C
  C57      1.0000 1.00000  0.86400  0.51300  Biso   1.000  C
  C58      1.0000 0.86400  0.86400  0.01300  Biso   1.000  C
  C59      1.0000 0.13600  1.00000  0.01300  Biso   1.000  C
  C60      1.0000 0.00000  0.13600  0.01300  Biso   1.000  C
  H49      1.0000 0.07610  0.09150  0.49400  Biso   1.000  H
  H50      1.0000 0.90850  0.98460  0.49400  Biso   1.000  H
  H51      1.0000 0.01540  0.92390  0.49400  Biso   1.000  H
  H52      1.0000 0.92390  0.90850  0.99400  Biso   1.000  H
  H53      1.0000 0.09150  0.01540  0.99400  Biso   1.000  H
  H54      1.0000 0.98460  0.07610  0.99400  Biso   1.000  H
  C61      1.0000 0.12200  0.11300  0.69500  Biso   1.000  C
  C62      1.0000 0.88700  0.00900  0.69500  Biso   1.000  C
  C63      1.0000 0.99100  0.87800  0.69500  Biso   1.000  C
  C64      1.0000 0.87800  0.88700  0.19500  Biso   1.000  C
  C65      1.0000 0.11300  0.99100  0.19500  Biso   1.000  C
  C66      1.0000 0.00900  0.12200  0.19500  Biso   1.000  C
  C67      1.0000 0.15500  0.05700  0.65500  Biso   1.000  C
  C68      1.0000 0.94300  0.09800  0.65500  Biso   1.000  C
  C69      1.0000 0.90200  0.84500  0.65500  Biso   1.000  C
  C70      1.0000 0.84500  0.94300  0.15500  Biso   1.000  C
  C71      1.0000 0.05700  0.90200  0.15500  Biso   1.000  C
  C72      1.0000 0.09800  0.15500  0.15500  Biso   1.000  C
  C73      1.0000 0.15500  0.18000  0.40500  Biso   1.000  C
  C74      1.0000 0.82000  0.97500  0.40500  Biso   1.000  C
  C75      1.0000 0.02500  0.84500  0.40500  Biso   1.000  C
  C76      1.0000 0.84500  0.82000  0.90500  Biso   1.000  C
  C77      1.0000 0.18000  0.02500  0.90500  Biso   1.000  C
  C78      1.0000 0.97500  0.15500  0.90500  Biso   1.000  C
  H55      1.0000 0.10490  0.14550  0.35800  Biso   1.000  H
  H56      1.0000 0.85450  0.95940  0.35800  Biso   1.000  H
  H57      1.0000 0.04060  0.89510  0.35800  Biso   1.000  H
  H58      1.0000 0.89510  0.85450  0.85800  Biso   1.000  H
  H59      1.0000 0.14550  0.04060  0.85800  Biso   1.000  H
  H60      1.0000 0.95940  0.10490  0.85800  Biso   1.000  H
  C79      1.0000 0.16700  0.26900  0.41300  Biso   1.000  C
  C80      1.0000 0.73100  0.89800  0.41300  Biso   1.000  C
  C81      1.0000 0.10200  0.83300  0.41300  Biso   1.000  C
  C82      1.0000 0.83300  0.73100  0.91300  Biso   1.000  C
  C83      1.0000 0.26900  0.10200  0.91300  Biso   1.000  C
  C84      1.0000 0.89800  0.16700  0.91300  Biso   1.000  C
  H61      1.0000 0.22870  0.31160  0.42370  Biso   1.000  H
  H62      1.0000 0.68840  0.91710  0.42370  Biso   1.000  H
  H63      1.0000 0.08290  0.77130  0.42370  Biso   1.000  H
  H64      1.0000 0.77130  0.68840  0.92370  Biso   1.000  H
  H65      1.0000 0.31160  0.08290  0.92370  Biso   1.000  H
  H66      1.0000 0.91710  0.22870  0.92370  Biso   1.000  H
  H67      1.0000 0.14840  0.28370  0.34630  Biso   1.000  H
  H68      1.0000 0.71630  0.86470  0.34630  Biso   1.000  H
  H69      1.0000 0.13530  0.85160  0.34630  Biso   1.000  H
  H70      1.0000 0.85160  0.71630  0.84630  Biso   1.000  H
  H71      1.0000 0.28370  0.13530  0.84630  Biso   1.000  H
  H72      1.0000 0.86470  0.14840  0.84630  Biso   1.000  H
  O91      1.0000 0.10800  0.11500  0.79200  Biso   1.000  O
  O92      1.0000 0.88500  0.99300  0.79200  Biso   1.000  O
  O93      1.0000 0.00700  0.89200  0.79200  Biso   1.000  O
  O94      1.0000 0.89200  0.88500  0.29200  Biso   1.000  O
  O95      1.0000 0.11500  0.00700  0.29200  Biso   1.000  O
  O96      1.0000 0.99300  0.10800  0.29200  Biso   1.000  O
  O97      1.0000 0.19000  0.04100  0.46300  Biso   1.000  O
  O98      1.0000 0.95900  0.14900  0.46300  Biso   1.000  O
  O99      1.0000 0.85100  0.81000  0.46300  Biso   1.000  O
  O100     1.0000 0.81000  0.95900  0.96300  Biso   1.000  O
  O101     1.0000 0.04100  0.85100  0.96300  Biso   1.000  O
  O102     1.0000 0.14900  0.19000  0.96300  Biso   1.000  O
  H73      1.0000 0.21650  0.08010  0.41900  Biso   1.000  H
  H74      1.0000 0.91990  0.13640  0.41900  Biso   1.000  H
  H75      1.0000 0.86360  0.78350  0.41900  Biso   1.000  H
  H76      1.0000 0.78350  0.91990  0.91900  Biso   1.000  H
  H77      1.0000 0.08010  0.86360  0.91900  Biso   1.000  H
  H78      1.0000 0.13640  0.21650  0.91900  Biso   1.000  H
  O103     1.0000 0.11800  0.27400  0.49800  Biso   1.000  O
  O104     1.0000 0.72600  0.84400  0.49800  Biso   1.000  O
  O105     1.0000 0.15600  0.88200  0.49800  Biso   1.000  O
  O106     1.0000 0.88200  0.72600  0.99800  Biso   1.000  O
  O107     1.0000 0.27400  0.15600  0.99800  Biso   1.000  O
  O108     1.0000 0.84400  0.11800  0.99800  Biso   1.000  O
  H79      1.0000 0.11200  0.23750  0.54420  Biso   1.000  H
  H80      1.0000 0.76250  0.87450  0.54420  Biso   1.000  H
  H81      1.0000 0.12550  0.88800  0.54420  Biso   1.000  H
  H82      1.0000 0.88800  0.76250  0.04420  Biso   1.000  H
  H83      1.0000 0.23750  0.12550  0.04420  Biso   1.000  H
  H84      1.0000 0.87450  0.11200  0.04420  Biso   1.000  H
  O109     1.0000 0.11300  0.15500  0.61300  Biso   1.000  O
  O110     1.0000 0.84500  0.95800  0.61300  Biso   1.000  O
  O111     1.0000 0.04200  0.88700  0.61300  Biso   1.000  O
  O112     1.0000 0.88700  0.84500  0.11300  Biso   1.000  O
  O113     1.0000 0.15500  0.04200  0.11300  Biso   1.000  O
  O114     1.0000 0.95800  0.11300  0.11300  Biso   1.000  O
  O115     1.0000 0.17300  0.00600  0.71200  Biso   1.000  O
  O116     1.0000 0.99400  0.16700  0.71200  Biso   1.000  O
  O117     1.0000 0.83300  0.82700  0.71200  Biso   1.000  O
  O118     1.0000 0.82700  0.99400  0.21200  Biso   1.000  O
  O119     1.0000 0.00600  0.83300  0.21200  Biso   1.000  O
  O120     1.0000 0.16700  0.17300  0.21200  Biso   1.000  O
  H85      1.0000 0.13280  0.95490  0.70530  Biso   1.000  H
  H86      1.0000 0.04510  0.17790  0.70530  Biso   1.000  H
  H87      1.0000 0.82210  0.86720  0.70530  Biso   1.000  H
  H88      1.0000 0.86720  0.04510  0.20530  Biso   1.000  H
  H89      1.0000 0.95490  0.82210  0.20530  Biso   1.000  H
  H90      1.0000 0.17790  0.13280  0.20530  Biso   1.000  H
  O121     1.0000 0.23000  0.18900  0.35700  Biso   1.000  O
  O122     1.0000 0.81100  0.04100  0.35700  Biso   1.000  O
  O123     1.0000 0.95900  0.77000  0.35700  Biso   1.000  O
  O124     1.0000 0.77000  0.81100  0.85700  Biso   1.000  O
  O125     1.0000 0.18900  0.95900  0.85700  Biso   1.000  O
  O126     1.0000 0.04100  0.23000  0.85700  Biso   1.000  O
  H91      1.0000 0.22160  0.18110  0.29200  Biso   1.000  H
  H92      1.0000 0.81890  0.04050  0.29200  Biso   1.000  H
  H93      1.0000 0.95950  0.77840  0.29200  Biso   1.000  H
  H94      1.0000 0.77840  0.81890  0.79200  Biso   1.000  H
  H95      1.0000 0.18110  0.95950  0.79200  Biso   1.000  H
  H96      1.0000 0.04050  0.22160  0.79200  Biso   1.000  H
