data_image0
_cell_length_a       17.9504
_cell_length_b       17.9504
_cell_length_c       12.5603
_cell_angle_alpha    90
_cell_angle_beta     90
_cell_angle_gamma    120

_symmetry_space_group_name_H-M    "P 1"
_symmetry_int_tables_number       1

loop_
  _symmetry_equiv_pos_as_xyz
  'x, y, z'

loop_
  _atom_site_label
  _atom_site_occupancy
  _atom_site_fract_x
  _atom_site_fract_y
  _atom_site_fract_z
  _atom_site_thermal_displace_type
  _atom_site_B_iso_or_equiv
  _atom_site_type_symbol
  Cu1      1.0000 0.44171  0.86126  0.51713  Biso   1.000  Cu
  Cu2      1.0000 0.13874  0.58045  0.51713  Biso   1.000  Cu
  Cu3      1.0000 0.41955  0.55829  0.51713  Biso   1.000  Cu
  Cu4      1.0000 0.55829  0.13874  0.01713  Biso   1.000  Cu
  Cu5      1.0000 0.86126  0.41955  0.01713  Biso   1.000  Cu
  Cu6      1.0000 0.58045  0.44171  0.01713  Biso   1.000  Cu
  Ca1      1.0000 0.33330  0.66670  0.38600  Biso   1.000  Ca
  Ca2      1.0000 0.66670  0.33330  0.88600  Biso   1.000  Ca
  O1       1.0000 0.32220  0.76030  0.52490  Biso   1.000  O
  O2       1.0000 0.23970  0.56190  0.52490  Biso   1.000  O
  O3       1.0000 0.43810  0.67780  0.52490  Biso   1.000  O
  O4       1.0000 0.67780  0.23970  0.02490  Biso   1.000  O
  O5       1.0000 0.76030  0.43810  0.02490  Biso   1.000  O
  O6       1.0000 0.56190  0.32220  0.02490  Biso   1.000  O
  O7       1.0000 0.67500  0.23850  0.74620  Biso   1.000  O
  O8       1.0000 0.76150  0.43650  0.74620  Biso   1.000  O
  O9       1.0000 0.56350  0.32500  0.74620  Biso   1.000  O
  O10      1.0000 0.32500  0.76150  0.24620  Biso   1.000  O
  O11      1.0000 0.23850  0.56350  0.24620  Biso   1.000  O
  O12      1.0000 0.43650  0.67500  0.24620  Biso   1.000  O
  O13      1.0000 0.54990  0.97840  0.53030  Biso   1.000  O
  O14      1.0000 0.02160  0.57150  0.53030  Biso   1.000  O
  O15      1.0000 0.42850  0.45010  0.53030  Biso   1.000  O
  O16      1.0000 0.45010  0.02160  0.03030  Biso   1.000  O
  O17      1.0000 0.97840  0.42850  0.03030  Biso   1.000  O
  O18      1.0000 0.57150  0.54990  0.03030  Biso   1.000  O
  O19      1.0000 0.46380  0.81940  0.38650  Biso   1.000  O
  O20      1.0000 0.18060  0.64440  0.38650  Biso   1.000  O
  O21      1.0000 0.35560  0.53620  0.38650  Biso   1.000  O
  O22      1.0000 0.53620  0.18060  0.88650  Biso   1.000  O
  O23      1.0000 0.81940  0.35560  0.88650  Biso   1.000  O
  O24      1.0000 0.64440  0.46380  0.88650  Biso   1.000  O
  O25      1.0000 0.44410  0.02270  0.74180  Biso   1.000  O
  O26      1.0000 0.97730  0.42140  0.74180  Biso   1.000  O
  O27      1.0000 0.57860  0.55590  0.74180  Biso   1.000  O
  O28      1.0000 0.55590  0.97730  0.24180  Biso   1.000  O
  O29      1.0000 0.02270  0.57860  0.24180  Biso   1.000  O
  O30      1.0000 0.42140  0.44410  0.24180  Biso   1.000  O
  O31      1.0000 0.79880  0.28840  0.65390  Biso   1.000  O
  O32      1.0000 0.71160  0.51040  0.65390  Biso   1.000  O
  O33      1.0000 0.48960  0.20120  0.65390  Biso   1.000  O
  O34      1.0000 0.20120  0.71160  0.15390  Biso   1.000  O
  O35      1.0000 0.28840  0.48960  0.15390  Biso   1.000  O
  O36      1.0000 0.51040  0.79880  0.15390  Biso   1.000  O
  N1       1.0000 0.39900  0.90150  0.63310  Biso   1.000  N
  N2       1.0000 0.09850  0.49750  0.63310  Biso   1.000  N
  N3       1.0000 0.50250  0.60100  0.63310  Biso   1.000  N
  N4       1.0000 0.60100  0.09850  0.13310  Biso   1.000  N
  N5       1.0000 0.90150  0.50250  0.13310  Biso   1.000  N
  N6       1.0000 0.49750  0.39900  0.13310  Biso   1.000  N
  N7       1.0000 0.59030  0.09800  0.63540  Biso   1.000  N
  N8       1.0000 0.90200  0.49230  0.63540  Biso   1.000  N
  N9       1.0000 0.50770  0.40970  0.63540  Biso   1.000  N
  N10      1.0000 0.40970  0.90200  0.13540  Biso   1.000  N
  N11      1.0000 0.09800  0.50770  0.13540  Biso   1.000  N
  N12      1.0000 0.49230  0.59030  0.13540  Biso   1.000  N
  C1       1.0000 0.71860  0.23160  0.67000  Biso   1.000  C
  C2       1.0000 0.76840  0.48700  0.67000  Biso   1.000  C
  C3       1.0000 0.51300  0.28140  0.67000  Biso   1.000  C
  C4       1.0000 0.28140  0.76840  0.17000  Biso   1.000  C
  C5       1.0000 0.23160  0.51300  0.17000  Biso   1.000  C
  C6       1.0000 0.48700  0.71860  0.17000  Biso   1.000  C
  C7       1.0000 0.27420  0.76130  0.59970  Biso   1.000  C
  C8       1.0000 0.23870  0.51290  0.59970  Biso   1.000  C
  C9       1.0000 0.48710  0.72580  0.59970  Biso   1.000  C
  C10      1.0000 0.72580  0.23870  0.09970  Biso   1.000  C
  C11      1.0000 0.76130  0.48710  0.09970  Biso   1.000  C
  C12      1.0000 0.51290  0.27420  0.09970  Biso   1.000  C
  C13      1.0000 0.31160  0.84670  0.66820  Biso   1.000  C
  C14      1.0000 0.15330  0.46490  0.66820  Biso   1.000  C
  C15      1.0000 0.53510  0.68840  0.66820  Biso   1.000  C
  C16      1.0000 0.68840  0.15330  0.16820  Biso   1.000  C
  C17      1.0000 0.84670  0.53510  0.16820  Biso   1.000  C
  C18      1.0000 0.46490  0.31160  0.16820  Biso   1.000  C
  H1       1.0000 0.31130  0.83270  0.74520  Biso   1.000  H
  H2       1.0000 0.16730  0.47860  0.74520  Biso   1.000  H
  H3       1.0000 0.52140  0.68870  0.74520  Biso   1.000  H
  H4       1.0000 0.68870  0.16730  0.24520  Biso   1.000  H
  H5       1.0000 0.83270  0.52140  0.24520  Biso   1.000  H
  H6       1.0000 0.47860  0.31130  0.24520  Biso   1.000  H
  C19      1.0000 0.67640  0.15610  0.59390  Biso   1.000  C
  C20      1.0000 0.84390  0.52030  0.59390  Biso   1.000  C
  C21      1.0000 0.47970  0.32360  0.59390  Biso   1.000  C
  C22      1.0000 0.32360  0.84390  0.09390  Biso   1.000  C
  C23      1.0000 0.15610  0.47970  0.09390  Biso   1.000  C
  C24      1.0000 0.52030  0.67640  0.09390  Biso   1.000  C
  H7       1.0000 0.71080  0.12650  0.58670  Biso   1.000  H
  H8       1.0000 0.87350  0.58430  0.58670  Biso   1.000  H
  H9       1.0000 0.41570  0.28920  0.58670  Biso   1.000  H
  H10      1.0000 0.28920  0.87350  0.08670  Biso   1.000  H
  H11      1.0000 0.12650  0.41570  0.08670  Biso   1.000  H
  H12      1.0000 0.58430  0.71080  0.08670  Biso   1.000  H
  C25      1.0000 0.45430  0.97940  0.66740  Biso   1.000  C
  C26      1.0000 0.02060  0.47490  0.66740  Biso   1.000  C
  C27      1.0000 0.52510  0.54570  0.66740  Biso   1.000  C
  C28      1.0000 0.54570  0.02060  0.16740  Biso   1.000  C
  C29      1.0000 0.97940  0.52510  0.16740  Biso   1.000  C
  C30      1.0000 0.47490  0.45430  0.16740  Biso   1.000  C
  O37      1.0000 0.20170  0.70370  0.62010  Biso   1.000  O
  O38      1.0000 0.29630  0.49800  0.62010  Biso   1.000  O
  O39      1.0000 0.50200  0.79830  0.62010  Biso   1.000  O
  O40      1.0000 0.79830  0.29630  0.12010  Biso   1.000  O
  O41      1.0000 0.70370  0.50200  0.12010  Biso   1.000  O
  O42      1.0000 0.49800  0.20170  0.12010  Biso   1.000  O
  C31      1.0000 0.53960  0.02050  0.60410  Biso   1.000  C
  C32      1.0000 0.97950  0.51910  0.60410  Biso   1.000  C
  C33      1.0000 0.48090  0.46040  0.60410  Biso   1.000  C
  C34      1.0000 0.46040  0.97950  0.10410  Biso   1.000  C
  C35      1.0000 0.02050  0.48090  0.10410  Biso   1.000  C
  C36      1.0000 0.51910  0.53960  0.10410  Biso   1.000  C
  O43      1.0000 0.24990  0.91300  0.54320  Biso   1.000  O
  O44      1.0000 0.08700  0.33690  0.54320  Biso   1.000  O
  O45      1.0000 0.66310  0.75010  0.54320  Biso   1.000  O
  O46      1.0000 0.75010  0.08700  0.04320  Biso   1.000  O
  O47      1.0000 0.91300  0.66310  0.04320  Biso   1.000  O
  O48      1.0000 0.33690  0.24990  0.04320  Biso   1.000  O
  C37      1.0000 0.25270  0.88740  0.65060  Biso   1.000  C
  C38      1.0000 0.11260  0.36530  0.65060  Biso   1.000  C
  C39      1.0000 0.63470  0.74730  0.65060  Biso   1.000  C
  C40      1.0000 0.74730  0.11260  0.15060  Biso   1.000  C
  C41      1.0000 0.88740  0.63470  0.15060  Biso   1.000  C
  C42      1.0000 0.36530  0.25270  0.15060  Biso   1.000  C
  C43      1.0000 0.66510  0.19410  0.47700  Biso   1.000  C
  C44      1.0000 0.80590  0.47100  0.47700  Biso   1.000  C
  C45      1.0000 0.52900  0.33490  0.47700  Biso   1.000  C
  C46      1.0000 0.33490  0.80590  0.97700  Biso   1.000  C
  C47      1.0000 0.19410  0.52900  0.97700  Biso   1.000  C
  C48      1.0000 0.47100  0.66510  0.97700  Biso   1.000  C
  O49      1.0000 0.66400  0.18700  0.36140  Biso   1.000  O
  O50      1.0000 0.81300  0.47700  0.36140  Biso   1.000  O
  O51      1.0000 0.52300  0.33600  0.36140  Biso   1.000  O
  O52      1.0000 0.33600  0.81300  0.86140  Biso   1.000  O
  O53      1.0000 0.18700  0.52300  0.86140  Biso   1.000  O
  O54      1.0000 0.47700  0.66400  0.86140  Biso   1.000  O
  Cu7      1.0000 0.44710  0.86032  0.25259  Biso   1.000  Cu
  Cu8      1.0000 0.13968  0.58678  0.25259  Biso   1.000  Cu
  Cu9      1.0000 0.41322  0.55290  0.25259  Biso   1.000  Cu
  Cu10     1.0000 0.55290  0.13968  0.75259  Biso   1.000  Cu
  Cu11     1.0000 0.86032  0.41322  0.75259  Biso   1.000  Cu
  Cu12     1.0000 0.58678  0.44710  0.75259  Biso   1.000  Cu
  O55      1.0000 0.38500  0.92500  0.40000  Biso   1.000  O
  O56      1.0000 0.07500  0.46000  0.40000  Biso   1.000  O
  O57      1.0000 0.54000  0.61500  0.40000  Biso   1.000  O
  O58      1.0000 0.61500  0.07500  0.90000  Biso   1.000  O
  O59      1.0000 0.92500  0.54000  0.90000  Biso   1.000  O
  O60      1.0000 0.46000  0.38500  0.90000  Biso   1.000  O
  O61      1.0000 0.17680  0.80490  0.38300  Biso   1.000  O
  O62      1.0000 0.19510  0.37190  0.38300  Biso   1.000  O
  O63      1.0000 0.62810  0.82320  0.38300  Biso   1.000  O
  O64      1.0000 0.82320  0.19510  0.88300  Biso   1.000  O
  O65      1.0000 0.80490  0.62810  0.88300  Biso   1.000  O
  O66      1.0000 0.37190  0.17680  0.88300  Biso   1.000  O
  O67      1.0000 0.00320  0.32110  0.89980  Biso   1.000  O
  O68      1.0000 0.67890  0.68210  0.89980  Biso   1.000  O
  O69      1.0000 0.31790  0.99680  0.89980  Biso   1.000  O
  O70      1.0000 0.99680  0.67890  0.39980  Biso   1.000  O
  O71      1.0000 0.32110  0.31790  0.39980  Biso   1.000  O
  O72      1.0000 0.68210  0.00320  0.39980  Biso   1.000  O
  C49      1.0000 0.07300  0.73950  0.89980  Biso   1.000  C
  C50      1.0000 0.26050  0.33350  0.89980  Biso   1.000  C
  C51      1.0000 0.66650  0.92700  0.89980  Biso   1.000  C
  C52      1.0000 0.92700  0.26050  0.39980  Biso   1.000  C
  C53      1.0000 0.73950  0.66650  0.39980  Biso   1.000  C
  C54      1.0000 0.33350  0.07300  0.39980  Biso   1.000  C
  C55      1.0000 0.08900  0.70200  0.81240  Biso   1.000  C
  C56      1.0000 0.29800  0.38700  0.81240  Biso   1.000  C
  C57      1.0000 0.61300  0.91100  0.81240  Biso   1.000  C
  C58      1.0000 0.91100  0.29800  0.31240  Biso   1.000  C
  C59      1.0000 0.70200  0.61300  0.31240  Biso   1.000  C
  C60      1.0000 0.38700  0.08900  0.31240  Biso   1.000  C
  C61      1.0000 0.11810  0.64390  0.82800  Biso   1.000  C
  C62      1.0000 0.35610  0.47420  0.82800  Biso   1.000  C
  C63      1.0000 0.52580  0.88190  0.82800  Biso   1.000  C
  C64      1.0000 0.88190  0.35610  0.32800  Biso   1.000  C
  C65      1.0000 0.64390  0.52580  0.32800  Biso   1.000  C
  C66      1.0000 0.47420  0.11810  0.32800  Biso   1.000  C
  C67      1.0000 0.13100  0.62370  0.93000  Biso   1.000  C
  C68      1.0000 0.37630  0.50730  0.93000  Biso   1.000  C
  C69      1.0000 0.49270  0.86900  0.93000  Biso   1.000  C
  C70      1.0000 0.86900  0.37630  0.43000  Biso   1.000  C
  C71      1.0000 0.62370  0.49270  0.43000  Biso   1.000  C
  C72      1.0000 0.50730  0.13100  0.43000  Biso   1.000  C
  C73      1.0000 0.11600  0.66130  0.01730  Biso   1.000  C
  C74      1.0000 0.33870  0.45470  0.01730  Biso   1.000  C
  C75      1.0000 0.54530  0.88400  0.01730  Biso   1.000  C
  C76      1.0000 0.88400  0.33870  0.51730  Biso   1.000  C
  C77      1.0000 0.66130  0.54530  0.51730  Biso   1.000  C
  C78      1.0000 0.45470  0.11600  0.51730  Biso   1.000  C
  C79      1.0000 0.08670  0.71930  0.00220  Biso   1.000  C
  C80      1.0000 0.28070  0.36740  0.00220  Biso   1.000  C
  C81      1.0000 0.63260  0.91330  0.00220  Biso   1.000  C
  C82      1.0000 0.91330  0.28070  0.50220  Biso   1.000  C
  C83      1.0000 0.71930  0.63260  0.50220  Biso   1.000  C
  C84      1.0000 0.36740  0.08670  0.50220  Biso   1.000  C
  C85      1.0000 0.11900  0.83800  0.88000  Biso   1.000  C
  C86      1.0000 0.16200  0.28100  0.88000  Biso   1.000  C
  C87      1.0000 0.71900  0.88100  0.88000  Biso   1.000  C
  C88      1.0000 0.88100  0.16200  0.38000  Biso   1.000  C
  C89      1.0000 0.83800  0.71900  0.38000  Biso   1.000  C
  C90      1.0000 0.28100  0.11900  0.38000  Biso   1.000  C
  C91      1.0000 0.19000  0.90400  0.94900  Biso   1.000  C
  C92      1.0000 0.09600  0.28600  0.94900  Biso   1.000  C
  C93      1.0000 0.71400  0.81000  0.94900  Biso   1.000  C
  C94      1.0000 0.81000  0.09600  0.44900  Biso   1.000  C
  C95      1.0000 0.90400  0.71400  0.44900  Biso   1.000  C
  C96      1.0000 0.28600  0.19000  0.44900  Biso   1.000  C
  C97      1.0000 0.10100  0.78700  0.08800  Biso   1.000  C
  C98      1.0000 0.21300  0.31400  0.08800  Biso   1.000  C
  C99      1.0000 0.68600  0.89900  0.08800  Biso   1.000  C
  C100     1.0000 0.89900  0.21300  0.58800  Biso   1.000  C
  C101     1.0000 0.78700  0.68600  0.58800  Biso   1.000  C
  C102     1.0000 0.31400  0.10100  0.58800  Biso   1.000  C
  C103     1.0000 0.12000  0.87500  0.04100  Biso   1.000  C
  C104     1.0000 0.12500  0.24500  0.04100  Biso   1.000  C
  C105     1.0000 0.75500  0.88000  0.04100  Biso   1.000  C
  C106     1.0000 0.88000  0.12500  0.54100  Biso   1.000  C
  C107     1.0000 0.87500  0.75500  0.54100  Biso   1.000  C
  C108     1.0000 0.24500  0.12000  0.54100  Biso   1.000  C
  C109     1.0000 0.09000  0.86500  0.27700  Biso   1.000  C
  C110     1.0000 0.13500  0.22500  0.27700  Biso   1.000  C
  C111     1.0000 0.77500  0.91000  0.27700  Biso   1.000  C
  C112     1.0000 0.91000  0.13500  0.77700  Biso   1.000  C
  C113     1.0000 0.86500  0.77500  0.77700  Biso   1.000  C
  C114     1.0000 0.22500  0.09000  0.77700  Biso   1.000  C
  C115     1.0000 0.09800  0.79800  0.20800  Biso   1.000  C
  C116     1.0000 0.20200  0.30000  0.20800  Biso   1.000  C
  C117     1.0000 0.70000  0.90200  0.20800  Biso   1.000  C
  C118     1.0000 0.90200  0.20200  0.70800  Biso   1.000  C
  C119     1.0000 0.79800  0.70000  0.70800  Biso   1.000  C
  C120     1.0000 0.30000  0.09800  0.70800  Biso   1.000  C
  C121     1.0000 0.06800  0.91200  0.08900  Biso   1.000  C
  C122     1.0000 0.08800  0.15600  0.08900  Biso   1.000  C
  C123     1.0000 0.84400  0.93200  0.08900  Biso   1.000  C
  C124     1.0000 0.93200  0.08800  0.58900  Biso   1.000  C
  C125     1.0000 0.91200  0.84400  0.58900  Biso   1.000  C
  C126     1.0000 0.15600  0.06800  0.58900  Biso   1.000  C
  C127     1.0000 0.04000  0.89100  0.20000  Biso   1.000  C
  C128     1.0000 0.10900  0.14900  0.20000  Biso   1.000  C
  C129     1.0000 0.85100  0.96000  0.20000  Biso   1.000  C
  C130     1.0000 0.96000  0.10900  0.70000  Biso   1.000  C
  C131     1.0000 0.89100  0.85100  0.70000  Biso   1.000  C
  C132     1.0000 0.14900  0.04000  0.70000  Biso   1.000  C
  C133     1.0000 0.00000  0.00000  0.13600  Biso   1.000  C
  C134     1.0000 0.00000  0.00000  0.63600  Biso   1.000  C
  C135     1.0000 0.02400  0.96000  0.04400  Biso   1.000  C
  C136     1.0000 0.04000  0.06400  0.04400  Biso   1.000  C
  C137     1.0000 0.93600  0.97600  0.04400  Biso   1.000  C
  C138     1.0000 0.97600  0.04000  0.54400  Biso   1.000  C
  C139     1.0000 0.96000  0.93600  0.54400  Biso   1.000  C
  C140     1.0000 0.06400  0.02400  0.54400  Biso   1.000  C
  C141     1.0000 0.03900  0.97100  0.24100  Biso   1.000  C
  C142     1.0000 0.02900  0.06800  0.24100  Biso   1.000  C
  C143     1.0000 0.93200  0.96100  0.24100  Biso   1.000  C
  C144     1.0000 0.96100  0.02900  0.74100  Biso   1.000  C
  C145     1.0000 0.97100  0.93200  0.74100  Biso   1.000  C
  C146     1.0000 0.06800  0.03900  0.74100  Biso   1.000  C
  C147     1.0000 0.94800  0.82500  0.21500  Biso   1.000  C
  C148     1.0000 0.17500  0.12300  0.21500  Biso   1.000  C
  C149     1.0000 0.87700  0.05200  0.21500  Biso   1.000  C
  C150     1.0000 0.05200  0.17500  0.71500  Biso   1.000  C
  C151     1.0000 0.82500  0.87700  0.71500  Biso   1.000  C
  C152     1.0000 0.12300  0.94800  0.71500  Biso   1.000  C
  O73      1.0000 0.13300  0.60800  0.74400  Biso   1.000  O
  O74      1.0000 0.39200  0.52500  0.74400  Biso   1.000  O
  O75      1.0000 0.47500  0.86700  0.74400  Biso   1.000  O
  O76      1.0000 0.86700  0.39200  0.24400  Biso   1.000  O
  O77      1.0000 0.60800  0.47500  0.24400  Biso   1.000  O
  O78      1.0000 0.52500  0.13300  0.24400  Biso   1.000  O
  O79      1.0000 0.99800  0.97600  0.33300  Biso   1.000  O
  O80      1.0000 0.02400  0.02200  0.33300  Biso   1.000  O
  O81      1.0000 0.97800  0.00200  0.33300  Biso   1.000  O
  O82      1.0000 0.00200  0.02400  0.83300  Biso   1.000  O
  O83      1.0000 0.97600  0.97800  0.83300  Biso   1.000  O
  O84      1.0000 0.02200  0.99800  0.83300  Biso   1.000  O
