data_image0
_cell_length_a       17.9035
_cell_length_b       17.9035
_cell_length_c       12.6421
_cell_angle_alpha    90
_cell_angle_beta     90
_cell_angle_gamma    120

_symmetry_space_group_name_H-M    "P 1"
_symmetry_int_tables_number       1

loop_
  _symmetry_equiv_pos_as_xyz
  'x, y, z'

loop_
  _atom_site_label
  _atom_site_occupancy
  _atom_site_fract_x
  _atom_site_fract_y
  _atom_site_fract_z
  _atom_site_thermal_displace_type
  _atom_site_B_iso_or_equiv
  _atom_site_type_symbol
  Cu1      1.0000 0.13841  0.58585  0.93443  Biso   1.000  Cu
  Cu2      1.0000 0.41415  0.55256  0.93443  Biso   1.000  Cu
  Cu3      1.0000 0.44744  0.86159  0.93443  Biso   1.000  Cu
  Cu4      1.0000 0.86159  0.41415  0.43443  Biso   1.000  Cu
  Cu5      1.0000 0.58585  0.44744  0.43443  Biso   1.000  Cu
  Cu6      1.0000 0.55256  0.13841  0.43443  Biso   1.000  Cu
  Cu7      1.0000 0.13743  0.57840  0.19646  Biso   1.000  Cu
  Cu8      1.0000 0.42160  0.55903  0.19646  Biso   1.000  Cu
  Cu9      1.0000 0.44097  0.86257  0.19646  Biso   1.000  Cu
  Cu10     1.0000 0.86257  0.42160  0.69646  Biso   1.000  Cu
  Cu11     1.0000 0.57840  0.44097  0.69646  Biso   1.000  Cu
  Cu12     1.0000 0.55903  0.13743  0.69646  Biso   1.000  Cu
  Ca1      1.0000 0.33330  0.66670  0.06680  Biso   1.000  Ca
  Ca2      1.0000 0.66670  0.33330  0.56680  Biso   1.000  Ca
  O1       1.0000 0.17900  0.64260  0.06800  Biso   1.000  O
  O2       1.0000 0.35740  0.53640  0.06800  Biso   1.000  O
  O3       1.0000 0.46360  0.82100  0.06800  Biso   1.000  O
  O4       1.0000 0.82100  0.35740  0.56800  Biso   1.000  O
  O5       1.0000 0.64260  0.46360  0.56800  Biso   1.000  O
  O6       1.0000 0.53640  0.17900  0.56800  Biso   1.000  O
  N1       1.0000 0.09750  0.49640  0.31040  Biso   1.000  N
  N2       1.0000 0.50360  0.60110  0.31040  Biso   1.000  N
  N3       1.0000 0.39890  0.90250  0.31040  Biso   1.000  N
  N4       1.0000 0.90250  0.50360  0.81040  Biso   1.000  N
  N5       1.0000 0.49640  0.39890  0.81040  Biso   1.000  N
  N6       1.0000 0.60110  0.09750  0.81040  Biso   1.000  N
  N7       1.0000 0.90140  0.49050  0.31570  Biso   1.000  N
  N8       1.0000 0.50950  0.41090  0.31570  Biso   1.000  N
  N9       1.0000 0.58910  0.09860  0.31570  Biso   1.000  N
  N10      1.0000 0.09860  0.50950  0.81570  Biso   1.000  N
  N11      1.0000 0.49050  0.58910  0.81570  Biso   1.000  N
  N12      1.0000 0.41090  0.90140  0.81570  Biso   1.000  N
  O7       1.0000 0.76230  0.43640  0.42880  Biso   1.000  O
  O8       1.0000 0.56360  0.32590  0.42880  Biso   1.000  O
  O9       1.0000 0.67410  0.23770  0.42880  Biso   1.000  O
  O10      1.0000 0.23770  0.56360  0.92880  Biso   1.000  O
  O11      1.0000 0.43640  0.67410  0.92880  Biso   1.000  O
  O12      1.0000 0.32590  0.76230  0.92880  Biso   1.000  O
  O13      1.0000 0.97890  0.42240  0.42190  Biso   1.000  O
  O14      1.0000 0.57760  0.55650  0.42190  Biso   1.000  O
  O15      1.0000 0.44350  0.02110  0.42190  Biso   1.000  O
  O16      1.0000 0.02110  0.57760  0.92190  Biso   1.000  O
  O17      1.0000 0.42240  0.44350  0.92190  Biso   1.000  O
  O18      1.0000 0.55650  0.97890  0.92190  Biso   1.000  O
  O19      1.0000 0.71230  0.50910  0.33720  Biso   1.000  O
  O20      1.0000 0.49090  0.20320  0.33720  Biso   1.000  O
  O21      1.0000 0.79680  0.28770  0.33720  Biso   1.000  O
  O22      1.0000 0.28770  0.49090  0.83720  Biso   1.000  O
  O23      1.0000 0.50910  0.79680  0.83720  Biso   1.000  O
  O24      1.0000 0.20320  0.71230  0.83720  Biso   1.000  O
  O25      1.0000 0.23920  0.56110  0.20370  Biso   1.000  O
  O26      1.0000 0.43890  0.67810  0.20370  Biso   1.000  O
  O27      1.0000 0.32190  0.76080  0.20370  Biso   1.000  O
  O28      1.0000 0.76080  0.43890  0.70370  Biso   1.000  O
  O29      1.0000 0.56110  0.32190  0.70370  Biso   1.000  O
  O30      1.0000 0.67810  0.23920  0.70370  Biso   1.000  O
  O31      1.0000 0.29730  0.49860  0.29950  Biso   1.000  O
  O32      1.0000 0.50140  0.79870  0.29950  Biso   1.000  O
  O33      1.0000 0.20130  0.70270  0.29950  Biso   1.000  O
  O34      1.0000 0.70270  0.50140  0.79950  Biso   1.000  O
  O35      1.0000 0.49860  0.20130  0.79950  Biso   1.000  O
  O36      1.0000 0.79870  0.29730  0.79950  Biso   1.000  O
  O37      1.0000 0.02090  0.56980  0.21030  Biso   1.000  O
  O38      1.0000 0.43020  0.45110  0.21030  Biso   1.000  O
  O39      1.0000 0.54890  0.97910  0.21030  Biso   1.000  O
  O40      1.0000 0.97910  0.43020  0.71030  Biso   1.000  O
  O41      1.0000 0.56980  0.54890  0.71030  Biso   1.000  O
  O42      1.0000 0.45110  0.02090  0.71030  Biso   1.000  O
  C1       1.0000 0.76670  0.48730  0.35160  Biso   1.000  C
  C2       1.0000 0.51270  0.27940  0.35160  Biso   1.000  C
  C3       1.0000 0.72060  0.23330  0.35160  Biso   1.000  C
  C4       1.0000 0.23330  0.51270  0.85160  Biso   1.000  C
  C5       1.0000 0.48730  0.72060  0.85160  Biso   1.000  C
  C6       1.0000 0.27940  0.76670  0.85160  Biso   1.000  C
  C7       1.0000 0.01980  0.47270  0.34680  Biso   1.000  C
  C8       1.0000 0.52730  0.54710  0.34680  Biso   1.000  C
  C9       1.0000 0.45290  0.98020  0.34680  Biso   1.000  C
  C10      1.0000 0.98020  0.52730  0.84680  Biso   1.000  C
  C11      1.0000 0.47270  0.45290  0.84680  Biso   1.000  C
  C12      1.0000 0.54710  0.01980  0.84680  Biso   1.000  C
  C13      1.0000 0.84240  0.51940  0.27640  Biso   1.000  C
  C14      1.0000 0.48060  0.32300  0.27640  Biso   1.000  C
  C15      1.0000 0.67700  0.15760  0.27640  Biso   1.000  C
  C16      1.0000 0.15760  0.48060  0.77640  Biso   1.000  C
  C17      1.0000 0.51940  0.67700  0.77640  Biso   1.000  C
  C18      1.0000 0.32300  0.84240  0.77640  Biso   1.000  C
  H1       1.0000 0.87250  0.58340  0.26770  Biso   1.000  H
  H2       1.0000 0.41660  0.28910  0.26770  Biso   1.000  H
  H3       1.0000 0.71090  0.12750  0.26770  Biso   1.000  H
  H4       1.0000 0.12750  0.41660  0.76770  Biso   1.000  H
  H5       1.0000 0.58340  0.71090  0.76770  Biso   1.000  H
  H6       1.0000 0.28910  0.87250  0.76770  Biso   1.000  H
  C19      1.0000 0.23810  0.51330  0.27660  Biso   1.000  C
  C20      1.0000 0.48670  0.72480  0.27660  Biso   1.000  C
  C21      1.0000 0.27520  0.76190  0.27660  Biso   1.000  C
  C22      1.0000 0.76190  0.48670  0.77660  Biso   1.000  C
  C23      1.0000 0.51330  0.27520  0.77660  Biso   1.000  C
  C24      1.0000 0.72480  0.23810  0.77660  Biso   1.000  C
  C25      1.0000 0.15250  0.46440  0.34570  Biso   1.000  C
  C26      1.0000 0.53560  0.68810  0.34570  Biso   1.000  C
  C27      1.0000 0.31190  0.84750  0.34570  Biso   1.000  C
  C28      1.0000 0.84750  0.53560  0.84570  Biso   1.000  C
  C29      1.0000 0.46440  0.31190  0.84570  Biso   1.000  C
  C30      1.0000 0.68810  0.15250  0.84570  Biso   1.000  C
  H7       1.0000 0.16710  0.47930  0.42200  Biso   1.000  H
  H8       1.0000 0.52070  0.68780  0.42200  Biso   1.000  H
  H9       1.0000 0.31220  0.83290  0.42200  Biso   1.000  H
  H10      1.0000 0.83290  0.52070  0.92200  Biso   1.000  H
  H11      1.0000 0.47930  0.31220  0.92200  Biso   1.000  H
  H12      1.0000 0.68780  0.16710  0.92200  Biso   1.000  H
  C31      1.0000 0.97740  0.51570  0.28440  Biso   1.000  C
  C32      1.0000 0.48430  0.46170  0.28440  Biso   1.000  C
  C33      1.0000 0.53830  0.02260  0.28440  Biso   1.000  C
  C34      1.0000 0.02260  0.48430  0.78440  Biso   1.000  C
  C35      1.0000 0.51570  0.53830  0.78440  Biso   1.000  C
  C36      1.0000 0.46170  0.97740  0.78440  Biso   1.000  C
  C37      1.0000 0.80090  0.46850  0.16250  Biso   1.000  C
  C38      1.0000 0.53150  0.33240  0.16250  Biso   1.000  C
  C39      1.0000 0.66760  0.19910  0.16250  Biso   1.000  C
  C40      1.0000 0.19910  0.53150  0.66250  Biso   1.000  C
  C41      1.0000 0.46850  0.66760  0.66250  Biso   1.000  C
  C42      1.0000 0.33240  0.80090  0.66250  Biso   1.000  C
  H13      1.0000 0.77670  0.40580  0.17300  Biso   1.000  H
  H14      1.0000 0.59420  0.37090  0.17300  Biso   1.000  H
  H15      1.0000 0.62910  0.22330  0.17300  Biso   1.000  H
  H16      1.0000 0.22330  0.59420  0.67300  Biso   1.000  H
  H17      1.0000 0.40580  0.62910  0.67300  Biso   1.000  H
  H18      1.0000 0.37090  0.77670  0.67300  Biso   1.000  H
  H19      1.0000 0.75310  0.47810  0.14140  Biso   1.000  H
  H20      1.0000 0.52190  0.27500  0.14140  Biso   1.000  H
  H21      1.0000 0.72500  0.24690  0.14140  Biso   1.000  H
  H22      1.0000 0.24690  0.52190  0.64140  Biso   1.000  H
  H23      1.0000 0.47810  0.72500  0.64140  Biso   1.000  H
  H24      1.0000 0.27500  0.75310  0.64140  Biso   1.000  H
  O43      1.0000 0.86220  0.49700  0.08100  Biso   1.000  O
  O44      1.0000 0.50300  0.36520  0.08100  Biso   1.000  O
  O45      1.0000 0.63480  0.13780  0.08100  Biso   1.000  O
  O46      1.0000 0.13780  0.50300  0.58100  Biso   1.000  O
  O47      1.0000 0.49700  0.63480  0.58100  Biso   1.000  O
  O48      1.0000 0.36520  0.86220  0.58100  Biso   1.000  O
  H25      1.0000 0.90000  0.54850  0.09130  Biso   1.000  H
  H26      1.0000 0.45150  0.35150  0.09130  Biso   1.000  H
  H27      1.0000 0.64850  0.10000  0.09130  Biso   1.000  H
  H28      1.0000 0.10000  0.45150  0.59130  Biso   1.000  H
  H29      1.0000 0.54850  0.64850  0.59130  Biso   1.000  H
  H30      1.0000 0.35150  0.90000  0.59130  Biso   1.000  H
  C43      1.0000 0.11420  0.36580  0.33040  Biso   1.000  C
  C44      1.0000 0.63420  0.74840  0.33040  Biso   1.000  C
  C45      1.0000 0.25160  0.88580  0.33040  Biso   1.000  C
  C46      1.0000 0.88580  0.63420  0.83040  Biso   1.000  C
  C47      1.0000 0.36580  0.25160  0.83040  Biso   1.000  C
  C48      1.0000 0.74840  0.11420  0.83040  Biso   1.000  C
  H31      1.0000 0.15650  0.34960  0.35590  Biso   1.000  H
  H32      1.0000 0.65040  0.80690  0.35590  Biso   1.000  H
  H33      1.0000 0.19310  0.84350  0.35590  Biso   1.000  H
  H34      1.0000 0.84350  0.65040  0.85590  Biso   1.000  H
  H35      1.0000 0.34960  0.19310  0.85590  Biso   1.000  H
  H36      1.0000 0.80690  0.15650  0.85590  Biso   1.000  H
  H37      1.0000 0.06170  0.33470  0.37430  Biso   1.000  H
  H38      1.0000 0.66530  0.72700  0.37430  Biso   1.000  H
  H39      1.0000 0.27300  0.93830  0.37430  Biso   1.000  H
  H40      1.0000 0.93830  0.66530  0.87430  Biso   1.000  H
  H41      1.0000 0.33470  0.27300  0.87430  Biso   1.000  H
  H42      1.0000 0.72700  0.06170  0.87430  Biso   1.000  H
  O49      1.0000 0.09330  0.33910  0.22550  Biso   1.000  O
  O50      1.0000 0.66090  0.75420  0.22550  Biso   1.000  O
  O51      1.0000 0.24580  0.90670  0.22550  Biso   1.000  O
  O52      1.0000 0.90670  0.66090  0.72550  Biso   1.000  O
  O53      1.0000 0.33910  0.24580  0.72550  Biso   1.000  O
  O54      1.0000 0.75420  0.09330  0.72550  Biso   1.000  O
  H43      1.0000 0.13870  0.35520  0.19060  Biso   1.000  H
  H44      1.0000 0.64480  0.78350  0.19060  Biso   1.000  H
  H45      1.0000 0.21650  0.86130  0.19060  Biso   1.000  H
  H46      1.0000 0.86130  0.64480  0.69060  Biso   1.000  H
  H47      1.0000 0.35520  0.21650  0.69060  Biso   1.000  H
  H48      1.0000 0.78350  0.13870  0.69060  Biso   1.000  H
  O55      1.0000 0.05870  0.43430  0.05410  Biso   1.000  O
  O56      1.0000 0.56570  0.62440  0.05410  Biso   1.000  O
  O57      1.0000 0.37560  0.94130  0.05410  Biso   1.000  O
  O58      1.0000 0.94130  0.56570  0.55410  Biso   1.000  O
  O59      1.0000 0.43430  0.37560  0.55410  Biso   1.000  O
  O60      1.0000 0.62440  0.05870  0.55410  Biso   1.000  O
  O61      1.0000 0.88700  0.70800  0.09600  Biso   1.000  O
  O62      1.0000 0.29200  0.17900  0.09600  Biso   1.000  O
  O63      1.0000 0.82100  0.11300  0.09600  Biso   1.000  O
  O64      1.0000 0.11300  0.29200  0.59600  Biso   1.000  O
  O65      1.0000 0.70800  0.82100  0.59600  Biso   1.000  O
  O66      1.0000 0.17900  0.88700  0.59600  Biso   1.000  O
  O67      1.0000 0.98820  0.64690  0.06990  Biso   1.000  O
  O68      1.0000 0.35310  0.34130  0.06990  Biso   1.000  O
  O69      1.0000 0.65870  0.01180  0.06990  Biso   1.000  O
  O70      1.0000 0.01180  0.35310  0.56990  Biso   1.000  O
  O71      1.0000 0.64690  0.65870  0.56990  Biso   1.000  O
  O72      1.0000 0.34130  0.98820  0.56990  Biso   1.000  O
  O73      1.0000 0.15900  0.79400  0.06540  Biso   1.000  O
  O74      1.0000 0.20600  0.36500  0.06540  Biso   1.000  O
  O75      1.0000 0.63500  0.84100  0.06540  Biso   1.000  O
  O76      1.0000 0.84100  0.20600  0.56540  Biso   1.000  O
  O77      1.0000 0.79400  0.63500  0.56540  Biso   1.000  O
  O78      1.0000 0.36500  0.15900  0.56540  Biso   1.000  O
  O79      1.0000 0.12410  0.64240  0.50810  Biso   1.000  O
  O80      1.0000 0.35760  0.48170  0.50810  Biso   1.000  O
  O81      1.0000 0.51830  0.87590  0.50810  Biso   1.000  O
  O82      1.0000 0.87590  0.35760  0.00810  Biso   1.000  O
  O83      1.0000 0.64240  0.51830  0.00810  Biso   1.000  O
  O84      1.0000 0.48170  0.12410  0.00810  Biso   1.000  O
  O85      1.0000 0.08500  0.72490  0.71400  Biso   1.000  O
  O86      1.0000 0.27510  0.36010  0.71400  Biso   1.000  O
  O87      1.0000 0.63990  0.91500  0.71400  Biso   1.000  O
  O88      1.0000 0.91500  0.27510  0.21400  Biso   1.000  O
  O89      1.0000 0.72490  0.63990  0.21400  Biso   1.000  O
  O90      1.0000 0.36010  0.08500  0.21400  Biso   1.000  O
  C49      1.0000 0.08740  0.06390  0.40500  Biso   1.000  C
  C50      1.0000 0.93610  0.02350  0.40500  Biso   1.000  C
  C51      1.0000 0.97650  0.91260  0.40500  Biso   1.000  C
  C52      1.0000 0.91260  0.93610  0.90500  Biso   1.000  C
  C53      1.0000 0.06390  0.97650  0.90500  Biso   1.000  C
  C54      1.0000 0.02350  0.08740  0.90500  Biso   1.000  C
  C55      1.0000 0.02350  0.08770  0.40300  Biso   1.000  C
  C56      1.0000 0.91230  0.93580  0.40300  Biso   1.000  C
  C57      1.0000 0.06420  0.97650  0.40300  Biso   1.000  C
  C58      1.0000 0.97650  0.91230  0.90300  Biso   1.000  C
  C59      1.0000 0.08770  0.06420  0.90300  Biso   1.000  C
  C60      1.0000 0.93580  0.02350  0.90300  Biso   1.000  C
  O91      1.0000 0.16150  0.15520  0.40100  Biso   1.000  O
  O92      1.0000 0.84480  0.00630  0.40100  Biso   1.000  O
  O93      1.0000 0.99370  0.83850  0.40100  Biso   1.000  O
  O94      1.0000 0.83850  0.84480  0.90100  Biso   1.000  O
  O95      1.0000 0.15520  0.99370  0.90100  Biso   1.000  O
  O96      1.0000 0.00630  0.16150  0.90100  Biso   1.000  O
  O97      1.0000 0.06500  0.24100  0.38000  Biso   1.000  O
  O98      1.0000 0.75900  0.82400  0.38000  Biso   1.000  O
  O99      1.0000 0.17600  0.93500  0.38000  Biso   1.000  O
  O100     1.0000 0.93500  0.75900  0.88000  Biso   1.000  O
  O101     1.0000 0.24100  0.17600  0.88000  Biso   1.000  O
  O102     1.0000 0.82400  0.06500  0.88000  Biso   1.000  O
  C61      1.0000 0.99600  0.15500  0.40100  Biso   1.000  C
  C62      1.0000 0.84500  0.84100  0.40100  Biso   1.000  C
  C63      1.0000 0.15900  0.00400  0.40100  Biso   1.000  C
  C64      1.0000 0.00400  0.84500  0.90100  Biso   1.000  C
  C65      1.0000 0.15500  0.15900  0.90100  Biso   1.000  C
  C66      1.0000 0.84100  0.99600  0.90100  Biso   1.000  C
