data_image0
_cell_length_a       17.997
_cell_length_b       17.997
_cell_length_c       12.861
_cell_angle_alpha    90
_cell_angle_beta     90
_cell_angle_gamma    120

_symmetry_space_group_name_H-M    "P 1"
_symmetry_int_tables_number       1

loop_
  _symmetry_equiv_pos_as_xyz
  'x, y, z'

loop_
  _atom_site_label
  _atom_site_occupancy
  _atom_site_fract_x
  _atom_site_fract_y
  _atom_site_fract_z
  _atom_site_thermal_displace_type
  _atom_site_B_iso_or_equiv
  _atom_site_type_symbol
  O1       1.0000 0.65320  0.98220  0.11770  Biso   1.000  O
  O2       1.0000 0.01780  0.67100  0.11770  Biso   1.000  O
  O3       1.0000 0.32900  0.34680  0.11770  Biso   1.000  O
  O4       1.0000 0.34680  0.01780  0.61770  Biso   1.000  O
  O5       1.0000 0.98220  0.32900  0.61770  Biso   1.000  O
  O6       1.0000 0.67100  0.65320  0.61770  Biso   1.000  O
  O7       1.0000 0.71940  0.08180  0.46550  Biso   1.000  O
  O8       1.0000 0.91820  0.63760  0.46550  Biso   1.000  O
  O9       1.0000 0.36240  0.28060  0.46550  Biso   1.000  O
  O10      1.0000 0.28060  0.91820  0.96550  Biso   1.000  O
  O11      1.0000 0.08180  0.36240  0.96550  Biso   1.000  O
  O12      1.0000 0.63760  0.71940  0.96550  Biso   1.000  O
  O13      1.0000 0.75100  0.00100  0.79500  Biso   1.000  O
  O14      1.0000 0.99900  0.75000  0.79500  Biso   1.000  O
  O15      1.0000 0.25000  0.24900  0.79500  Biso   1.000  O
  O16      1.0000 0.24900  0.99900  0.29500  Biso   1.000  O
  O17      1.0000 0.00100  0.25000  0.29500  Biso   1.000  O
  O18      1.0000 0.75000  0.75100  0.29500  Biso   1.000  O
  O19      1.0000 0.67900  0.85100  0.09100  Biso   1.000  O
  O20      1.0000 0.14900  0.82800  0.09100  Biso   1.000  O
  O21      1.0000 0.17200  0.32100  0.09100  Biso   1.000  O
  O22      1.0000 0.32100  0.14900  0.59100  Biso   1.000  O
  O23      1.0000 0.85100  0.17200  0.59100  Biso   1.000  O
  O24      1.0000 0.82800  0.67900  0.59100  Biso   1.000  O
  O25      1.0000 0.64560  0.13110  0.68040  Biso   1.000  O
  O26      1.0000 0.86890  0.51450  0.68040  Biso   1.000  O
  O27      1.0000 0.48550  0.35440  0.68040  Biso   1.000  O
  O28      1.0000 0.35440  0.86890  0.18040  Biso   1.000  O
  O29      1.0000 0.13110  0.48550  0.18040  Biso   1.000  O
  O30      1.0000 0.51450  0.64560  0.18040  Biso   1.000  O
  O31      1.0000 0.80240  0.17450  0.11500  Biso   1.000  O
  O32      1.0000 0.82550  0.62790  0.11500  Biso   1.000  O
  O33      1.0000 0.37210  0.19760  0.11500  Biso   1.000  O
  O34      1.0000 0.19760  0.82550  0.61500  Biso   1.000  O
  O35      1.0000 0.17450  0.37210  0.61500  Biso   1.000  O
  O36      1.0000 0.62790  0.80240  0.61500  Biso   1.000  O
  O37      1.0000 0.94950  0.37670  0.12500  Biso   1.000  O
  O38      1.0000 0.62330  0.57280  0.12500  Biso   1.000  O
  O39      1.0000 0.42720  0.05050  0.12500  Biso   1.000  O
  O40      1.0000 0.05050  0.62330  0.62500  Biso   1.000  O
  O41      1.0000 0.37670  0.42720  0.62500  Biso   1.000  O
  O42      1.0000 0.57280  0.94950  0.62500  Biso   1.000  O
  Cu1      1.0000 0.86429  0.44125  0.99110  Biso   1.000  Cu
  Cu2      1.0000 0.55875  0.42304  0.99110  Biso   1.000  Cu
  Cu3      1.0000 0.57696  0.13571  0.99110  Biso   1.000  Cu
  Cu4      1.0000 0.13571  0.55875  0.49110  Biso   1.000  Cu
  Cu5      1.0000 0.44125  0.57696  0.49110  Biso   1.000  Cu
  Cu6      1.0000 0.42304  0.86429  0.49110  Biso   1.000  Cu
  Cu7      1.0000 0.86339  0.44608  0.24780  Biso   1.000  Cu
  Cu8      1.0000 0.55392  0.41731  0.24780  Biso   1.000  Cu
  Cu9      1.0000 0.58269  0.13661  0.24780  Biso   1.000  Cu
  Cu10     1.0000 0.13661  0.55392  0.74780  Biso   1.000  Cu
  Cu11     1.0000 0.44608  0.58269  0.74780  Biso   1.000  Cu
  Cu12     1.0000 0.41731  0.86339  0.74780  Biso   1.000  Cu
  Ca1      1.0000 0.66670  0.33340  0.11900  Biso   1.000  Ca
  Ca2      1.0000 0.33330  0.66660  0.61900  Biso   1.000  Ca
  O43      1.0000 0.82210  0.46410  0.11720  Biso   1.000  O
  O44      1.0000 0.53590  0.35800  0.11720  Biso   1.000  O
  O45      1.0000 0.64200  0.17790  0.11720  Biso   1.000  O
  O46      1.0000 0.17790  0.53590  0.61720  Biso   1.000  O
  O47      1.0000 0.46410  0.64200  0.61720  Biso   1.000  O
  O48      1.0000 0.35800  0.82210  0.61720  Biso   1.000  O
  N1       1.0000 0.09700  0.59950  0.37730  Biso   1.000  N
  N2       1.0000 0.40050  0.49750  0.37730  Biso   1.000  N
  N3       1.0000 0.50250  0.90300  0.37730  Biso   1.000  N
  N4       1.0000 0.90300  0.40050  0.87730  Biso   1.000  N
  N5       1.0000 0.59950  0.50250  0.87730  Biso   1.000  N
  N6       1.0000 0.49750  0.09700  0.87730  Biso   1.000  N
  N7       1.0000 0.90090  0.40870  0.36670  Biso   1.000  N
  N8       1.0000 0.59130  0.49220  0.36670  Biso   1.000  N
  N9       1.0000 0.50780  0.09910  0.36670  Biso   1.000  N
  N10      1.0000 0.09910  0.59130  0.86670  Biso   1.000  N
  N11      1.0000 0.40870  0.50780  0.86670  Biso   1.000  N
  N12      1.0000 0.49220  0.90090  0.86670  Biso   1.000  N
  O49      1.0000 0.23810  0.67750  0.48390  Biso   1.000  O
  O50      1.0000 0.32250  0.56060  0.48390  Biso   1.000  O
  O51      1.0000 0.43940  0.76190  0.48390  Biso   1.000  O
  O52      1.0000 0.76190  0.32250  0.98390  Biso   1.000  O
  O53      1.0000 0.67750  0.43940  0.98390  Biso   1.000  O
  O54      1.0000 0.56060  0.23810  0.98390  Biso   1.000  O
  O55      1.0000 0.01860  0.44890  0.47590  Biso   1.000  O
  O56      1.0000 0.55110  0.56970  0.47590  Biso   1.000  O
  O57      1.0000 0.43030  0.98140  0.47590  Biso   1.000  O
  O58      1.0000 0.98140  0.55110  0.97590  Biso   1.000  O
  O59      1.0000 0.44890  0.43030  0.97590  Biso   1.000  O
  O60      1.0000 0.56970  0.01860  0.97590  Biso   1.000  O
  O61      1.0000 0.29770  0.79790  0.38640  Biso   1.000  O
  O62      1.0000 0.20210  0.49980  0.38640  Biso   1.000  O
  O63      1.0000 0.50020  0.70230  0.38640  Biso   1.000  O
  O64      1.0000 0.70230  0.20210  0.88640  Biso   1.000  O
  O65      1.0000 0.79790  0.50020  0.88640  Biso   1.000  O
  O66      1.0000 0.49980  0.29770  0.88640  Biso   1.000  O
  O67      1.0000 0.76190  0.32480  0.25540  Biso   1.000  O
  O68      1.0000 0.67520  0.43710  0.25540  Biso   1.000  O
  O69      1.0000 0.56290  0.23810  0.25540  Biso   1.000  O
  O70      1.0000 0.23810  0.67520  0.75540  Biso   1.000  O
  O71      1.0000 0.32480  0.56290  0.75540  Biso   1.000  O
  O72      1.0000 0.43710  0.76190  0.75540  Biso   1.000  O
  O73      1.0000 0.97990  0.55370  0.26420  Biso   1.000  O
  O74      1.0000 0.44630  0.42620  0.26420  Biso   1.000  O
  O75      1.0000 0.57380  0.02010  0.26420  Biso   1.000  O
  O76      1.0000 0.02010  0.44630  0.76420  Biso   1.000  O
  O77      1.0000 0.55370  0.57380  0.76420  Biso   1.000  O
  O78      1.0000 0.42620  0.97990  0.76420  Biso   1.000  O
  O79      1.0000 0.71040  0.20140  0.34250  Biso   1.000  O
  O80      1.0000 0.79860  0.50900  0.34250  Biso   1.000  O
  O81      1.0000 0.49100  0.28960  0.34250  Biso   1.000  O
  O82      1.0000 0.28960  0.79860  0.84250  Biso   1.000  O
  O83      1.0000 0.20140  0.49100  0.84250  Biso   1.000  O
  O84      1.0000 0.50900  0.71040  0.84250  Biso   1.000  O
  C1       1.0000 0.23760  0.72490  0.41250  Biso   1.000  C
  C2       1.0000 0.27510  0.51270  0.41250  Biso   1.000  C
  C3       1.0000 0.48730  0.76240  0.41250  Biso   1.000  C
  C4       1.0000 0.76240  0.27510  0.91250  Biso   1.000  C
  C5       1.0000 0.72490  0.48730  0.91250  Biso   1.000  C
  C6       1.0000 0.51270  0.23760  0.91250  Biso   1.000  C
  C7       1.0000 0.15620  0.68730  0.33580  Biso   1.000  C
  C8       1.0000 0.31270  0.46890  0.33580  Biso   1.000  C
  C9       1.0000 0.53110  0.84380  0.33580  Biso   1.000  C
  C10      1.0000 0.84380  0.31270  0.83580  Biso   1.000  C
  C11      1.0000 0.68730  0.53110  0.83580  Biso   1.000  C
  C12      1.0000 0.46890  0.15620  0.83580  Biso   1.000  C
  C13      1.0000 0.97830  0.46060  0.39870  Biso   1.000  C
  C14      1.0000 0.53940  0.51770  0.39870  Biso   1.000  C
  C15      1.0000 0.48230  0.02170  0.39870  Biso   1.000  C
  C16      1.0000 0.02170  0.53940  0.89870  Biso   1.000  C
  C17      1.0000 0.46060  0.48230  0.89870  Biso   1.000  C
  C18      1.0000 0.51770  0.97830  0.89870  Biso   1.000  C
  C19      1.0000 0.76680  0.27990  0.33310  Biso   1.000  C
  C20      1.0000 0.72010  0.48690  0.33310  Biso   1.000  C
  C21      1.0000 0.51310  0.23320  0.33310  Biso   1.000  C
  C22      1.0000 0.23320  0.72010  0.83310  Biso   1.000  C
  C23      1.0000 0.27990  0.51310  0.83310  Biso   1.000  C
  C24      1.0000 0.48690  0.76680  0.83310  Biso   1.000  C
  C25      1.0000 0.84450  0.32260  0.40120  Biso   1.000  C
  C26      1.0000 0.67740  0.52190  0.40120  Biso   1.000  C
  C27      1.0000 0.47810  0.15550  0.40120  Biso   1.000  C
  C28      1.0000 0.15550  0.67740  0.90120  Biso   1.000  C
  C29      1.0000 0.32260  0.47810  0.90120  Biso   1.000  C
  C30      1.0000 0.52190  0.84450  0.90120  Biso   1.000  C
  C31      1.0000 0.02080  0.54580  0.34010  Biso   1.000  C
  C32      1.0000 0.45420  0.47500  0.34010  Biso   1.000  C
  C33      1.0000 0.52500  0.97920  0.34010  Biso   1.000  C
  C34      1.0000 0.97920  0.45420  0.84010  Biso   1.000  C
  C35      1.0000 0.54580  0.52500  0.84010  Biso   1.000  C
  C36      1.0000 0.47500  0.02080  0.84010  Biso   1.000  C
  C37      1.0000 0.80610  0.32630  0.51910  Biso   1.000  C
  C38      1.0000 0.67370  0.47980  0.51910  Biso   1.000  C
  C39      1.0000 0.52020  0.19390  0.51910  Biso   1.000  C
  C40      1.0000 0.19390  0.67370  0.01910  Biso   1.000  C
  C41      1.0000 0.32630  0.52020  0.01910  Biso   1.000  C
  C42      1.0000 0.47980  0.80610  0.01910  Biso   1.000  C
  C43      1.0000 0.11380  0.74570  0.35300  Biso   1.000  C
  C44      1.0000 0.25430  0.36810  0.35300  Biso   1.000  C
  C45      1.0000 0.63190  0.88620  0.35300  Biso   1.000  C
  C46      1.0000 0.88620  0.25430  0.85300  Biso   1.000  C
  C47      1.0000 0.74570  0.63190  0.85300  Biso   1.000  C
  C48      1.0000 0.36810  0.11380  0.85300  Biso   1.000  C
  O85      1.0000 0.77300  0.37270  0.53670  Biso   1.000  O
  O86      1.0000 0.62730  0.40030  0.53670  Biso   1.000  O
  O87      1.0000 0.59970  0.22700  0.53670  Biso   1.000  O
  O88      1.0000 0.22700  0.62730  0.03670  Biso   1.000  O
  O89      1.0000 0.37270  0.59970  0.03670  Biso   1.000  O
  O90      1.0000 0.40030  0.77300  0.03670  Biso   1.000  O
  O91      1.0000 0.09180  0.75250  0.46100  Biso   1.000  O
  O92      1.0000 0.24750  0.33930  0.46100  Biso   1.000  O
  O93      1.0000 0.66070  0.90820  0.46100  Biso   1.000  O
  O94      1.0000 0.90820  0.24750  0.96100  Biso   1.000  O
  O95      1.0000 0.75250  0.66070  0.96100  Biso   1.000  O
  O96      1.0000 0.33930  0.09180  0.96100  Biso   1.000  O
  O97      1.0000 0.85490  0.36690  0.59700  Biso   1.000  O
  O98      1.0000 0.63310  0.48800  0.59700  Biso   1.000  O
  O99      1.0000 0.51200  0.14510  0.59700  Biso   1.000  O
  O100     1.0000 0.14510  0.63310  0.09700  Biso   1.000  O
  O101     1.0000 0.36690  0.51200  0.09700  Biso   1.000  O
  O102     1.0000 0.48800  0.85490  0.09700  Biso   1.000  O
  C49      1.0000 0.99900  0.14600  0.04400  Biso   1.000  C
  C50      1.0000 0.85400  0.85300  0.04400  Biso   1.000  C
  C51      1.0000 0.14700  0.00100  0.04400  Biso   1.000  C
  C52      1.0000 0.00100  0.85400  0.54400  Biso   1.000  C
  C53      1.0000 0.14600  0.14700  0.54400  Biso   1.000  C
  C54      1.0000 0.85300  0.99900  0.54400  Biso   1.000  C
  N13      1.0000 0.89760  0.01100  0.93200  Biso   1.000  N
  N14      1.0000 0.98900  0.88660  0.93200  Biso   1.000  N
  N15      1.0000 0.11340  0.10240  0.93200  Biso   1.000  N
  N16      1.0000 0.10240  0.98900  0.43200  Biso   1.000  N
  N17      1.0000 0.01100  0.11340  0.43200  Biso   1.000  N
  N18      1.0000 0.88660  0.89760  0.43200  Biso   1.000  N
  C55      1.0000 0.90700  0.07700  0.01450  Biso   1.000  C
  C56      1.0000 0.92300  0.83000  0.01450  Biso   1.000  C
  C57      1.0000 0.17000  0.09300  0.01450  Biso   1.000  C
  C58      1.0000 0.09300  0.92300  0.51450  Biso   1.000  C
  C59      1.0000 0.07700  0.17000  0.51450  Biso   1.000  C
  C60      1.0000 0.83000  0.90700  0.51450  Biso   1.000  C
  C61      1.0000 0.89800  0.88630  0.93200  Biso   1.000  C
  C62      1.0000 0.11370  0.01170  0.93200  Biso   1.000  C
  C63      1.0000 0.98830  0.10200  0.93200  Biso   1.000  C
  C64      1.0000 0.10200  0.11370  0.43200  Biso   1.000  C
  C65      1.0000 0.88630  0.98830  0.43200  Biso   1.000  C
  C66      1.0000 0.01170  0.89800  0.43200  Biso   1.000  C
  C67      1.0000 0.88200  0.04400  0.12700  Biso   1.000  C
  C68      1.0000 0.95600  0.83800  0.12700  Biso   1.000  C
  C69      1.0000 0.16200  0.11800  0.12700  Biso   1.000  C
  C70      1.0000 0.11800  0.95600  0.62700  Biso   1.000  C
  C71      1.0000 0.04400  0.16200  0.62700  Biso   1.000  C
  C72      1.0000 0.83800  0.88200  0.62700  Biso   1.000  C
  C73      1.0000 0.94860  0.97410  0.93200  Biso   1.000  C
  C74      1.0000 0.02590  0.97450  0.93200  Biso   1.000  C
  C75      1.0000 0.02550  0.05140  0.93200  Biso   1.000  C
  C76      1.0000 0.05140  0.02590  0.43200  Biso   1.000  C
  C77      1.0000 0.97410  0.02550  0.43200  Biso   1.000  C
  C78      1.0000 0.97450  0.94860  0.43200  Biso   1.000  C
  O103     1.0000 0.89900  0.98700  0.13400  Biso   1.000  O
  O104     1.0000 0.01300  0.91200  0.13400  Biso   1.000  O
  O105     1.0000 0.08800  0.10100  0.13400  Biso   1.000  O
  O106     1.0000 0.10100  0.01300  0.63400  Biso   1.000  O
  O107     1.0000 0.98700  0.08800  0.63400  Biso   1.000  O
  O108     1.0000 0.91200  0.89900  0.63400  Biso   1.000  O
  C79      1.0000 0.83500  0.10400  0.25500  Biso   1.000  C
  C80      1.0000 0.89600  0.73100  0.25500  Biso   1.000  C
  C81      1.0000 0.26900  0.16500  0.25500  Biso   1.000  C
  C82      1.0000 0.16500  0.89600  0.75500  Biso   1.000  C
  C83      1.0000 0.10400  0.26900  0.75500  Biso   1.000  C
  C84      1.0000 0.73100  0.83500  0.75500  Biso   1.000  C
  C85      1.0000 0.83200  0.17000  0.30900  Biso   1.000  C
  C86      1.0000 0.83000  0.66200  0.30900  Biso   1.000  C
  C87      1.0000 0.33800  0.16800  0.30900  Biso   1.000  C
  C88      1.0000 0.16800  0.83000  0.80900  Biso   1.000  C
  C89      1.0000 0.17000  0.33800  0.80900  Biso   1.000  C
  C90      1.0000 0.66200  0.83200  0.80900  Biso   1.000  C
  C91      1.0000 0.87000  0.25200  0.26700  Biso   1.000  C
  C92      1.0000 0.74800  0.61800  0.26700  Biso   1.000  C
  C93      1.0000 0.38200  0.13000  0.26700  Biso   1.000  C
  C94      1.0000 0.13000  0.74800  0.76700  Biso   1.000  C
  C95      1.0000 0.25200  0.38200  0.76700  Biso   1.000  C
  C96      1.0000 0.61800  0.87000  0.76700  Biso   1.000  C
  C97      1.0000 0.90900  0.26800  0.17000  Biso   1.000  C
  C98      1.0000 0.73200  0.64100  0.17000  Biso   1.000  C
  C99      1.0000 0.35900  0.09100  0.17000  Biso   1.000  C
  C100     1.0000 0.09100  0.73200  0.67000  Biso   1.000  C
  C101     1.0000 0.26800  0.35900  0.67000  Biso   1.000  C
  C102     1.0000 0.64100  0.90900  0.67000  Biso   1.000  C
  C103     1.0000 0.91200  0.20300  0.11600  Biso   1.000  C
  C104     1.0000 0.79700  0.70900  0.11600  Biso   1.000  C
  C105     1.0000 0.29100  0.08800  0.11600  Biso   1.000  C
  C106     1.0000 0.08800  0.79700  0.61600  Biso   1.000  C
  C107     1.0000 0.20300  0.29100  0.61600  Biso   1.000  C
  C108     1.0000 0.70900  0.91200  0.61600  Biso   1.000  C
  C109     1.0000 0.87500  0.12100  0.15800  Biso   1.000  C
  C110     1.0000 0.87900  0.75400  0.15800  Biso   1.000  C
  C111     1.0000 0.24600  0.12500  0.15800  Biso   1.000  C
  C112     1.0000 0.12500  0.87900  0.65800  Biso   1.000  C
  C113     1.0000 0.12100  0.24600  0.65800  Biso   1.000  C
  C114     1.0000 0.75400  0.87500  0.65800  Biso   1.000  C
  Cl1      1.0000 0.95300  0.37800  0.12900  Biso   1.000  Cl
  Cl2      1.0000 0.62200  0.57500  0.12900  Biso   1.000  Cl
  Cl3      1.0000 0.42500  0.04700  0.12900  Biso   1.000  Cl
  Cl4      1.0000 0.04700  0.62200  0.62900  Biso   1.000  Cl
  Cl5      1.0000 0.37800  0.42500  0.62900  Biso   1.000  Cl
  Cl6      1.0000 0.57500  0.95300  0.62900  Biso   1.000  Cl
  C115     1.0000 0.00000  0.00000  0.84500  Biso   1.000  C
  C116     1.0000 0.00000  0.00000  0.34500  Biso   1.000  C
  C117     1.0000 0.00000  0.00000  0.01900  Biso   1.000  C
  C118     1.0000 0.00000  0.00000  0.51900  Biso   1.000  C
