data_image0
_cell_length_a       18.5661
_cell_length_b       18.5661
_cell_length_c       23.5771
_cell_angle_alpha    90
_cell_angle_beta     90
_cell_angle_gamma    120

_symmetry_space_group_name_H-M    "P 1"
_symmetry_int_tables_number       1

loop_
  _symmetry_equiv_pos_as_xyz
  'x, y, z'

loop_
  _atom_site_label
  _atom_site_occupancy
  _atom_site_fract_x
  _atom_site_fract_y
  _atom_site_fract_z
  _atom_site_thermal_displace_type
  _atom_site_B_iso_or_equiv
  _atom_site_type_symbol
  Cu1      1.0000 0.52356  0.04712  0.45370  Biso   1.000  Cu
  Cu2      1.0000 0.95288  0.47644  0.45370  Biso   1.000  Cu
  Cu3      1.0000 0.52356  0.47644  0.45370  Biso   1.000  Cu
  Cu4      1.0000 0.47644  0.95288  0.95370  Biso   1.000  Cu
  Cu5      1.0000 0.04712  0.52356  0.95370  Biso   1.000  Cu
  Cu6      1.0000 0.47644  0.52356  0.95370  Biso   1.000  Cu
  Cu7      1.0000 0.04712  0.52356  0.54630  Biso   1.000  Cu
  Cu8      1.0000 0.47644  0.95288  0.54630  Biso   1.000  Cu
  Cu9      1.0000 0.47644  0.52356  0.54630  Biso   1.000  Cu
  Cu10     1.0000 0.95288  0.47644  0.04630  Biso   1.000  Cu
  Cu11     1.0000 0.52356  0.04712  0.04630  Biso   1.000  Cu
  Cu12     1.0000 0.52356  0.47644  0.04630  Biso   1.000  Cu
  O1       1.0000 0.62925  0.11062  0.49362  Biso   1.000  O
  O2       1.0000 0.88938  0.51863  0.49362  Biso   1.000  O
  O3       1.0000 0.48137  0.37075  0.49362  Biso   1.000  O
  O4       1.0000 0.37075  0.88938  0.99362  Biso   1.000  O
  O5       1.0000 0.11062  0.48137  0.99362  Biso   1.000  O
  O6       1.0000 0.51863  0.62925  0.99362  Biso   1.000  O
  O7       1.0000 0.11062  0.62925  0.50638  Biso   1.000  O
  O8       1.0000 0.51863  0.88938  0.50638  Biso   1.000  O
  O9       1.0000 0.37075  0.48137  0.50638  Biso   1.000  O
  O10      1.0000 0.88938  0.37075  0.00638  Biso   1.000  O
  O11      1.0000 0.48137  0.11062  0.00638  Biso   1.000  O
  O12      1.0000 0.62925  0.51863  0.00638  Biso   1.000  O
  O13      1.0000 0.37075  0.88938  0.50638  Biso   1.000  O
  O14      1.0000 0.11062  0.48137  0.50638  Biso   1.000  O
  O15      1.0000 0.51863  0.62925  0.50638  Biso   1.000  O
  O16      1.0000 0.62925  0.11062  0.00638  Biso   1.000  O
  O17      1.0000 0.88938  0.51863  0.00638  Biso   1.000  O
  O18      1.0000 0.48137  0.37075  0.00638  Biso   1.000  O
  O19      1.0000 0.88938  0.37075  0.49362  Biso   1.000  O
  O20      1.0000 0.48137  0.11062  0.49362  Biso   1.000  O
  O21      1.0000 0.62925  0.51863  0.49362  Biso   1.000  O
  O22      1.0000 0.11062  0.62925  0.99362  Biso   1.000  O
  O23      1.0000 0.51863  0.88938  0.99362  Biso   1.000  O
  O24      1.0000 0.37075  0.48137  0.99362  Biso   1.000  O
  O25      1.0000 0.55906  0.11810  0.37710  Biso   1.000  O
  O26      1.0000 0.88190  0.44096  0.37710  Biso   1.000  O
  O27      1.0000 0.55904  0.44094  0.37710  Biso   1.000  O
  O28      1.0000 0.44094  0.88190  0.87710  Biso   1.000  O
  O29      1.0000 0.11810  0.55904  0.87710  Biso   1.000  O
  O30      1.0000 0.44096  0.55906  0.87710  Biso   1.000  O
  O31      1.0000 0.11810  0.55906  0.62290  Biso   1.000  O
  O32      1.0000 0.44096  0.88190  0.62290  Biso   1.000  O
  O33      1.0000 0.44094  0.55904  0.62290  Biso   1.000  O
  O34      1.0000 0.88190  0.44094  0.12290  Biso   1.000  O
  O35      1.0000 0.55904  0.11810  0.12290  Biso   1.000  O
  O36      1.0000 0.55906  0.44096  0.12290  Biso   1.000  O
  H1       1.0000 0.51900  0.10900  0.35350  Biso   1.000  H
  H2       1.0000 0.89100  0.41000  0.35350  Biso   1.000  H
  H3       1.0000 0.59000  0.48100  0.35350  Biso   1.000  H
  H4       1.0000 0.48100  0.89100  0.85350  Biso   1.000  H
  H5       1.0000 0.10900  0.59000  0.85350  Biso   1.000  H
  H6       1.0000 0.41000  0.51900  0.85350  Biso   1.000  H
  H7       1.0000 0.10900  0.51900  0.64650  Biso   1.000  H
  H8       1.0000 0.41000  0.89100  0.64650  Biso   1.000  H
  H9       1.0000 0.48100  0.59000  0.64650  Biso   1.000  H
  H10      1.0000 0.89100  0.48100  0.14650  Biso   1.000  H
  H11      1.0000 0.59000  0.10900  0.14650  Biso   1.000  H
  H12      1.0000 0.51900  0.41000  0.14650  Biso   1.000  H
  H13      1.0000 0.48100  0.89100  0.64650  Biso   1.000  H
  H14      1.0000 0.10900  0.59000  0.64650  Biso   1.000  H
  H15      1.0000 0.41000  0.51900  0.64650  Biso   1.000  H
  H16      1.0000 0.51900  0.10900  0.14650  Biso   1.000  H
  H17      1.0000 0.89100  0.41000  0.14650  Biso   1.000  H
  H18      1.0000 0.59000  0.48100  0.14650  Biso   1.000  H
  H19      1.0000 0.89100  0.48100  0.35350  Biso   1.000  H
  H20      1.0000 0.59000  0.10900  0.35350  Biso   1.000  H
  H21      1.0000 0.51900  0.41000  0.35350  Biso   1.000  H
  H22      1.0000 0.10900  0.51900  0.85350  Biso   1.000  H
  H23      1.0000 0.41000  0.89100  0.85350  Biso   1.000  H
  H24      1.0000 0.48100  0.59000  0.85350  Biso   1.000  H
  O37      1.0000 0.58997  0.02993  0.57190  Biso   1.000  O
  O38      1.0000 0.97007  0.56004  0.57190  Biso   1.000  O
  O39      1.0000 0.43996  0.41003  0.57190  Biso   1.000  O
  O40      1.0000 0.41003  0.97007  0.07190  Biso   1.000  O
  O41      1.0000 0.02993  0.43996  0.07190  Biso   1.000  O
  O42      1.0000 0.56004  0.58997  0.07190  Biso   1.000  O
  O43      1.0000 0.02993  0.58997  0.42810  Biso   1.000  O
  O44      1.0000 0.56004  0.97007  0.42810  Biso   1.000  O
  O45      1.0000 0.41003  0.43996  0.42810  Biso   1.000  O
  O46      1.0000 0.97007  0.41003  0.92810  Biso   1.000  O
  O47      1.0000 0.43996  0.02993  0.92810  Biso   1.000  O
  O48      1.0000 0.58997  0.56004  0.92810  Biso   1.000  O
  O49      1.0000 0.41003  0.97007  0.42810  Biso   1.000  O
  O50      1.0000 0.02993  0.43996  0.42810  Biso   1.000  O
  O51      1.0000 0.56004  0.58997  0.42810  Biso   1.000  O
  O52      1.0000 0.58997  0.02993  0.92810  Biso   1.000  O
  O53      1.0000 0.97007  0.56004  0.92810  Biso   1.000  O
  O54      1.0000 0.43996  0.41003  0.92810  Biso   1.000  O
  O55      1.0000 0.97007  0.41003  0.57190  Biso   1.000  O
  O56      1.0000 0.43996  0.02993  0.57190  Biso   1.000  O
  O57      1.0000 0.58997  0.56004  0.57190  Biso   1.000  O
  O58      1.0000 0.02993  0.58997  0.07190  Biso   1.000  O
  O59      1.0000 0.56004  0.97007  0.07190  Biso   1.000  O
  O60      1.0000 0.41003  0.43996  0.07190  Biso   1.000  O
  C1       1.0000 0.64129  0.09101  0.54302  Biso   1.000  C
  C2       1.0000 0.90899  0.55028  0.54302  Biso   1.000  C
  C3       1.0000 0.44972  0.35871  0.54302  Biso   1.000  C
  C4       1.0000 0.35871  0.90899  0.04302  Biso   1.000  C
  C5       1.0000 0.09101  0.44972  0.04302  Biso   1.000  C
  C6       1.0000 0.55028  0.64129  0.04302  Biso   1.000  C
  C7       1.0000 0.09101  0.64129  0.45698  Biso   1.000  C
  C8       1.0000 0.55028  0.90899  0.45698  Biso   1.000  C
  C9       1.0000 0.35871  0.44972  0.45698  Biso   1.000  C
  C10      1.0000 0.90899  0.35871  0.95698  Biso   1.000  C
  C11      1.0000 0.44972  0.09101  0.95698  Biso   1.000  C
  C12      1.0000 0.64129  0.55028  0.95698  Biso   1.000  C
  C13      1.0000 0.35871  0.90899  0.45698  Biso   1.000  C
  C14      1.0000 0.09101  0.44972  0.45698  Biso   1.000  C
  C15      1.0000 0.55028  0.64129  0.45698  Biso   1.000  C
  C16      1.0000 0.64129  0.09101  0.95698  Biso   1.000  C
  C17      1.0000 0.90899  0.55028  0.95698  Biso   1.000  C
  C18      1.0000 0.44972  0.35871  0.95698  Biso   1.000  C
  C19      1.0000 0.90899  0.35871  0.54302  Biso   1.000  C
  C20      1.0000 0.44972  0.09101  0.54302  Biso   1.000  C
  C21      1.0000 0.64129  0.55028  0.54302  Biso   1.000  C
  C22      1.0000 0.09101  0.64129  0.04302  Biso   1.000  C
  C23      1.0000 0.55028  0.90899  0.04302  Biso   1.000  C
  C24      1.0000 0.35871  0.44972  0.04302  Biso   1.000  C
  C25      1.0000 0.72405  0.14699  0.56923  Biso   1.000  C
  C26      1.0000 0.85301  0.57706  0.56923  Biso   1.000  C
  C27      1.0000 0.42294  0.27595  0.56923  Biso   1.000  C
  C28      1.0000 0.27595  0.85301  0.06923  Biso   1.000  C
  C29      1.0000 0.14699  0.42294  0.06923  Biso   1.000  C
  C30      1.0000 0.57706  0.72405  0.06923  Biso   1.000  C
  C31      1.0000 0.14699  0.72405  0.43077  Biso   1.000  C
  C32      1.0000 0.57706  0.85301  0.43077  Biso   1.000  C
  C33      1.0000 0.27595  0.42294  0.43077  Biso   1.000  C
  C34      1.0000 0.85301  0.27595  0.93077  Biso   1.000  C
  C35      1.0000 0.42294  0.14699  0.93077  Biso   1.000  C
  C36      1.0000 0.72405  0.57706  0.93077  Biso   1.000  C
  C37      1.0000 0.27595  0.85301  0.43077  Biso   1.000  C
  C38      1.0000 0.14699  0.42294  0.43077  Biso   1.000  C
  C39      1.0000 0.57706  0.72405  0.43077  Biso   1.000  C
  C40      1.0000 0.72405  0.14699  0.93077  Biso   1.000  C
  C41      1.0000 0.85301  0.57706  0.93077  Biso   1.000  C
  C42      1.0000 0.42294  0.27595  0.93077  Biso   1.000  C
  C43      1.0000 0.85301  0.27595  0.56923  Biso   1.000  C
  C44      1.0000 0.42294  0.14699  0.56923  Biso   1.000  C
  C45      1.0000 0.72405  0.57706  0.56923  Biso   1.000  C
  C46      1.0000 0.14699  0.72405  0.06923  Biso   1.000  C
  C47      1.0000 0.57706  0.85301  0.06923  Biso   1.000  C
  C48      1.0000 0.27595  0.42294  0.06923  Biso   1.000  C
  C49      1.0000 0.77783  0.22217  0.54327  Biso   1.000  C
  C50      1.0000 0.77783  0.55566  0.54327  Biso   1.000  C
  C51      1.0000 0.44434  0.22217  0.54327  Biso   1.000  C
  C52      1.0000 0.22217  0.77783  0.04327  Biso   1.000  C
  C53      1.0000 0.22217  0.44434  0.04327  Biso   1.000  C
  C54      1.0000 0.55566  0.77783  0.04327  Biso   1.000  C
  C55      1.0000 0.22217  0.77783  0.45673  Biso   1.000  C
  C56      1.0000 0.55566  0.77783  0.45673  Biso   1.000  C
  C57      1.0000 0.22217  0.44434  0.45673  Biso   1.000  C
  C58      1.0000 0.77783  0.22217  0.95673  Biso   1.000  C
  C59      1.0000 0.44434  0.22217  0.95673  Biso   1.000  C
  C60      1.0000 0.77783  0.55566  0.95673  Biso   1.000  C
  H25      1.0000 0.76110  0.23900  0.50970  Biso   1.000  H
  H26      1.0000 0.76100  0.52210  0.50970  Biso   1.000  H
  H27      1.0000 0.47790  0.23890  0.50970  Biso   1.000  H
  H28      1.0000 0.23890  0.76100  0.00970  Biso   1.000  H
  H29      1.0000 0.23900  0.47790  0.00970  Biso   1.000  H
  H30      1.0000 0.52210  0.76110  0.00970  Biso   1.000  H
  H31      1.0000 0.23900  0.76110  0.49030  Biso   1.000  H
  H32      1.0000 0.52210  0.76100  0.49030  Biso   1.000  H
  H33      1.0000 0.23890  0.47790  0.49030  Biso   1.000  H
  H34      1.0000 0.76100  0.23890  0.99030  Biso   1.000  H
  H35      1.0000 0.47790  0.23900  0.99030  Biso   1.000  H
  H36      1.0000 0.76110  0.52210  0.99030  Biso   1.000  H
  C61      1.0000 0.74649  0.12494  0.61948  Biso   1.000  C
  C62      1.0000 0.87506  0.62155  0.61948  Biso   1.000  C
  C63      1.0000 0.37845  0.25351  0.61948  Biso   1.000  C
  C64      1.0000 0.25351  0.87506  0.11948  Biso   1.000  C
  C65      1.0000 0.12494  0.37845  0.11948  Biso   1.000  C
  C66      1.0000 0.62155  0.74649  0.11948  Biso   1.000  C
  C67      1.0000 0.12494  0.74649  0.38052  Biso   1.000  C
  C68      1.0000 0.62155  0.87506  0.38052  Biso   1.000  C
  C69      1.0000 0.25351  0.37845  0.38052  Biso   1.000  C
  C70      1.0000 0.87506  0.25351  0.88052  Biso   1.000  C
  C71      1.0000 0.37845  0.12494  0.88052  Biso   1.000  C
  C72      1.0000 0.74649  0.62155  0.88052  Biso   1.000  C
  C73      1.0000 0.25351  0.87506  0.38052  Biso   1.000  C
  C74      1.0000 0.12494  0.37845  0.38052  Biso   1.000  C
  C75      1.0000 0.62155  0.74649  0.38052  Biso   1.000  C
  C76      1.0000 0.74649  0.12494  0.88052  Biso   1.000  C
  C77      1.0000 0.87506  0.62155  0.88052  Biso   1.000  C
  C78      1.0000 0.37845  0.25351  0.88052  Biso   1.000  C
  C79      1.0000 0.87506  0.25351  0.61948  Biso   1.000  C
  C80      1.0000 0.37845  0.12494  0.61948  Biso   1.000  C
  C81      1.0000 0.74649  0.62155  0.61948  Biso   1.000  C
  C82      1.0000 0.12494  0.74649  0.11948  Biso   1.000  C
  C83      1.0000 0.62155  0.87506  0.11948  Biso   1.000  C
  C84      1.0000 0.25351  0.37845  0.11948  Biso   1.000  C
  H37      1.0000 0.70950  0.07200  0.63700  Biso   1.000  H
  H38      1.0000 0.92800  0.63750  0.63700  Biso   1.000  H
  H39      1.0000 0.36250  0.29050  0.63700  Biso   1.000  H
  H40      1.0000 0.29050  0.92800  0.13700  Biso   1.000  H
  H41      1.0000 0.07200  0.36250  0.13700  Biso   1.000  H
  H42      1.0000 0.63750  0.70950  0.13700  Biso   1.000  H
  H43      1.0000 0.07200  0.70950  0.36300  Biso   1.000  H
  H44      1.0000 0.63750  0.92800  0.36300  Biso   1.000  H
  H45      1.0000 0.29050  0.36250  0.36300  Biso   1.000  H
  H46      1.0000 0.92800  0.29050  0.86300  Biso   1.000  H
  H47      1.0000 0.36250  0.07200  0.86300  Biso   1.000  H
  H48      1.0000 0.70950  0.63750  0.86300  Biso   1.000  H
  H49      1.0000 0.29050  0.92800  0.36300  Biso   1.000  H
  H50      1.0000 0.07200  0.36250  0.36300  Biso   1.000  H
  H51      1.0000 0.63750  0.70950  0.36300  Biso   1.000  H
  H52      1.0000 0.70950  0.07200  0.86300  Biso   1.000  H
  H53      1.0000 0.92800  0.63750  0.86300  Biso   1.000  H
  H54      1.0000 0.36250  0.29050  0.86300  Biso   1.000  H
  H55      1.0000 0.92800  0.29050  0.63700  Biso   1.000  H
  H56      1.0000 0.36250  0.07200  0.63700  Biso   1.000  H
  H57      1.0000 0.70950  0.63750  0.63700  Biso   1.000  H
  H58      1.0000 0.07200  0.70950  0.13700  Biso   1.000  H
  H59      1.0000 0.63750  0.92800  0.13700  Biso   1.000  H
  H60      1.0000 0.29050  0.36250  0.13700  Biso   1.000  H
  C85      1.0000 0.82329  0.17671  0.64469  Biso   1.000  C
  C86      1.0000 0.82329  0.64658  0.64469  Biso   1.000  C
  C87      1.0000 0.35342  0.17671  0.64469  Biso   1.000  C
  C88      1.0000 0.17671  0.82329  0.14469  Biso   1.000  C
  C89      1.0000 0.17671  0.35342  0.14469  Biso   1.000  C
  C90      1.0000 0.64658  0.82329  0.14469  Biso   1.000  C
  C91      1.0000 0.17671  0.82329  0.35531  Biso   1.000  C
  C92      1.0000 0.64658  0.82329  0.35531  Biso   1.000  C
  C93      1.0000 0.17671  0.35342  0.35531  Biso   1.000  C
  C94      1.0000 0.82329  0.17671  0.85531  Biso   1.000  C
  C95      1.0000 0.35342  0.17671  0.85531  Biso   1.000  C
  C96      1.0000 0.82329  0.64658  0.85531  Biso   1.000  C
  C97      1.0000 0.84480  0.15520  0.69630  Biso   1.000  C
  C98      1.0000 0.84480  0.68960  0.69630  Biso   1.000  C
  C99      1.0000 0.31040  0.15520  0.69630  Biso   1.000  C
  C100     1.0000 0.15520  0.84480  0.19630  Biso   1.000  C
  C101     1.0000 0.15520  0.31040  0.19630  Biso   1.000  C
  C102     1.0000 0.68960  0.84480  0.19630  Biso   1.000  C
  C103     1.0000 0.15520  0.84480  0.30370  Biso   1.000  C
  C104     1.0000 0.68960  0.84480  0.30370  Biso   1.000  C
  C105     1.0000 0.15520  0.31040  0.30370  Biso   1.000  C
  C106     1.0000 0.84480  0.15520  0.80370  Biso   1.000  C
  C107     1.0000 0.31040  0.15520  0.80370  Biso   1.000  C
  C108     1.0000 0.84480  0.68960  0.80370  Biso   1.000  C
  C109     1.0000 0.82777  0.17223  0.75000  Biso   1.000  C
  C110     1.0000 0.82777  0.65554  0.75000  Biso   1.000  C
  C111     1.0000 0.34446  0.17223  0.75000  Biso   1.000  C
  C112     1.0000 0.17223  0.82777  0.25000  Biso   1.000  C
  C113     1.0000 0.17223  0.34446  0.25000  Biso   1.000  C
  C114     1.0000 0.65554  0.82777  0.25000  Biso   1.000  C
  C115     1.0000 0.83900  0.13470  0.79950  Biso   1.000  C
  C116     1.0000 0.86530  0.70430  0.79950  Biso   1.000  C
  C117     1.0000 0.29570  0.16100  0.79950  Biso   1.000  C
  C118     1.0000 0.16100  0.86530  0.29950  Biso   1.000  C
  C119     1.0000 0.13470  0.29570  0.29950  Biso   1.000  C
  C120     1.0000 0.70430  0.83900  0.29950  Biso   1.000  C
  C121     1.0000 0.13470  0.83900  0.20050  Biso   1.000  C
  C122     1.0000 0.70430  0.86530  0.20050  Biso   1.000  C
  C123     1.0000 0.16100  0.29570  0.20050  Biso   1.000  C
  C124     1.0000 0.86530  0.16100  0.70050  Biso   1.000  C
  C125     1.0000 0.29570  0.13470  0.70050  Biso   1.000  C
  C126     1.0000 0.83900  0.70430  0.70050  Biso   1.000  C
  C127     1.0000 0.16100  0.86530  0.20050  Biso   1.000  C
  C128     1.0000 0.13470  0.29570  0.20050  Biso   1.000  C
  C129     1.0000 0.70430  0.83900  0.20050  Biso   1.000  C
  C130     1.0000 0.83900  0.13470  0.70050  Biso   1.000  C
  C131     1.0000 0.86530  0.70430  0.70050  Biso   1.000  C
  C132     1.0000 0.29570  0.16100  0.70050  Biso   1.000  C
  C133     1.0000 0.86530  0.16100  0.79950  Biso   1.000  C
  C134     1.0000 0.29570  0.13470  0.79950  Biso   1.000  C
  C135     1.0000 0.83900  0.70430  0.79950  Biso   1.000  C
  C136     1.0000 0.13470  0.83900  0.29950  Biso   1.000  C
  C137     1.0000 0.70430  0.86530  0.29950  Biso   1.000  C
  C138     1.0000 0.16100  0.29570  0.29950  Biso   1.000  C
  C139     1.0000 0.84720  0.07120  0.80130  Biso   1.000  C
  C140     1.0000 0.92880  0.77600  0.80130  Biso   1.000  C
  C141     1.0000 0.22400  0.15280  0.80130  Biso   1.000  C
  C142     1.0000 0.15280  0.92880  0.30130  Biso   1.000  C
  C143     1.0000 0.07120  0.22400  0.30130  Biso   1.000  C
  C144     1.0000 0.77600  0.84720  0.30130  Biso   1.000  C
  C145     1.0000 0.07120  0.84720  0.19870  Biso   1.000  C
  C146     1.0000 0.77600  0.92880  0.19870  Biso   1.000  C
  C147     1.0000 0.15280  0.22400  0.19870  Biso   1.000  C
  C148     1.0000 0.92880  0.15280  0.69870  Biso   1.000  C
  C149     1.0000 0.22400  0.07120  0.69870  Biso   1.000  C
  C150     1.0000 0.84720  0.77600  0.69870  Biso   1.000  C
  C151     1.0000 0.15280  0.92880  0.19870  Biso   1.000  C
  C152     1.0000 0.07120  0.22400  0.19870  Biso   1.000  C
  C153     1.0000 0.77600  0.84720  0.19870  Biso   1.000  C
  C154     1.0000 0.84720  0.07120  0.69870  Biso   1.000  C
  C155     1.0000 0.92880  0.77600  0.69870  Biso   1.000  C
  C156     1.0000 0.22400  0.15280  0.69870  Biso   1.000  C
  C157     1.0000 0.92880  0.15280  0.80130  Biso   1.000  C
  C158     1.0000 0.22400  0.07120  0.80130  Biso   1.000  C
  C159     1.0000 0.84720  0.77600  0.80130  Biso   1.000  C
  C160     1.0000 0.07120  0.84720  0.30130  Biso   1.000  C
  C161     1.0000 0.77600  0.92880  0.30130  Biso   1.000  C
  C162     1.0000 0.15280  0.22400  0.30130  Biso   1.000  C
  C163     1.0000 0.85720  0.04290  0.75000  Biso   1.000  C
  C164     1.0000 0.95710  0.81430  0.75000  Biso   1.000  C
  C165     1.0000 0.18570  0.14280  0.75000  Biso   1.000  C
  C166     1.0000 0.14280  0.95710  0.25000  Biso   1.000  C
  C167     1.0000 0.04290  0.18570  0.25000  Biso   1.000  C
  C168     1.0000 0.81430  0.85720  0.25000  Biso   1.000  C
  C169     1.0000 0.04290  0.85720  0.25000  Biso   1.000  C
  C170     1.0000 0.81430  0.95710  0.25000  Biso   1.000  C
  C171     1.0000 0.14280  0.18570  0.25000  Biso   1.000  C
  C172     1.0000 0.95710  0.14280  0.75000  Biso   1.000  C
  C173     1.0000 0.18570  0.04290  0.75000  Biso   1.000  C
  C174     1.0000 0.85720  0.81430  0.75000  Biso   1.000  C
  C175     1.0000 0.85390  0.08170  0.70040  Biso   1.000  C
  C176     1.0000 0.91830  0.77220  0.70040  Biso   1.000  C
  C177     1.0000 0.22780  0.14610  0.70040  Biso   1.000  C
  C178     1.0000 0.14610  0.91830  0.20040  Biso   1.000  C
  C179     1.0000 0.08170  0.22780  0.20040  Biso   1.000  C
  C180     1.0000 0.77220  0.85390  0.20040  Biso   1.000  C
  C181     1.0000 0.08170  0.85390  0.29960  Biso   1.000  C
  C182     1.0000 0.77220  0.91830  0.29960  Biso   1.000  C
  C183     1.0000 0.14610  0.22780  0.29960  Biso   1.000  C
  C184     1.0000 0.91830  0.14610  0.79960  Biso   1.000  C
  C185     1.0000 0.22780  0.08170  0.79960  Biso   1.000  C
  C186     1.0000 0.85390  0.77220  0.79960  Biso   1.000  C
  C187     1.0000 0.14610  0.91830  0.29960  Biso   1.000  C
  C188     1.0000 0.08170  0.22780  0.29960  Biso   1.000  C
  C189     1.0000 0.77220  0.85390  0.29960  Biso   1.000  C
  C190     1.0000 0.85390  0.08170  0.79960  Biso   1.000  C
  C191     1.0000 0.91830  0.77220  0.79960  Biso   1.000  C
  C192     1.0000 0.22780  0.14610  0.79960  Biso   1.000  C
  C193     1.0000 0.91830  0.14610  0.70040  Biso   1.000  C
  C194     1.0000 0.22780  0.08170  0.70040  Biso   1.000  C
  C195     1.0000 0.85390  0.77220  0.70040  Biso   1.000  C
  C196     1.0000 0.08170  0.85390  0.20040  Biso   1.000  C
  C197     1.0000 0.77220  0.91830  0.20040  Biso   1.000  C
  C198     1.0000 0.14610  0.22780  0.20040  Biso   1.000  C
  N1       1.0000 0.85910  0.04700  0.64650  Biso   1.000  N
  N2       1.0000 0.95300  0.81210  0.64650  Biso   1.000  N
  N3       1.0000 0.18790  0.14090  0.64650  Biso   1.000  N
  N4       1.0000 0.14090  0.95300  0.14650  Biso   1.000  N
  N5       1.0000 0.04700  0.18790  0.14650  Biso   1.000  N
  N6       1.0000 0.81210  0.85910  0.14650  Biso   1.000  N
  N7       1.0000 0.04700  0.85910  0.35350  Biso   1.000  N
  N8       1.0000 0.81210  0.95300  0.35350  Biso   1.000  N
  N9       1.0000 0.14090  0.18790  0.35350  Biso   1.000  N
  N10      1.0000 0.95300  0.14090  0.85350  Biso   1.000  N
  N11      1.0000 0.18790  0.04700  0.85350  Biso   1.000  N
  N12      1.0000 0.85910  0.81210  0.85350  Biso   1.000  N
  N13      1.0000 0.14090  0.95300  0.35350  Biso   1.000  N
  N14      1.0000 0.04700  0.18790  0.35350  Biso   1.000  N
  N15      1.0000 0.81210  0.85910  0.35350  Biso   1.000  N
  N16      1.0000 0.85910  0.04700  0.85350  Biso   1.000  N
  N17      1.0000 0.95300  0.81210  0.85350  Biso   1.000  N
  N18      1.0000 0.18790  0.14090  0.85350  Biso   1.000  N
  N19      1.0000 0.95300  0.14090  0.64650  Biso   1.000  N
  N20      1.0000 0.18790  0.04700  0.64650  Biso   1.000  N
  N21      1.0000 0.85910  0.81210  0.64650  Biso   1.000  N
  N22      1.0000 0.04700  0.85910  0.14650  Biso   1.000  N
  N23      1.0000 0.81210  0.95300  0.14650  Biso   1.000  N
  N24      1.0000 0.14090  0.18790  0.14650  Biso   1.000  N
  C199     1.0000 0.86770  0.97350  0.64520  Biso   1.000  C
  C200     1.0000 0.02650  0.89420  0.64520  Biso   1.000  C
  C201     1.0000 0.10580  0.13230  0.64520  Biso   1.000  C
  C202     1.0000 0.13230  0.02650  0.14520  Biso   1.000  C
  C203     1.0000 0.97350  0.10580  0.14520  Biso   1.000  C
  C204     1.0000 0.89420  0.86770  0.14520  Biso   1.000  C
  C205     1.0000 0.97350  0.86770  0.35480  Biso   1.000  C
  C206     1.0000 0.89420  0.02650  0.35480  Biso   1.000  C
  C207     1.0000 0.13230  0.10580  0.35480  Biso   1.000  C
  C208     1.0000 0.02650  0.13230  0.85480  Biso   1.000  C
  C209     1.0000 0.10580  0.97350  0.85480  Biso   1.000  C
  C210     1.0000 0.86770  0.89420  0.85480  Biso   1.000  C
  C211     1.0000 0.13230  0.02650  0.35480  Biso   1.000  C
  C212     1.0000 0.97350  0.10580  0.35480  Biso   1.000  C
  C213     1.0000 0.89420  0.86770  0.35480  Biso   1.000  C
  C214     1.0000 0.86770  0.97350  0.85480  Biso   1.000  C
  C215     1.0000 0.02650  0.89420  0.85480  Biso   1.000  C
  C216     1.0000 0.10580  0.13230  0.85480  Biso   1.000  C
  C217     1.0000 0.02650  0.13230  0.64520  Biso   1.000  C
  C218     1.0000 0.10580  0.97350  0.64520  Biso   1.000  C
  C219     1.0000 0.86770  0.89420  0.64520  Biso   1.000  C
  C220     1.0000 0.97350  0.86770  0.14520  Biso   1.000  C
  C221     1.0000 0.89420  0.02650  0.14520  Biso   1.000  C
  C222     1.0000 0.13230  0.10580  0.14520  Biso   1.000  C
  C223     1.0000 0.87000  0.93480  0.69760  Biso   1.000  C
  C224     1.0000 0.06520  0.93520  0.69760  Biso   1.000  C
  C225     1.0000 0.06480  0.13000  0.69760  Biso   1.000  C
  C226     1.0000 0.13000  0.06520  0.19760  Biso   1.000  C
  C227     1.0000 0.93480  0.06480  0.19760  Biso   1.000  C
  C228     1.0000 0.93520  0.87000  0.19760  Biso   1.000  C
  C229     1.0000 0.93480  0.87000  0.30240  Biso   1.000  C
  C230     1.0000 0.93520  0.06520  0.30240  Biso   1.000  C
  C231     1.0000 0.13000  0.06480  0.30240  Biso   1.000  C
  C232     1.0000 0.06520  0.13000  0.80240  Biso   1.000  C
  C233     1.0000 0.06480  0.93480  0.80240  Biso   1.000  C
  C234     1.0000 0.87000  0.93520  0.80240  Biso   1.000  C
  C235     1.0000 0.86570  0.96940  0.75000  Biso   1.000  C
  C236     1.0000 0.03060  0.89630  0.75000  Biso   1.000  C
  C237     1.0000 0.10370  0.13430  0.75000  Biso   1.000  C
  C238     1.0000 0.13430  0.03060  0.25000  Biso   1.000  C
  C239     1.0000 0.96940  0.10370  0.25000  Biso   1.000  C
  C240     1.0000 0.89630  0.86570  0.25000  Biso   1.000  C
  C241     1.0000 0.96940  0.86570  0.25000  Biso   1.000  C
  C242     1.0000 0.89630  0.03060  0.25000  Biso   1.000  C
  C243     1.0000 0.13430  0.10370  0.25000  Biso   1.000  C
  C244     1.0000 0.03060  0.13430  0.75000  Biso   1.000  C
  C245     1.0000 0.10370  0.96940  0.75000  Biso   1.000  C
  C246     1.0000 0.86570  0.89630  0.75000  Biso   1.000  C
  H61      1.0000 0.87190  0.95040  0.60850  Biso   1.000  H
  H62      1.0000 0.04960  0.92150  0.60850  Biso   1.000  H
  H63      1.0000 0.07850  0.12810  0.60850  Biso   1.000  H
  H64      1.0000 0.12810  0.04960  0.10850  Biso   1.000  H
  H65      1.0000 0.95040  0.07850  0.10850  Biso   1.000  H
  H66      1.0000 0.92150  0.87190  0.10850  Biso   1.000  H
  H67      1.0000 0.95040  0.87190  0.39150  Biso   1.000  H
  H68      1.0000 0.92150  0.04960  0.39150  Biso   1.000  H
  H69      1.0000 0.12810  0.07850  0.39150  Biso   1.000  H
  H70      1.0000 0.04960  0.12810  0.89150  Biso   1.000  H
  H71      1.0000 0.07850  0.95040  0.89150  Biso   1.000  H
  H72      1.0000 0.87190  0.92150  0.89150  Biso   1.000  H
  H73      1.0000 0.12810  0.04960  0.39150  Biso   1.000  H
  H74      1.0000 0.95040  0.07850  0.39150  Biso   1.000  H
  H75      1.0000 0.92150  0.87190  0.39150  Biso   1.000  H
  H76      1.0000 0.87190  0.95040  0.89150  Biso   1.000  H
  H77      1.0000 0.04960  0.92150  0.89150  Biso   1.000  H
  H78      1.0000 0.07850  0.12810  0.89150  Biso   1.000  H
  H79      1.0000 0.04960  0.12810  0.60850  Biso   1.000  H
  H80      1.0000 0.07850  0.95040  0.60850  Biso   1.000  H
  H81      1.0000 0.87190  0.92150  0.60850  Biso   1.000  H
  H82      1.0000 0.95040  0.87190  0.10850  Biso   1.000  H
  H83      1.0000 0.92150  0.04960  0.10850  Biso   1.000  H
  H84      1.0000 0.12810  0.07850  0.10850  Biso   1.000  H
  H85      1.0000 0.87450  0.88320  0.69660  Biso   1.000  H
  H86      1.0000 0.11680  0.99130  0.69660  Biso   1.000  H
  H87      1.0000 0.00870  0.12550  0.69660  Biso   1.000  H
  H88      1.0000 0.12550  0.11680  0.19660  Biso   1.000  H
  H89      1.0000 0.88320  0.00870  0.19660  Biso   1.000  H
  H90      1.0000 0.99130  0.87450  0.19660  Biso   1.000  H
  H91      1.0000 0.88320  0.87450  0.30340  Biso   1.000  H
  H92      1.0000 0.99130  0.11680  0.30340  Biso   1.000  H
  H93      1.0000 0.12550  0.00870  0.30340  Biso   1.000  H
  H94      1.0000 0.11680  0.12550  0.80340  Biso   1.000  H
  H95      1.0000 0.00870  0.88320  0.80340  Biso   1.000  H
  H96      1.0000 0.87450  0.99130  0.80340  Biso   1.000  H
  H97      1.0000 0.12550  0.11680  0.30340  Biso   1.000  H
  H98      1.0000 0.88320  0.00870  0.30340  Biso   1.000  H
  H99      1.0000 0.99130  0.87450  0.30340  Biso   1.000  H
  H100     1.0000 0.87450  0.88320  0.80340  Biso   1.000  H
  H101     1.0000 0.11680  0.99130  0.80340  Biso   1.000  H
  H102     1.0000 0.00870  0.12550  0.80340  Biso   1.000  H
  H103     1.0000 0.11680  0.12550  0.69660  Biso   1.000  H
  H104     1.0000 0.00870  0.88320  0.69660  Biso   1.000  H
  H105     1.0000 0.87450  0.99130  0.69660  Biso   1.000  H
  H106     1.0000 0.88320  0.87450  0.19660  Biso   1.000  H
  H107     1.0000 0.99130  0.11680  0.19660  Biso   1.000  H
  H108     1.0000 0.12550  0.00870  0.19660  Biso   1.000  H
  H109     1.0000 0.86860  0.94340  0.78740  Biso   1.000  H
  H110     1.0000 0.05660  0.92520  0.78740  Biso   1.000  H
  H111     1.0000 0.07480  0.13140  0.78740  Biso   1.000  H
  H112     1.0000 0.13140  0.05660  0.28740  Biso   1.000  H
  H113     1.0000 0.94340  0.07480  0.28740  Biso   1.000  H
  H114     1.0000 0.92520  0.86860  0.28740  Biso   1.000  H
  H115     1.0000 0.94340  0.86860  0.21260  Biso   1.000  H
  H116     1.0000 0.92520  0.05660  0.21260  Biso   1.000  H
  H117     1.0000 0.13140  0.07480  0.21260  Biso   1.000  H
  H118     1.0000 0.05660  0.13140  0.71260  Biso   1.000  H
  H119     1.0000 0.07480  0.94340  0.71260  Biso   1.000  H
  H120     1.0000 0.86860  0.92520  0.71260  Biso   1.000  H
  H121     1.0000 0.13140  0.05660  0.21260  Biso   1.000  H
  H122     1.0000 0.94340  0.07480  0.21260  Biso   1.000  H
  H123     1.0000 0.92520  0.86860  0.21260  Biso   1.000  H
  H124     1.0000 0.86860  0.94340  0.71260  Biso   1.000  H
  H125     1.0000 0.05660  0.92520  0.71260  Biso   1.000  H
  H126     1.0000 0.07480  0.13140  0.71260  Biso   1.000  H
  H127     1.0000 0.05660  0.13140  0.78740  Biso   1.000  H
  H128     1.0000 0.07480  0.94340  0.78740  Biso   1.000  H
  H129     1.0000 0.86860  0.92520  0.78740  Biso   1.000  H
  H130     1.0000 0.94340  0.86860  0.28740  Biso   1.000  H
  H131     1.0000 0.92520  0.05660  0.28740  Biso   1.000  H
  H132     1.0000 0.13140  0.07480  0.28740  Biso   1.000  H
  H133     1.0000 0.84860  0.04800  0.83750  Biso   1.000  H
  H134     1.0000 0.95200  0.80060  0.83750  Biso   1.000  H
  H135     1.0000 0.19940  0.15140  0.83750  Biso   1.000  H
  H136     1.0000 0.15140  0.95200  0.33750  Biso   1.000  H
  H137     1.0000 0.04800  0.19940  0.33750  Biso   1.000  H
  H138     1.0000 0.80060  0.84860  0.33750  Biso   1.000  H
  H139     1.0000 0.04800  0.84860  0.16250  Biso   1.000  H
  H140     1.0000 0.80060  0.95200  0.16250  Biso   1.000  H
  H141     1.0000 0.15140  0.19940  0.16250  Biso   1.000  H
  H142     1.0000 0.95200  0.15140  0.66250  Biso   1.000  H
  H143     1.0000 0.19940  0.04800  0.66250  Biso   1.000  H
  H144     1.0000 0.84860  0.80060  0.66250  Biso   1.000  H
  H145     1.0000 0.15140  0.95200  0.16250  Biso   1.000  H
  H146     1.0000 0.04800  0.19940  0.16250  Biso   1.000  H
  H147     1.0000 0.80060  0.84860  0.16250  Biso   1.000  H
  H148     1.0000 0.84860  0.04800  0.66250  Biso   1.000  H
  H149     1.0000 0.95200  0.80060  0.66250  Biso   1.000  H
  H150     1.0000 0.19940  0.15140  0.66250  Biso   1.000  H
  H151     1.0000 0.95200  0.15140  0.83750  Biso   1.000  H
  H152     1.0000 0.19940  0.04800  0.83750  Biso   1.000  H
  H153     1.0000 0.84860  0.80060  0.83750  Biso   1.000  H
  H154     1.0000 0.04800  0.84860  0.33750  Biso   1.000  H
  H155     1.0000 0.80060  0.95200  0.33750  Biso   1.000  H
  H156     1.0000 0.15140  0.19940  0.33750  Biso   1.000  H
  H157     1.0000 0.80730  0.21070  0.75000  Biso   1.000  H
  H158     1.0000 0.78930  0.59660  0.75000  Biso   1.000  H
  H159     1.0000 0.40340  0.19270  0.75000  Biso   1.000  H
  H160     1.0000 0.19270  0.78930  0.25000  Biso   1.000  H
  H161     1.0000 0.21070  0.40340  0.25000  Biso   1.000  H
  H162     1.0000 0.59660  0.80730  0.25000  Biso   1.000  H
  H163     1.0000 0.21070  0.80730  0.25000  Biso   1.000  H
  H164     1.0000 0.59660  0.78930  0.25000  Biso   1.000  H
  H165     1.0000 0.19270  0.40340  0.25000  Biso   1.000  H
  H166     1.0000 0.78930  0.19270  0.75000  Biso   1.000  H
  H167     1.0000 0.40340  0.21070  0.75000  Biso   1.000  H
  H168     1.0000 0.80730  0.59660  0.75000  Biso   1.000  H
