data_image0
_cell_length_a       18.6215
_cell_length_b       18.6215
_cell_length_c       23.3558
_cell_angle_alpha    90
_cell_angle_beta     90
_cell_angle_gamma    120

_symmetry_space_group_name_H-M    "P 1"
_symmetry_int_tables_number       1

loop_
  _symmetry_equiv_pos_as_xyz
  'x, y, z'

loop_
  _atom_site_label
  _atom_site_occupancy
  _atom_site_fract_x
  _atom_site_fract_y
  _atom_site_fract_z
  _atom_site_thermal_displace_type
  _atom_site_B_iso_or_equiv
  _atom_site_type_symbol
  Cu1      1.0000 0.47679  0.52321  0.54717  Biso   1.000  Cu
  Cu2      1.0000 0.47679  0.95357  0.54717  Biso   1.000  Cu
  Cu3      1.0000 0.04643  0.52321  0.54717  Biso   1.000  Cu
  Cu4      1.0000 0.52321  0.47679  0.04717  Biso   1.000  Cu
  Cu5      1.0000 0.52321  0.04643  0.04717  Biso   1.000  Cu
  Cu6      1.0000 0.95357  0.47679  0.04717  Biso   1.000  Cu
  Cu7      1.0000 0.52321  0.47679  0.45283  Biso   1.000  Cu
  Cu8      1.0000 0.95357  0.47679  0.45283  Biso   1.000  Cu
  Cu9      1.0000 0.52321  0.04643  0.45283  Biso   1.000  Cu
  Cu10     1.0000 0.47679  0.52321  0.95283  Biso   1.000  Cu
  Cu11     1.0000 0.04643  0.52321  0.95283  Biso   1.000  Cu
  Cu12     1.0000 0.47679  0.95357  0.95283  Biso   1.000  Cu
  O1       1.0000 0.41021  0.44144  0.42813  Biso   1.000  O
  O2       1.0000 0.55856  0.96877  0.42813  Biso   1.000  O
  O3       1.0000 0.03123  0.58979  0.42813  Biso   1.000  O
  O4       1.0000 0.58979  0.55856  0.92813  Biso   1.000  O
  O5       1.0000 0.44144  0.03123  0.92813  Biso   1.000  O
  O6       1.0000 0.96877  0.41021  0.92813  Biso   1.000  O
  O7       1.0000 0.44144  0.41021  0.57187  Biso   1.000  O
  O8       1.0000 0.96877  0.55856  0.57187  Biso   1.000  O
  O9       1.0000 0.58979  0.03123  0.57187  Biso   1.000  O
  O10      1.0000 0.55856  0.58979  0.07187  Biso   1.000  O
  O11      1.0000 0.03123  0.44144  0.07187  Biso   1.000  O
  O12      1.0000 0.41021  0.96877  0.07187  Biso   1.000  O
  O13      1.0000 0.58979  0.55856  0.57187  Biso   1.000  O
  O14      1.0000 0.44144  0.03123  0.57187  Biso   1.000  O
  O15      1.0000 0.96877  0.41021  0.57187  Biso   1.000  O
  O16      1.0000 0.41021  0.44144  0.07187  Biso   1.000  O
  O17      1.0000 0.55856  0.96877  0.07187  Biso   1.000  O
  O18      1.0000 0.03123  0.58979  0.07187  Biso   1.000  O
  O19      1.0000 0.55856  0.58979  0.42813  Biso   1.000  O
  O20      1.0000 0.03123  0.44144  0.42813  Biso   1.000  O
  O21      1.0000 0.41021  0.96877  0.42813  Biso   1.000  O
  O22      1.0000 0.44144  0.41021  0.92813  Biso   1.000  O
  O23      1.0000 0.96877  0.55856  0.92813  Biso   1.000  O
  O24      1.0000 0.58979  0.03123  0.92813  Biso   1.000  O
  O25      1.0000 0.44350  0.55650  0.62559  Biso   1.000  O
  O26      1.0000 0.44350  0.88700  0.62559  Biso   1.000  O
  O27      1.0000 0.11300  0.55650  0.62559  Biso   1.000  O
  O28      1.0000 0.55650  0.44350  0.12559  Biso   1.000  O
  O29      1.0000 0.55650  0.11300  0.12559  Biso   1.000  O
  O30      1.0000 0.88700  0.44350  0.12559  Biso   1.000  O
  O31      1.0000 0.55650  0.44350  0.37441  Biso   1.000  O
  O32      1.0000 0.88700  0.44350  0.37441  Biso   1.000  O
  O33      1.0000 0.55650  0.11300  0.37441  Biso   1.000  O
  O34      1.0000 0.44350  0.55650  0.87441  Biso   1.000  O
  O35      1.0000 0.11300  0.55650  0.87441  Biso   1.000  O
  O36      1.0000 0.44350  0.88700  0.87441  Biso   1.000  O
  H1       1.0000 0.48440  0.57720  0.64860  Biso   1.000  H
  H2       1.0000 0.42280  0.90720  0.64860  Biso   1.000  H
  H3       1.0000 0.09280  0.51560  0.64860  Biso   1.000  H
  H4       1.0000 0.51560  0.42280  0.14860  Biso   1.000  H
  H5       1.0000 0.57720  0.09280  0.14860  Biso   1.000  H
  H6       1.0000 0.90720  0.48440  0.14860  Biso   1.000  H
  H7       1.0000 0.57720  0.48440  0.35140  Biso   1.000  H
  H8       1.0000 0.90720  0.42280  0.35140  Biso   1.000  H
  H9       1.0000 0.51560  0.09280  0.35140  Biso   1.000  H
  H10      1.0000 0.42280  0.51560  0.85140  Biso   1.000  H
  H11      1.0000 0.09280  0.57720  0.85140  Biso   1.000  H
  H12      1.0000 0.48440  0.90720  0.85140  Biso   1.000  H
  H13      1.0000 0.51560  0.42280  0.35140  Biso   1.000  H
  H14      1.0000 0.57720  0.09280  0.35140  Biso   1.000  H
  H15      1.0000 0.90720  0.48440  0.35140  Biso   1.000  H
  H16      1.0000 0.48440  0.57720  0.85140  Biso   1.000  H
  H17      1.0000 0.42280  0.90720  0.85140  Biso   1.000  H
  H18      1.0000 0.09280  0.51560  0.85140  Biso   1.000  H
  H19      1.0000 0.42280  0.51560  0.64860  Biso   1.000  H
  H20      1.0000 0.09280  0.57720  0.64860  Biso   1.000  H
  H21      1.0000 0.48440  0.90720  0.64860  Biso   1.000  H
  H22      1.0000 0.57720  0.48440  0.14860  Biso   1.000  H
  H23      1.0000 0.90720  0.42280  0.14860  Biso   1.000  H
  H24      1.0000 0.51560  0.09280  0.14860  Biso   1.000  H
  O37      1.0000 0.37118  0.48197  0.50768  Biso   1.000  O
  O38      1.0000 0.51803  0.88921  0.50768  Biso   1.000  O
  O39      1.0000 0.11079  0.62882  0.50768  Biso   1.000  O
  O40      1.0000 0.62882  0.51803  0.00768  Biso   1.000  O
  O41      1.0000 0.48197  0.11079  0.00768  Biso   1.000  O
  O42      1.0000 0.88921  0.37118  0.00768  Biso   1.000  O
  O43      1.0000 0.48197  0.37118  0.49232  Biso   1.000  O
  O44      1.0000 0.88921  0.51803  0.49232  Biso   1.000  O
  O45      1.0000 0.62882  0.11079  0.49232  Biso   1.000  O
  O46      1.0000 0.51803  0.62882  0.99232  Biso   1.000  O
  O47      1.0000 0.11079  0.48197  0.99232  Biso   1.000  O
  O48      1.0000 0.37118  0.88921  0.99232  Biso   1.000  O
  O49      1.0000 0.62882  0.51803  0.49232  Biso   1.000  O
  O50      1.0000 0.48197  0.11079  0.49232  Biso   1.000  O
  O51      1.0000 0.88921  0.37118  0.49232  Biso   1.000  O
  O52      1.0000 0.37118  0.48197  0.99232  Biso   1.000  O
  O53      1.0000 0.51803  0.88921  0.99232  Biso   1.000  O
  O54      1.0000 0.11079  0.62882  0.99232  Biso   1.000  O
  O55      1.0000 0.51803  0.62882  0.50768  Biso   1.000  O
  O56      1.0000 0.11079  0.48197  0.50768  Biso   1.000  O
  O57      1.0000 0.37118  0.88921  0.50768  Biso   1.000  O
  O58      1.0000 0.48197  0.37118  0.00768  Biso   1.000  O
  O59      1.0000 0.88921  0.51803  0.00768  Biso   1.000  O
  O60      1.0000 0.62882  0.11079  0.00768  Biso   1.000  O
  C1       1.0000 0.35888  0.45147  0.45814  Biso   1.000  C
  C2       1.0000 0.54853  0.90741  0.45814  Biso   1.000  C
  C3       1.0000 0.09259  0.64112  0.45814  Biso   1.000  C
  C4       1.0000 0.64112  0.54853  0.95814  Biso   1.000  C
  C5       1.0000 0.45147  0.09259  0.95814  Biso   1.000  C
  C6       1.0000 0.90741  0.35888  0.95814  Biso   1.000  C
  C7       1.0000 0.45147  0.35888  0.54186  Biso   1.000  C
  C8       1.0000 0.90741  0.54853  0.54186  Biso   1.000  C
  C9       1.0000 0.64112  0.09259  0.54186  Biso   1.000  C
  C10      1.0000 0.54853  0.64112  0.04186  Biso   1.000  C
  C11      1.0000 0.09259  0.45147  0.04186  Biso   1.000  C
  C12      1.0000 0.35888  0.90741  0.04186  Biso   1.000  C
  C13      1.0000 0.64112  0.54853  0.54186  Biso   1.000  C
  C14      1.0000 0.45147  0.09259  0.54186  Biso   1.000  C
  C15      1.0000 0.90741  0.35888  0.54186  Biso   1.000  C
  C16      1.0000 0.35888  0.45147  0.04186  Biso   1.000  C
  C17      1.0000 0.54853  0.90741  0.04186  Biso   1.000  C
  C18      1.0000 0.09259  0.64112  0.04186  Biso   1.000  C
  C19      1.0000 0.54853  0.64112  0.45814  Biso   1.000  C
  C20      1.0000 0.09259  0.45147  0.45814  Biso   1.000  C
  C21      1.0000 0.35888  0.90741  0.45814  Biso   1.000  C
  C22      1.0000 0.45147  0.35888  0.95814  Biso   1.000  C
  C23      1.0000 0.90741  0.54853  0.95814  Biso   1.000  C
  C24      1.0000 0.64112  0.09259  0.95814  Biso   1.000  C
  C25      1.0000 0.27628  0.42357  0.43184  Biso   1.000  C
  C26      1.0000 0.57643  0.85271  0.43184  Biso   1.000  C
  C27      1.0000 0.14729  0.72372  0.43184  Biso   1.000  C
  C28      1.0000 0.72372  0.57643  0.93184  Biso   1.000  C
  C29      1.0000 0.42357  0.14729  0.93184  Biso   1.000  C
  C30      1.0000 0.85271  0.27628  0.93184  Biso   1.000  C
  C31      1.0000 0.42357  0.27628  0.56816  Biso   1.000  C
  C32      1.0000 0.85271  0.57643  0.56816  Biso   1.000  C
  C33      1.0000 0.72372  0.14729  0.56816  Biso   1.000  C
  C34      1.0000 0.57643  0.72372  0.06816  Biso   1.000  C
  C35      1.0000 0.14729  0.42357  0.06816  Biso   1.000  C
  C36      1.0000 0.27628  0.85271  0.06816  Biso   1.000  C
  C37      1.0000 0.72372  0.57643  0.56816  Biso   1.000  C
  C38      1.0000 0.42357  0.14729  0.56816  Biso   1.000  C
  C39      1.0000 0.85271  0.27628  0.56816  Biso   1.000  C
  C40      1.0000 0.27628  0.42357  0.06816  Biso   1.000  C
  C41      1.0000 0.57643  0.85271  0.06816  Biso   1.000  C
  C42      1.0000 0.14729  0.72372  0.06816  Biso   1.000  C
  C43      1.0000 0.57643  0.72372  0.43184  Biso   1.000  C
  C44      1.0000 0.14729  0.42357  0.43184  Biso   1.000  C
  C45      1.0000 0.27628  0.85271  0.43184  Biso   1.000  C
  C46      1.0000 0.42357  0.27628  0.93184  Biso   1.000  C
  C47      1.0000 0.85271  0.57643  0.93184  Biso   1.000  C
  C48      1.0000 0.72372  0.14729  0.93184  Biso   1.000  C
  C49      1.0000 0.22329  0.44660  0.45799  Biso   1.000  C
  C50      1.0000 0.55340  0.77669  0.45799  Biso   1.000  C
  C51      1.0000 0.22331  0.77671  0.45799  Biso   1.000  C
  C52      1.0000 0.77671  0.55340  0.95799  Biso   1.000  C
  C53      1.0000 0.44660  0.22331  0.95799  Biso   1.000  C
  C54      1.0000 0.77669  0.22329  0.95799  Biso   1.000  C
  C55      1.0000 0.44660  0.22329  0.54201  Biso   1.000  C
  C56      1.0000 0.77669  0.55340  0.54201  Biso   1.000  C
  C57      1.0000 0.77671  0.22331  0.54201  Biso   1.000  C
  C58      1.0000 0.55340  0.77671  0.04201  Biso   1.000  C
  C59      1.0000 0.22331  0.44660  0.04201  Biso   1.000  C
  C60      1.0000 0.22329  0.77669  0.04201  Biso   1.000  C
  H25      1.0000 0.23830  0.47650  0.49200  Biso   1.000  H
  H26      1.0000 0.52350  0.76180  0.49200  Biso   1.000  H
  H27      1.0000 0.23820  0.76170  0.49200  Biso   1.000  H
  H28      1.0000 0.76170  0.52350  0.99200  Biso   1.000  H
  H29      1.0000 0.47650  0.23820  0.99200  Biso   1.000  H
  H30      1.0000 0.76180  0.23830  0.99200  Biso   1.000  H
  H31      1.0000 0.47650  0.23830  0.50800  Biso   1.000  H
  H32      1.0000 0.76180  0.52350  0.50800  Biso   1.000  H
  H33      1.0000 0.76170  0.23820  0.50800  Biso   1.000  H
  H34      1.0000 0.52350  0.76170  0.00800  Biso   1.000  H
  H35      1.0000 0.23820  0.47650  0.00800  Biso   1.000  H
  H36      1.0000 0.23830  0.76180  0.00800  Biso   1.000  H
  C61      1.0000 0.25298  0.37825  0.38144  Biso   1.000  C
  C62      1.0000 0.62175  0.87473  0.38144  Biso   1.000  C
  C63      1.0000 0.12527  0.74702  0.38144  Biso   1.000  C
  C64      1.0000 0.74702  0.62175  0.88144  Biso   1.000  C
  C65      1.0000 0.37825  0.12527  0.88144  Biso   1.000  C
  C66      1.0000 0.87473  0.25298  0.88144  Biso   1.000  C
  C67      1.0000 0.37825  0.25298  0.61856  Biso   1.000  C
  C68      1.0000 0.87473  0.62175  0.61856  Biso   1.000  C
  C69      1.0000 0.74702  0.12527  0.61856  Biso   1.000  C
  C70      1.0000 0.62175  0.74702  0.11856  Biso   1.000  C
  C71      1.0000 0.12527  0.37825  0.11856  Biso   1.000  C
  C72      1.0000 0.25298  0.87473  0.11856  Biso   1.000  C
  C73      1.0000 0.74702  0.62175  0.61856  Biso   1.000  C
  C74      1.0000 0.37825  0.12527  0.61856  Biso   1.000  C
  C75      1.0000 0.87473  0.25298  0.61856  Biso   1.000  C
  C76      1.0000 0.25298  0.37825  0.11856  Biso   1.000  C
  C77      1.0000 0.62175  0.87473  0.11856  Biso   1.000  C
  C78      1.0000 0.12527  0.74702  0.11856  Biso   1.000  C
  C79      1.0000 0.62175  0.74702  0.38144  Biso   1.000  C
  C80      1.0000 0.12527  0.37825  0.38144  Biso   1.000  C
  C81      1.0000 0.25298  0.87473  0.38144  Biso   1.000  C
  C82      1.0000 0.37825  0.25298  0.88144  Biso   1.000  C
  C83      1.0000 0.87473  0.62175  0.88144  Biso   1.000  C
  C84      1.0000 0.74702  0.12527  0.88144  Biso   1.000  C
  H37      1.0000 0.28900  0.36370  0.36440  Biso   1.000  H
  H38      1.0000 0.63630  0.92530  0.36440  Biso   1.000  H
  H39      1.0000 0.07470  0.71100  0.36440  Biso   1.000  H
  H40      1.0000 0.71100  0.63630  0.86440  Biso   1.000  H
  H41      1.0000 0.36370  0.07470  0.86440  Biso   1.000  H
  H42      1.0000 0.92530  0.28900  0.86440  Biso   1.000  H
  H43      1.0000 0.36370  0.28900  0.63560  Biso   1.000  H
  H44      1.0000 0.92530  0.63630  0.63560  Biso   1.000  H
  H45      1.0000 0.71100  0.07470  0.63560  Biso   1.000  H
  H46      1.0000 0.63630  0.71100  0.13560  Biso   1.000  H
  H47      1.0000 0.07470  0.36370  0.13560  Biso   1.000  H
  H48      1.0000 0.28900  0.92530  0.13560  Biso   1.000  H
  H49      1.0000 0.71100  0.63630  0.63560  Biso   1.000  H
  H50      1.0000 0.36370  0.07470  0.63560  Biso   1.000  H
  H51      1.0000 0.92530  0.28900  0.63560  Biso   1.000  H
  H52      1.0000 0.28900  0.36370  0.13560  Biso   1.000  H
  H53      1.0000 0.63630  0.92530  0.13560  Biso   1.000  H
  H54      1.0000 0.07470  0.71100  0.13560  Biso   1.000  H
  H55      1.0000 0.63630  0.71100  0.36440  Biso   1.000  H
  H56      1.0000 0.07470  0.36370  0.36440  Biso   1.000  H
  H57      1.0000 0.28900  0.92530  0.36440  Biso   1.000  H
  H58      1.0000 0.36370  0.28900  0.86440  Biso   1.000  H
  H59      1.0000 0.92530  0.63630  0.86440  Biso   1.000  H
  H60      1.0000 0.71100  0.07470  0.86440  Biso   1.000  H
  C85      1.0000 0.17714  0.35430  0.35602  Biso   1.000  C
  C86      1.0000 0.64570  0.82284  0.35602  Biso   1.000  C
  C87      1.0000 0.17716  0.82286  0.35602  Biso   1.000  C
  C88      1.0000 0.82286  0.64570  0.85602  Biso   1.000  C
  C89      1.0000 0.35430  0.17716  0.85602  Biso   1.000  C
  C90      1.0000 0.82284  0.17714  0.85602  Biso   1.000  C
  C91      1.0000 0.35430  0.17714  0.64398  Biso   1.000  C
  C92      1.0000 0.82284  0.64570  0.64398  Biso   1.000  C
  C93      1.0000 0.82286  0.17716  0.64398  Biso   1.000  C
  C94      1.0000 0.64570  0.82286  0.14398  Biso   1.000  C
  C95      1.0000 0.17716  0.35430  0.14398  Biso   1.000  C
  C96      1.0000 0.17714  0.82284  0.14398  Biso   1.000  C
  C97      1.0000 0.15348  0.30700  0.30187  Biso   1.000  C
  C98      1.0000 0.69300  0.84648  0.30187  Biso   1.000  C
  C99      1.0000 0.15352  0.84652  0.30187  Biso   1.000  C
  C100     1.0000 0.84652  0.69300  0.80187  Biso   1.000  C
  C101     1.0000 0.30700  0.15352  0.80187  Biso   1.000  C
  C102     1.0000 0.84648  0.15348  0.80187  Biso   1.000  C
  C103     1.0000 0.30700  0.15348  0.69813  Biso   1.000  C
  C104     1.0000 0.84648  0.69300  0.69813  Biso   1.000  C
  C105     1.0000 0.84652  0.15352  0.69813  Biso   1.000  C
  C106     1.0000 0.69300  0.84652  0.19813  Biso   1.000  C
  C107     1.0000 0.15352  0.30700  0.19813  Biso   1.000  C
  C108     1.0000 0.15348  0.84648  0.19813  Biso   1.000  C
  C109     1.0000 0.17244  0.34490  0.25000  Biso   1.000  C
  C110     1.0000 0.65510  0.82754  0.25000  Biso   1.000  C
  C111     1.0000 0.17246  0.82756  0.25000  Biso   1.000  C
  C112     1.0000 0.82756  0.65510  0.75000  Biso   1.000  C
  C113     1.0000 0.34490  0.17246  0.75000  Biso   1.000  C
  C114     1.0000 0.82754  0.17244  0.75000  Biso   1.000  C
  H61      1.0000 0.20130  0.40260  0.25000  Biso   1.000  H
  H62      1.0000 0.59740  0.79870  0.25000  Biso   1.000  H
  H63      1.0000 0.20130  0.79870  0.25000  Biso   1.000  H
  H64      1.0000 0.79870  0.59740  0.75000  Biso   1.000  H
  H65      1.0000 0.40260  0.20130  0.75000  Biso   1.000  H
  H66      1.0000 0.79870  0.20130  0.75000  Biso   1.000  H
  C115     1.0000 0.07240  0.22670  0.30220  Biso   1.000  C
  C116     1.0000 0.77330  0.84570  0.30220  Biso   1.000  C
  C117     1.0000 0.15430  0.92760  0.30220  Biso   1.000  C
  C118     1.0000 0.92760  0.77330  0.80220  Biso   1.000  C
  C119     1.0000 0.22670  0.15430  0.80220  Biso   1.000  C
  C120     1.0000 0.84570  0.07240  0.80220  Biso   1.000  C
  C121     1.0000 0.22670  0.07240  0.69780  Biso   1.000  C
  C122     1.0000 0.84570  0.77330  0.69780  Biso   1.000  C
  C123     1.0000 0.92760  0.15430  0.69780  Biso   1.000  C
  C124     1.0000 0.77330  0.92760  0.19780  Biso   1.000  C
  C125     1.0000 0.15430  0.22670  0.19780  Biso   1.000  C
  C126     1.0000 0.07240  0.84570  0.19780  Biso   1.000  C
  C127     1.0000 0.92760  0.77330  0.69780  Biso   1.000  C
  C128     1.0000 0.22670  0.15430  0.69780  Biso   1.000  C
  C129     1.0000 0.84570  0.07240  0.69780  Biso   1.000  C
  C130     1.0000 0.07240  0.22670  0.19780  Biso   1.000  C
  C131     1.0000 0.77330  0.84570  0.19780  Biso   1.000  C
  C132     1.0000 0.15430  0.92760  0.19780  Biso   1.000  C
  C133     1.0000 0.77330  0.92760  0.30220  Biso   1.000  C
  C134     1.0000 0.15430  0.22670  0.30220  Biso   1.000  C
  C135     1.0000 0.07240  0.84570  0.30220  Biso   1.000  C
  C136     1.0000 0.22670  0.07240  0.80220  Biso   1.000  C
  C137     1.0000 0.84570  0.77330  0.80220  Biso   1.000  C
  C138     1.0000 0.92760  0.15430  0.80220  Biso   1.000  C
  C139     1.0000 0.03970  0.19010  0.25000  Biso   1.000  C
  C140     1.0000 0.80990  0.84960  0.25000  Biso   1.000  C
  C141     1.0000 0.15040  0.96030  0.25000  Biso   1.000  C
  C142     1.0000 0.96030  0.80990  0.75000  Biso   1.000  C
  C143     1.0000 0.19010  0.15040  0.75000  Biso   1.000  C
  C144     1.0000 0.84960  0.03970  0.75000  Biso   1.000  C
  C145     1.0000 0.19010  0.03970  0.75000  Biso   1.000  C
  C146     1.0000 0.84960  0.80990  0.75000  Biso   1.000  C
  C147     1.0000 0.96030  0.15040  0.75000  Biso   1.000  C
  C148     1.0000 0.80990  0.96030  0.25000  Biso   1.000  C
  C149     1.0000 0.15040  0.19010  0.25000  Biso   1.000  C
  C150     1.0000 0.03970  0.84960  0.25000  Biso   1.000  C
  N1       1.0000 0.97150  0.10670  0.25000  Biso   1.000  N
  N2       1.0000 0.89330  0.86480  0.25000  Biso   1.000  N
  N3       1.0000 0.13520  0.02850  0.25000  Biso   1.000  N
  N4       1.0000 0.02850  0.89330  0.75000  Biso   1.000  N
  N5       1.0000 0.10670  0.13520  0.75000  Biso   1.000  N
  N6       1.0000 0.86480  0.97150  0.75000  Biso   1.000  N
  N7       1.0000 0.10670  0.97150  0.75000  Biso   1.000  N
  N8       1.0000 0.86480  0.89330  0.75000  Biso   1.000  N
  N9       1.0000 0.02850  0.13520  0.75000  Biso   1.000  N
  N10      1.0000 0.89330  0.02850  0.25000  Biso   1.000  N
  N11      1.0000 0.13520  0.10670  0.25000  Biso   1.000  N
  N12      1.0000 0.97150  0.86480  0.25000  Biso   1.000  N
  C151     1.0000 0.93580  0.06430  0.29530  Biso   1.000  C
  C152     1.0000 0.93570  0.87150  0.29530  Biso   1.000  C
  C153     1.0000 0.12850  0.06420  0.29530  Biso   1.000  C
  C154     1.0000 0.06420  0.93570  0.79530  Biso   1.000  C
  C155     1.0000 0.06430  0.12850  0.79530  Biso   1.000  C
  C156     1.0000 0.87150  0.93580  0.79530  Biso   1.000  C
  C157     1.0000 0.06430  0.93580  0.70470  Biso   1.000  C
  C158     1.0000 0.87150  0.93570  0.70470  Biso   1.000  C
  C159     1.0000 0.06420  0.12850  0.70470  Biso   1.000  C
  C160     1.0000 0.93570  0.06420  0.20470  Biso   1.000  C
  C161     1.0000 0.12850  0.06430  0.20470  Biso   1.000  C
  C162     1.0000 0.93580  0.87150  0.20470  Biso   1.000  C
  C163     1.0000 0.96890  0.09650  0.35010  Biso   1.000  C
  C164     1.0000 0.90350  0.87240  0.35010  Biso   1.000  C
  C165     1.0000 0.12760  0.03110  0.35010  Biso   1.000  C
  C166     1.0000 0.03110  0.90350  0.85010  Biso   1.000  C
  C167     1.0000 0.09650  0.12760  0.85010  Biso   1.000  C
  C168     1.0000 0.87240  0.96890  0.85010  Biso   1.000  C
  C169     1.0000 0.09650  0.96890  0.64990  Biso   1.000  C
  C170     1.0000 0.87240  0.90350  0.64990  Biso   1.000  C
  C171     1.0000 0.03110  0.12760  0.64990  Biso   1.000  C
  C172     1.0000 0.90350  0.03110  0.14990  Biso   1.000  C
  C173     1.0000 0.12760  0.09650  0.14990  Biso   1.000  C
  C174     1.0000 0.96890  0.87240  0.14990  Biso   1.000  C
  C175     1.0000 0.03110  0.90350  0.64990  Biso   1.000  C
  C176     1.0000 0.09650  0.12760  0.64990  Biso   1.000  C
  C177     1.0000 0.87240  0.96890  0.64990  Biso   1.000  C
  C178     1.0000 0.96890  0.09650  0.14990  Biso   1.000  C
  C179     1.0000 0.90350  0.87240  0.14990  Biso   1.000  C
  C180     1.0000 0.12760  0.03110  0.14990  Biso   1.000  C
  C181     1.0000 0.90350  0.03110  0.35010  Biso   1.000  C
  C182     1.0000 0.12760  0.09650  0.35010  Biso   1.000  C
  C183     1.0000 0.96890  0.87240  0.35010  Biso   1.000  C
  C184     1.0000 0.09650  0.96890  0.85010  Biso   1.000  C
  C185     1.0000 0.87240  0.90350  0.85010  Biso   1.000  C
  C186     1.0000 0.03110  0.12760  0.85010  Biso   1.000  C
  C187     1.0000 0.03710  0.17980  0.35350  Biso   1.000  C
  C188     1.0000 0.82020  0.85730  0.35350  Biso   1.000  C
  C189     1.0000 0.14270  0.96290  0.35350  Biso   1.000  C
  C190     1.0000 0.96290  0.82020  0.85350  Biso   1.000  C
  C191     1.0000 0.17980  0.14270  0.85350  Biso   1.000  C
  C192     1.0000 0.85730  0.03710  0.85350  Biso   1.000  C
  C193     1.0000 0.17980  0.03710  0.64650  Biso   1.000  C
  C194     1.0000 0.85730  0.82020  0.64650  Biso   1.000  C
  C195     1.0000 0.96290  0.14270  0.64650  Biso   1.000  C
  C196     1.0000 0.82020  0.96290  0.14650  Biso   1.000  C
  C197     1.0000 0.14270  0.17980  0.14650  Biso   1.000  C
  C198     1.0000 0.03710  0.85730  0.14650  Biso   1.000  C
  C199     1.0000 0.96290  0.82020  0.64650  Biso   1.000  C
  C200     1.0000 0.17980  0.14270  0.64650  Biso   1.000  C
  C201     1.0000 0.85730  0.03710  0.64650  Biso   1.000  C
  C202     1.0000 0.03710  0.17980  0.14650  Biso   1.000  C
  C203     1.0000 0.82020  0.85730  0.14650  Biso   1.000  C
  C204     1.0000 0.14270  0.96290  0.14650  Biso   1.000  C
  C205     1.0000 0.82020  0.96290  0.35350  Biso   1.000  C
  C206     1.0000 0.14270  0.17980  0.35350  Biso   1.000  C
  C207     1.0000 0.03710  0.85730  0.35350  Biso   1.000  C
  C208     1.0000 0.17980  0.03710  0.85350  Biso   1.000  C
  C209     1.0000 0.85730  0.82020  0.85350  Biso   1.000  C
  C210     1.0000 0.96290  0.14270  0.85350  Biso   1.000  C
  H67      1.0000 0.05910  0.20430  0.39030  Biso   1.000  H
  H68      1.0000 0.79570  0.85480  0.39030  Biso   1.000  H
  H69      1.0000 0.14520  0.94090  0.39030  Biso   1.000  H
  H70      1.0000 0.94090  0.79570  0.89030  Biso   1.000  H
  H71      1.0000 0.20430  0.14520  0.89030  Biso   1.000  H
  H72      1.0000 0.85480  0.05910  0.89030  Biso   1.000  H
  H73      1.0000 0.20430  0.05910  0.60970  Biso   1.000  H
  H74      1.0000 0.85480  0.79570  0.60970  Biso   1.000  H
  H75      1.0000 0.94090  0.14520  0.60970  Biso   1.000  H
  H76      1.0000 0.79570  0.94090  0.10970  Biso   1.000  H
  H77      1.0000 0.14520  0.20430  0.10970  Biso   1.000  H
  H78      1.0000 0.05910  0.85480  0.10970  Biso   1.000  H
  H79      1.0000 0.94090  0.79570  0.60970  Biso   1.000  H
  H80      1.0000 0.20430  0.14520  0.60970  Biso   1.000  H
  H81      1.0000 0.85480  0.05910  0.60970  Biso   1.000  H
  H82      1.0000 0.05910  0.20430  0.10970  Biso   1.000  H
  H83      1.0000 0.79570  0.85480  0.10970  Biso   1.000  H
  H84      1.0000 0.14520  0.94090  0.10970  Biso   1.000  H
  H85      1.0000 0.79570  0.94090  0.39030  Biso   1.000  H
  H86      1.0000 0.14520  0.20430  0.39030  Biso   1.000  H
  H87      1.0000 0.05910  0.85480  0.39030  Biso   1.000  H
  H88      1.0000 0.20430  0.05910  0.89030  Biso   1.000  H
  H89      1.0000 0.85480  0.79570  0.89030  Biso   1.000  H
  H90      1.0000 0.94090  0.14520  0.89030  Biso   1.000  H
  H91      1.0000 0.04480  0.20140  0.33740  Biso   1.000  H
  H92      1.0000 0.79860  0.84340  0.33740  Biso   1.000  H
  H93      1.0000 0.15660  0.95520  0.33740  Biso   1.000  H
  H94      1.0000 0.95520  0.79860  0.83740  Biso   1.000  H
  H95      1.0000 0.20140  0.15660  0.83740  Biso   1.000  H
  H96      1.0000 0.84340  0.04480  0.83740  Biso   1.000  H
  H97      1.0000 0.20140  0.04480  0.66260  Biso   1.000  H
  H98      1.0000 0.84340  0.79860  0.66260  Biso   1.000  H
  H99      1.0000 0.95520  0.15660  0.66260  Biso   1.000  H
  H100     1.0000 0.79860  0.95520  0.16260  Biso   1.000  H
  H101     1.0000 0.15660  0.20140  0.16260  Biso   1.000  H
  H102     1.0000 0.04480  0.84340  0.16260  Biso   1.000  H
  H103     1.0000 0.95520  0.79860  0.66260  Biso   1.000  H
  H104     1.0000 0.20140  0.15660  0.66260  Biso   1.000  H
  H105     1.0000 0.84340  0.04480  0.66260  Biso   1.000  H
  H106     1.0000 0.04480  0.20140  0.16260  Biso   1.000  H
  H107     1.0000 0.79860  0.84340  0.16260  Biso   1.000  H
  H108     1.0000 0.15660  0.95520  0.16260  Biso   1.000  H
  H109     1.0000 0.79860  0.95520  0.33740  Biso   1.000  H
  H110     1.0000 0.15660  0.20140  0.33740  Biso   1.000  H
  H111     1.0000 0.04480  0.84340  0.33740  Biso   1.000  H
  H112     1.0000 0.20140  0.04480  0.83740  Biso   1.000  H
  H113     1.0000 0.84340  0.79860  0.83740  Biso   1.000  H
  H114     1.0000 0.95520  0.15660  0.83740  Biso   1.000  H
  H115     1.0000 0.94510  0.05490  0.38520  Biso   1.000  H
  H116     1.0000 0.94510  0.89020  0.38520  Biso   1.000  H
  H117     1.0000 0.10980  0.05490  0.38520  Biso   1.000  H
  H118     1.0000 0.05490  0.94510  0.88520  Biso   1.000  H
  H119     1.0000 0.05490  0.10980  0.88520  Biso   1.000  H
  H120     1.0000 0.89020  0.94510  0.88520  Biso   1.000  H
  H121     1.0000 0.05490  0.94510  0.61480  Biso   1.000  H
  H122     1.0000 0.89020  0.94510  0.61480  Biso   1.000  H
  H123     1.0000 0.05490  0.10980  0.61480  Biso   1.000  H
  H124     1.0000 0.94510  0.05490  0.11480  Biso   1.000  H
  H125     1.0000 0.10980  0.05490  0.11480  Biso   1.000  H
  H126     1.0000 0.94510  0.89020  0.11480  Biso   1.000  H
  H127     1.0000 0.88910  0.00600  0.29200  Biso   1.000  H
  H128     1.0000 0.99400  0.88310  0.29200  Biso   1.000  H
  H129     1.0000 0.11690  0.11090  0.29200  Biso   1.000  H
  H130     1.0000 0.11090  0.99400  0.79200  Biso   1.000  H
  H131     1.0000 0.00600  0.11690  0.79200  Biso   1.000  H
  H132     1.0000 0.88310  0.88910  0.79200  Biso   1.000  H
  H133     1.0000 0.00600  0.88910  0.70800  Biso   1.000  H
  H134     1.0000 0.88310  0.99400  0.70800  Biso   1.000  H
  H135     1.0000 0.11090  0.11690  0.70800  Biso   1.000  H
  H136     1.0000 0.99400  0.11090  0.20800  Biso   1.000  H
  H137     1.0000 0.11690  0.00600  0.20800  Biso   1.000  H
  H138     1.0000 0.88910  0.88310  0.20800  Biso   1.000  H
  H139     1.0000 0.11090  0.99400  0.70800  Biso   1.000  H
  H140     1.0000 0.00600  0.11690  0.70800  Biso   1.000  H
  H141     1.0000 0.88310  0.88910  0.70800  Biso   1.000  H
  H142     1.0000 0.88910  0.00600  0.20800  Biso   1.000  H
  H143     1.0000 0.99400  0.88310  0.20800  Biso   1.000  H
  H144     1.0000 0.11690  0.11090  0.20800  Biso   1.000  H
  H145     1.0000 0.99400  0.11090  0.29200  Biso   1.000  H
  H146     1.0000 0.11690  0.00600  0.29200  Biso   1.000  H
  H147     1.0000 0.88910  0.88310  0.29200  Biso   1.000  H
  H148     1.0000 0.00600  0.88910  0.79200  Biso   1.000  H
  H149     1.0000 0.88310  0.99400  0.79200  Biso   1.000  H
  H150     1.0000 0.11090  0.11690  0.79200  Biso   1.000  H
