data_image0
_cell_length_a       18.5415
_cell_length_b       18.5415
_cell_length_c       23.429
_cell_angle_alpha    90
_cell_angle_beta     90
_cell_angle_gamma    120

_symmetry_space_group_name_H-M    "P 1"
_symmetry_int_tables_number       1

loop_
  _symmetry_equiv_pos_as_xyz
  'x, y, z'

loop_
  _atom_site_label
  _atom_site_occupancy
  _atom_site_fract_x
  _atom_site_fract_y
  _atom_site_fract_z
  _atom_site_thermal_displace_type
  _atom_site_B_iso_or_equiv
  _atom_site_type_symbol
  Cu1      1.0000 0.47632  0.95264  0.04655  Biso   1.000  Cu
  Cu2      1.0000 0.04736  0.52368  0.04655  Biso   1.000  Cu
  Cu3      1.0000 0.47632  0.52368  0.04655  Biso   1.000  Cu
  Cu4      1.0000 0.52368  0.04736  0.54655  Biso   1.000  Cu
  Cu5      1.0000 0.95264  0.47632  0.54655  Biso   1.000  Cu
  Cu6      1.0000 0.52368  0.47632  0.54655  Biso   1.000  Cu
  Cu7      1.0000 0.95264  0.47632  0.95345  Biso   1.000  Cu
  Cu8      1.0000 0.52368  0.04736  0.95345  Biso   1.000  Cu
  Cu9      1.0000 0.52368  0.47632  0.95345  Biso   1.000  Cu
  Cu10     1.0000 0.04736  0.52368  0.45345  Biso   1.000  Cu
  Cu11     1.0000 0.47632  0.95264  0.45345  Biso   1.000  Cu
  Cu12     1.0000 0.47632  0.52368  0.45345  Biso   1.000  Cu
  O1       1.0000 0.43982  0.02991  0.07265  Biso   1.000  O
  O2       1.0000 0.97009  0.40991  0.07265  Biso   1.000  O
  O3       1.0000 0.59009  0.56018  0.07265  Biso   1.000  O
  O4       1.0000 0.56018  0.97009  0.57265  Biso   1.000  O
  O5       1.0000 0.02991  0.59009  0.57265  Biso   1.000  O
  O6       1.0000 0.40991  0.43982  0.57265  Biso   1.000  O
  O7       1.0000 0.02991  0.43982  0.92735  Biso   1.000  O
  O8       1.0000 0.40991  0.97009  0.92735  Biso   1.000  O
  O9       1.0000 0.56018  0.59009  0.92735  Biso   1.000  O
  O10      1.0000 0.97009  0.56018  0.42735  Biso   1.000  O
  O11      1.0000 0.59009  0.02991  0.42735  Biso   1.000  O
  O12      1.0000 0.43982  0.40991  0.42735  Biso   1.000  O
  O13      1.0000 0.56018  0.97009  0.92735  Biso   1.000  O
  O14      1.0000 0.02991  0.59009  0.92735  Biso   1.000  O
  O15      1.0000 0.40991  0.43982  0.92735  Biso   1.000  O
  O16      1.0000 0.43982  0.02991  0.42735  Biso   1.000  O
  O17      1.0000 0.97009  0.40991  0.42735  Biso   1.000  O
  O18      1.0000 0.59009  0.56018  0.42735  Biso   1.000  O
  O19      1.0000 0.97009  0.56018  0.07265  Biso   1.000  O
  O20      1.0000 0.59009  0.02991  0.07265  Biso   1.000  O
  O21      1.0000 0.43982  0.40991  0.07265  Biso   1.000  O
  O22      1.0000 0.02991  0.43982  0.57265  Biso   1.000  O
  O23      1.0000 0.40991  0.97009  0.57265  Biso   1.000  O
  O24      1.0000 0.56018  0.59009  0.57265  Biso   1.000  O
  O25      1.0000 0.48111  0.11062  0.99371  Biso   1.000  O
  O26      1.0000 0.88938  0.37049  0.99371  Biso   1.000  O
  O27      1.0000 0.62951  0.51889  0.99371  Biso   1.000  O
  O28      1.0000 0.51889  0.88938  0.49371  Biso   1.000  O
  O29      1.0000 0.11062  0.62951  0.49371  Biso   1.000  O
  O30      1.0000 0.37049  0.48111  0.49371  Biso   1.000  O
  O31      1.0000 0.11062  0.48111  0.00629  Biso   1.000  O
  O32      1.0000 0.37049  0.88938  0.00629  Biso   1.000  O
  O33      1.0000 0.51889  0.62951  0.00629  Biso   1.000  O
  O34      1.0000 0.88938  0.51889  0.50629  Biso   1.000  O
  O35      1.0000 0.62951  0.11062  0.50629  Biso   1.000  O
  O36      1.0000 0.48111  0.37049  0.50629  Biso   1.000  O
  O37      1.0000 0.51889  0.88938  0.00629  Biso   1.000  O
  O38      1.0000 0.11062  0.62951  0.00629  Biso   1.000  O
  O39      1.0000 0.37049  0.48111  0.00629  Biso   1.000  O
  O40      1.0000 0.48111  0.11062  0.50629  Biso   1.000  O
  O41      1.0000 0.88938  0.37049  0.50629  Biso   1.000  O
  O42      1.0000 0.62951  0.51889  0.50629  Biso   1.000  O
  O43      1.0000 0.88938  0.51889  0.99371  Biso   1.000  O
  O44      1.0000 0.62951  0.11062  0.99371  Biso   1.000  O
  O45      1.0000 0.48111  0.37049  0.99371  Biso   1.000  O
  O46      1.0000 0.11062  0.48111  0.49371  Biso   1.000  O
  O47      1.0000 0.37049  0.88938  0.49371  Biso   1.000  O
  O48      1.0000 0.51889  0.62951  0.49371  Biso   1.000  O
  O49      1.0000 0.44168  0.88340  0.12390  Biso   1.000  O
  O50      1.0000 0.11660  0.55828  0.12390  Biso   1.000  O
  O51      1.0000 0.44172  0.55832  0.12390  Biso   1.000  O
  O52      1.0000 0.55832  0.11660  0.62390  Biso   1.000  O
  O53      1.0000 0.88340  0.44172  0.62390  Biso   1.000  O
  O54      1.0000 0.55828  0.44168  0.62390  Biso   1.000  O
  O55      1.0000 0.88340  0.44168  0.87610  Biso   1.000  O
  O56      1.0000 0.55828  0.11660  0.87610  Biso   1.000  O
  O57      1.0000 0.55832  0.44172  0.87610  Biso   1.000  O
  O58      1.0000 0.11660  0.55832  0.37610  Biso   1.000  O
  O59      1.0000 0.44172  0.88340  0.37610  Biso   1.000  O
  O60      1.0000 0.44168  0.55828  0.37610  Biso   1.000  O
  H1       1.0000 0.39030  0.86350  0.12980  Biso   1.000  H
  H2       1.0000 0.13650  0.52680  0.12980  Biso   1.000  H
  H3       1.0000 0.47320  0.60970  0.12980  Biso   1.000  H
  H4       1.0000 0.60970  0.13650  0.62980  Biso   1.000  H
  H5       1.0000 0.86350  0.47320  0.62980  Biso   1.000  H
  H6       1.0000 0.52680  0.39030  0.62980  Biso   1.000  H
  H7       1.0000 0.86350  0.39030  0.87020  Biso   1.000  H
  H8       1.0000 0.52680  0.13650  0.87020  Biso   1.000  H
  H9       1.0000 0.60970  0.47320  0.87020  Biso   1.000  H
  H10      1.0000 0.13650  0.60970  0.37020  Biso   1.000  H
  H11      1.0000 0.47320  0.86350  0.37020  Biso   1.000  H
  H12      1.0000 0.39030  0.52680  0.37020  Biso   1.000  H
  H13      1.0000 0.60970  0.13650  0.87020  Biso   1.000  H
  H14      1.0000 0.86350  0.47320  0.87020  Biso   1.000  H
  H15      1.0000 0.52680  0.39030  0.87020  Biso   1.000  H
  H16      1.0000 0.39030  0.86350  0.37020  Biso   1.000  H
  H17      1.0000 0.13650  0.52680  0.37020  Biso   1.000  H
  H18      1.0000 0.47320  0.60970  0.37020  Biso   1.000  H
  H19      1.0000 0.13650  0.60970  0.12980  Biso   1.000  H
  H20      1.0000 0.47320  0.86350  0.12980  Biso   1.000  H
  H21      1.0000 0.39030  0.52680  0.12980  Biso   1.000  H
  H22      1.0000 0.86350  0.39030  0.62980  Biso   1.000  H
  H23      1.0000 0.52680  0.13650  0.62980  Biso   1.000  H
  H24      1.0000 0.60970  0.47320  0.62980  Biso   1.000  H
  C1       1.0000 0.44960  0.09071  0.04309  Biso   1.000  C
  C2       1.0000 0.90929  0.35889  0.04309  Biso   1.000  C
  C3       1.0000 0.64111  0.55040  0.04309  Biso   1.000  C
  C4       1.0000 0.55040  0.90929  0.54309  Biso   1.000  C
  C5       1.0000 0.09071  0.64111  0.54309  Biso   1.000  C
  C6       1.0000 0.35889  0.44960  0.54309  Biso   1.000  C
  C7       1.0000 0.09071  0.44960  0.95691  Biso   1.000  C
  C8       1.0000 0.35889  0.90929  0.95691  Biso   1.000  C
  C9       1.0000 0.55040  0.64111  0.95691  Biso   1.000  C
  C10      1.0000 0.90929  0.55040  0.45691  Biso   1.000  C
  C11      1.0000 0.64111  0.09071  0.45691  Biso   1.000  C
  C12      1.0000 0.44960  0.35889  0.45691  Biso   1.000  C
  C13      1.0000 0.55040  0.90929  0.95691  Biso   1.000  C
  C14      1.0000 0.09071  0.64111  0.95691  Biso   1.000  C
  C15      1.0000 0.35889  0.44960  0.95691  Biso   1.000  C
  C16      1.0000 0.44960  0.09071  0.45691  Biso   1.000  C
  C17      1.0000 0.90929  0.35889  0.45691  Biso   1.000  C
  C18      1.0000 0.64111  0.55040  0.45691  Biso   1.000  C
  C19      1.0000 0.90929  0.55040  0.04309  Biso   1.000  C
  C20      1.0000 0.64111  0.09071  0.04309  Biso   1.000  C
  C21      1.0000 0.44960  0.35889  0.04309  Biso   1.000  C
  C22      1.0000 0.09071  0.44960  0.54309  Biso   1.000  C
  C23      1.0000 0.35889  0.90929  0.54309  Biso   1.000  C
  C24      1.0000 0.55040  0.64111  0.54309  Biso   1.000  C
  C25      1.0000 0.42167  0.14604  0.06947  Biso   1.000  C
  C26      1.0000 0.85396  0.27563  0.06947  Biso   1.000  C
  C27      1.0000 0.72437  0.57833  0.06947  Biso   1.000  C
  C28      1.0000 0.57833  0.85396  0.56947  Biso   1.000  C
  C29      1.0000 0.14604  0.72437  0.56947  Biso   1.000  C
  C30      1.0000 0.27563  0.42167  0.56947  Biso   1.000  C
  C31      1.0000 0.14604  0.42167  0.93053  Biso   1.000  C
  C32      1.0000 0.27563  0.85396  0.93053  Biso   1.000  C
  C33      1.0000 0.57833  0.72437  0.93053  Biso   1.000  C
  C34      1.0000 0.85396  0.57833  0.43053  Biso   1.000  C
  C35      1.0000 0.72437  0.14604  0.43053  Biso   1.000  C
  C36      1.0000 0.42167  0.27563  0.43053  Biso   1.000  C
  C37      1.0000 0.57833  0.85396  0.93053  Biso   1.000  C
  C38      1.0000 0.14604  0.72437  0.93053  Biso   1.000  C
  C39      1.0000 0.27563  0.42167  0.93053  Biso   1.000  C
  C40      1.0000 0.42167  0.14604  0.43053  Biso   1.000  C
  C41      1.0000 0.85396  0.27563  0.43053  Biso   1.000  C
  C42      1.0000 0.72437  0.57833  0.43053  Biso   1.000  C
  C43      1.0000 0.85396  0.57833  0.06947  Biso   1.000  C
  C44      1.0000 0.72437  0.14604  0.06947  Biso   1.000  C
  C45      1.0000 0.42167  0.27563  0.06947  Biso   1.000  C
  C46      1.0000 0.14604  0.42167  0.56947  Biso   1.000  C
  C47      1.0000 0.27563  0.85396  0.56947  Biso   1.000  C
  C48      1.0000 0.57833  0.72437  0.56947  Biso   1.000  C
  C49      1.0000 0.44330  0.22166  0.04388  Biso   1.000  C
  C50      1.0000 0.77834  0.22164  0.04388  Biso   1.000  C
  C51      1.0000 0.77836  0.55670  0.04388  Biso   1.000  C
  C52      1.0000 0.55670  0.77834  0.54388  Biso   1.000  C
  C53      1.0000 0.22166  0.77836  0.54388  Biso   1.000  C
  C54      1.0000 0.22164  0.44330  0.54388  Biso   1.000  C
  C55      1.0000 0.22166  0.44330  0.95612  Biso   1.000  C
  C56      1.0000 0.22164  0.77834  0.95612  Biso   1.000  C
  C57      1.0000 0.55670  0.77836  0.95612  Biso   1.000  C
  C58      1.0000 0.77834  0.55670  0.45612  Biso   1.000  C
  C59      1.0000 0.77836  0.22166  0.45612  Biso   1.000  C
  C60      1.0000 0.44330  0.22164  0.45612  Biso   1.000  C
  H25      1.0000 0.47240  0.23620  0.00950  Biso   1.000  H
  H26      1.0000 0.76380  0.23620  0.00950  Biso   1.000  H
  H27      1.0000 0.76380  0.52760  0.00950  Biso   1.000  H
  H28      1.0000 0.52760  0.76380  0.50950  Biso   1.000  H
  H29      1.0000 0.23620  0.76380  0.50950  Biso   1.000  H
  H30      1.0000 0.23620  0.47240  0.50950  Biso   1.000  H
  H31      1.0000 0.23620  0.47240  0.99050  Biso   1.000  H
  H32      1.0000 0.23620  0.76380  0.99050  Biso   1.000  H
  H33      1.0000 0.52760  0.76380  0.99050  Biso   1.000  H
  H34      1.0000 0.76380  0.52760  0.49050  Biso   1.000  H
  H35      1.0000 0.76380  0.23620  0.49050  Biso   1.000  H
  H36      1.0000 0.47240  0.23620  0.49050  Biso   1.000  H
  C61      1.0000 0.37473  0.12298  0.11945  Biso   1.000  C
  C62      1.0000 0.87702  0.25175  0.11945  Biso   1.000  C
  C63      1.0000 0.74825  0.62527  0.11945  Biso   1.000  C
  C64      1.0000 0.62527  0.87702  0.61945  Biso   1.000  C
  C65      1.0000 0.12298  0.74825  0.61945  Biso   1.000  C
  C66      1.0000 0.25175  0.37473  0.61945  Biso   1.000  C
  C67      1.0000 0.12298  0.37473  0.88055  Biso   1.000  C
  C68      1.0000 0.25175  0.87702  0.88055  Biso   1.000  C
  C69      1.0000 0.62527  0.74825  0.88055  Biso   1.000  C
  C70      1.0000 0.87702  0.62527  0.38055  Biso   1.000  C
  C71      1.0000 0.74825  0.12298  0.38055  Biso   1.000  C
  C72      1.0000 0.37473  0.25175  0.38055  Biso   1.000  C
  C73      1.0000 0.62527  0.87702  0.88055  Biso   1.000  C
  C74      1.0000 0.12298  0.74825  0.88055  Biso   1.000  C
  C75      1.0000 0.25175  0.37473  0.88055  Biso   1.000  C
  C76      1.0000 0.37473  0.12298  0.38055  Biso   1.000  C
  C77      1.0000 0.87702  0.25175  0.38055  Biso   1.000  C
  C78      1.0000 0.74825  0.62527  0.38055  Biso   1.000  C
  C79      1.0000 0.87702  0.62527  0.11945  Biso   1.000  C
  C80      1.0000 0.74825  0.12298  0.11945  Biso   1.000  C
  C81      1.0000 0.37473  0.25175  0.11945  Biso   1.000  C
  C82      1.0000 0.12298  0.37473  0.61945  Biso   1.000  C
  C83      1.0000 0.25175  0.87702  0.61945  Biso   1.000  C
  C84      1.0000 0.62527  0.74825  0.61945  Biso   1.000  C
  H37      1.0000 0.35750  0.07120  0.13580  Biso   1.000  H
  H38      1.0000 0.92880  0.28630  0.13580  Biso   1.000  H
  H39      1.0000 0.71370  0.64250  0.13580  Biso   1.000  H
  H40      1.0000 0.64250  0.92880  0.63580  Biso   1.000  H
  H41      1.0000 0.07120  0.71370  0.63580  Biso   1.000  H
  H42      1.0000 0.28630  0.35750  0.63580  Biso   1.000  H
  H43      1.0000 0.07120  0.35750  0.86420  Biso   1.000  H
  H44      1.0000 0.28630  0.92880  0.86420  Biso   1.000  H
  H45      1.0000 0.64250  0.71370  0.86420  Biso   1.000  H
  H46      1.0000 0.92880  0.64250  0.36420  Biso   1.000  H
  H47      1.0000 0.71370  0.07120  0.36420  Biso   1.000  H
  H48      1.0000 0.35750  0.28630  0.36420  Biso   1.000  H
  H49      1.0000 0.64250  0.92880  0.86420  Biso   1.000  H
  H50      1.0000 0.07120  0.71370  0.86420  Biso   1.000  H
  H51      1.0000 0.28630  0.35750  0.86420  Biso   1.000  H
  H52      1.0000 0.35750  0.07120  0.36420  Biso   1.000  H
  H53      1.0000 0.92880  0.28630  0.36420  Biso   1.000  H
  H54      1.0000 0.71370  0.64250  0.36420  Biso   1.000  H
  H55      1.0000 0.92880  0.64250  0.13580  Biso   1.000  H
  H56      1.0000 0.71370  0.07120  0.13580  Biso   1.000  H
  H57      1.0000 0.35750  0.28630  0.13580  Biso   1.000  H
  H58      1.0000 0.07120  0.35750  0.63580  Biso   1.000  H
  H59      1.0000 0.28630  0.92880  0.63580  Biso   1.000  H
  H60      1.0000 0.64250  0.71370  0.63580  Biso   1.000  H
  C85      1.0000 0.35399  0.17699  0.14452  Biso   1.000  C
  C86      1.0000 0.82301  0.17700  0.14452  Biso   1.000  C
  C87      1.0000 0.82300  0.64601  0.14452  Biso   1.000  C
  C88      1.0000 0.64601  0.82301  0.64452  Biso   1.000  C
  C89      1.0000 0.17699  0.82300  0.64452  Biso   1.000  C
  C90      1.0000 0.17700  0.35399  0.64452  Biso   1.000  C
  C91      1.0000 0.17699  0.35399  0.85548  Biso   1.000  C
  C92      1.0000 0.17700  0.82301  0.85548  Biso   1.000  C
  C93      1.0000 0.64601  0.82300  0.85548  Biso   1.000  C
  C94      1.0000 0.82301  0.64601  0.35548  Biso   1.000  C
  C95      1.0000 0.82300  0.17699  0.35548  Biso   1.000  C
  C96      1.0000 0.35399  0.17700  0.35548  Biso   1.000  C
  C97      1.0000 0.30086  0.15043  0.19693  Biso   1.000  C
  C98      1.0000 0.84957  0.15043  0.19693  Biso   1.000  C
  C99      1.0000 0.84957  0.69914  0.19693  Biso   1.000  C
  C100     1.0000 0.69914  0.84957  0.69693  Biso   1.000  C
  C101     1.0000 0.15043  0.84957  0.69693  Biso   1.000  C
  C102     1.0000 0.15043  0.30086  0.69693  Biso   1.000  C
  C103     1.0000 0.15043  0.30086  0.80307  Biso   1.000  C
  C104     1.0000 0.15043  0.84957  0.80307  Biso   1.000  C
  C105     1.0000 0.69914  0.84957  0.80307  Biso   1.000  C
  C106     1.0000 0.84957  0.69914  0.30307  Biso   1.000  C
  C107     1.0000 0.84957  0.15043  0.30307  Biso   1.000  C
  C108     1.0000 0.30086  0.15043  0.30307  Biso   1.000  C
  C109     1.0000 0.34218  0.18064  0.25000  Biso   1.000  C
  C110     1.0000 0.81936  0.16154  0.25000  Biso   1.000  C
  C111     1.0000 0.83846  0.65782  0.25000  Biso   1.000  C
  C112     1.0000 0.65782  0.81936  0.75000  Biso   1.000  C
  C113     1.0000 0.18064  0.83846  0.75000  Biso   1.000  C
  C114     1.0000 0.16154  0.34218  0.75000  Biso   1.000  C
  C115     1.0000 0.18064  0.34218  0.75000  Biso   1.000  C
  C116     1.0000 0.16154  0.81936  0.75000  Biso   1.000  C
  C117     1.0000 0.65782  0.83846  0.75000  Biso   1.000  C
  C118     1.0000 0.81936  0.65782  0.25000  Biso   1.000  C
  C119     1.0000 0.83846  0.18064  0.25000  Biso   1.000  C
  C120     1.0000 0.34218  0.16154  0.25000  Biso   1.000  C
  C121     1.0000 0.30479  0.14629  0.29953  Biso   1.000  C
  C122     1.0000 0.85371  0.15850  0.29953  Biso   1.000  C
  C123     1.0000 0.84150  0.69521  0.29953  Biso   1.000  C
  C124     1.0000 0.69521  0.85371  0.79953  Biso   1.000  C
  C125     1.0000 0.14629  0.84150  0.79953  Biso   1.000  C
  C126     1.0000 0.15850  0.30479  0.79953  Biso   1.000  C
  C127     1.0000 0.14629  0.30479  0.70047  Biso   1.000  C
  C128     1.0000 0.15850  0.85371  0.70047  Biso   1.000  C
  C129     1.0000 0.69521  0.84150  0.70047  Biso   1.000  C
  C130     1.0000 0.85371  0.69521  0.20047  Biso   1.000  C
  C131     1.0000 0.84150  0.14629  0.20047  Biso   1.000  C
  C132     1.0000 0.30479  0.15850  0.20047  Biso   1.000  C
  C133     1.0000 0.69521  0.85371  0.70047  Biso   1.000  C
  C134     1.0000 0.14629  0.84150  0.70047  Biso   1.000  C
  C135     1.0000 0.15850  0.30479  0.70047  Biso   1.000  C
  C136     1.0000 0.30479  0.14629  0.20047  Biso   1.000  C
  C137     1.0000 0.85371  0.15850  0.20047  Biso   1.000  C
  C138     1.0000 0.84150  0.69521  0.20047  Biso   1.000  C
  C139     1.0000 0.85371  0.69521  0.29953  Biso   1.000  C
  C140     1.0000 0.84150  0.14629  0.29953  Biso   1.000  C
  C141     1.0000 0.30479  0.15850  0.29953  Biso   1.000  C
  C142     1.0000 0.14629  0.30479  0.79953  Biso   1.000  C
  C143     1.0000 0.15850  0.85371  0.79953  Biso   1.000  C
  C144     1.0000 0.69521  0.84150  0.79953  Biso   1.000  C
  N1       1.0000 0.22687  0.07823  0.30153  Biso   1.000  N
  N2       1.0000 0.92177  0.14864  0.30153  Biso   1.000  N
  N3       1.0000 0.85136  0.77313  0.30153  Biso   1.000  N
  N4       1.0000 0.77313  0.92177  0.80153  Biso   1.000  N
  N5       1.0000 0.07823  0.85136  0.80153  Biso   1.000  N
  N6       1.0000 0.14864  0.22687  0.80153  Biso   1.000  N
  N7       1.0000 0.07823  0.22687  0.69847  Biso   1.000  N
  N8       1.0000 0.14864  0.92177  0.69847  Biso   1.000  N
  N9       1.0000 0.77313  0.85136  0.69847  Biso   1.000  N
  N10      1.0000 0.92177  0.77313  0.19847  Biso   1.000  N
  N11      1.0000 0.85136  0.07823  0.19847  Biso   1.000  N
  N12      1.0000 0.22687  0.14864  0.19847  Biso   1.000  N
  N13      1.0000 0.77313  0.92177  0.69847  Biso   1.000  N
  N14      1.0000 0.07823  0.85136  0.69847  Biso   1.000  N
  N15      1.0000 0.14864  0.22687  0.69847  Biso   1.000  N
  N16      1.0000 0.22687  0.07823  0.19847  Biso   1.000  N
  N17      1.0000 0.92177  0.14864  0.19847  Biso   1.000  N
  N18      1.0000 0.85136  0.77313  0.19847  Biso   1.000  N
  N19      1.0000 0.92177  0.77313  0.30153  Biso   1.000  N
  N20      1.0000 0.85136  0.07823  0.30153  Biso   1.000  N
  N21      1.0000 0.22687  0.14864  0.30153  Biso   1.000  N
  N22      1.0000 0.07823  0.22687  0.80153  Biso   1.000  N
  N23      1.0000 0.14864  0.92177  0.80153  Biso   1.000  N
  N24      1.0000 0.77313  0.85136  0.80153  Biso   1.000  N
  C145     1.0000 0.18249  0.04114  0.25000  Biso   1.000  C
  C146     1.0000 0.95886  0.14135  0.25000  Biso   1.000  C
  C147     1.0000 0.85865  0.81751  0.25000  Biso   1.000  C
  C148     1.0000 0.81751  0.95886  0.75000  Biso   1.000  C
  C149     1.0000 0.04114  0.85865  0.75000  Biso   1.000  C
  C150     1.0000 0.14135  0.18249  0.75000  Biso   1.000  C
  C151     1.0000 0.04114  0.18249  0.75000  Biso   1.000  C
  C152     1.0000 0.14135  0.95886  0.75000  Biso   1.000  C
  C153     1.0000 0.81751  0.85865  0.75000  Biso   1.000  C
  C154     1.0000 0.95886  0.81751  0.25000  Biso   1.000  C
  C155     1.0000 0.85865  0.04114  0.25000  Biso   1.000  C
  C156     1.0000 0.18249  0.14135  0.25000  Biso   1.000  C
  C157     1.0000 0.10196  0.97083  0.25000  Biso   1.000  C
  C158     1.0000 0.02917  0.13113  0.25000  Biso   1.000  C
  C159     1.0000 0.86887  0.89804  0.25000  Biso   1.000  C
  C160     1.0000 0.89804  0.02917  0.75000  Biso   1.000  C
  C161     1.0000 0.97083  0.86887  0.75000  Biso   1.000  C
  C162     1.0000 0.13113  0.10196  0.75000  Biso   1.000  C
  C163     1.0000 0.97083  0.10196  0.75000  Biso   1.000  C
  C164     1.0000 0.13113  0.02917  0.75000  Biso   1.000  C
  C165     1.0000 0.89804  0.86887  0.75000  Biso   1.000  C
  C166     1.0000 0.02917  0.89804  0.25000  Biso   1.000  C
  C167     1.0000 0.86887  0.97083  0.25000  Biso   1.000  C
  C168     1.0000 0.10196  0.13113  0.25000  Biso   1.000  C
  C169     1.0000 0.06064  0.93936  0.20165  Biso   1.000  C
  C170     1.0000 0.06064  0.12128  0.20165  Biso   1.000  C
  C171     1.0000 0.87872  0.93936  0.20165  Biso   1.000  C
  C172     1.0000 0.93936  0.06064  0.70165  Biso   1.000  C
  C173     1.0000 0.93936  0.87872  0.70165  Biso   1.000  C
  C174     1.0000 0.12128  0.06064  0.70165  Biso   1.000  C
  C175     1.0000 0.93936  0.06064  0.79835  Biso   1.000  C
  C176     1.0000 0.12128  0.06064  0.79835  Biso   1.000  C
  C177     1.0000 0.93936  0.87872  0.79835  Biso   1.000  C
  C178     1.0000 0.06064  0.93936  0.29835  Biso   1.000  C
  C179     1.0000 0.87872  0.93936  0.29835  Biso   1.000  C
  C180     1.0000 0.06064  0.12128  0.29835  Biso   1.000  C
  C181     1.0000 0.09802  0.97075  0.14882  Biso   1.000  C
  C182     1.0000 0.02925  0.12727  0.14882  Biso   1.000  C
  C183     1.0000 0.87273  0.90198  0.14882  Biso   1.000  C
  C184     1.0000 0.90198  0.02925  0.64882  Biso   1.000  C
  C185     1.0000 0.97075  0.87273  0.64882  Biso   1.000  C
  C186     1.0000 0.12727  0.09802  0.64882  Biso   1.000  C
  C187     1.0000 0.97075  0.09802  0.85118  Biso   1.000  C
  C188     1.0000 0.12727  0.02925  0.85118  Biso   1.000  C
  C189     1.0000 0.90198  0.87273  0.85118  Biso   1.000  C
  C190     1.0000 0.02925  0.90198  0.35118  Biso   1.000  C
  C191     1.0000 0.87273  0.97075  0.35118  Biso   1.000  C
  C192     1.0000 0.09802  0.12727  0.35118  Biso   1.000  C
  C193     1.0000 0.90198  0.02925  0.85118  Biso   1.000  C
  C194     1.0000 0.97075  0.87273  0.85118  Biso   1.000  C
  C195     1.0000 0.12727  0.09802  0.85118  Biso   1.000  C
  C196     1.0000 0.09802  0.97075  0.35118  Biso   1.000  C
  C197     1.0000 0.02925  0.12727  0.35118  Biso   1.000  C
  C198     1.0000 0.87273  0.90198  0.35118  Biso   1.000  C
  C199     1.0000 0.02925  0.90198  0.14882  Biso   1.000  C
  C200     1.0000 0.87273  0.97075  0.14882  Biso   1.000  C
  C201     1.0000 0.09802  0.12727  0.14882  Biso   1.000  C
  C202     1.0000 0.97075  0.09802  0.64882  Biso   1.000  C
  C203     1.0000 0.12727  0.02925  0.64882  Biso   1.000  C
  C204     1.0000 0.90198  0.87273  0.64882  Biso   1.000  C
  C205     1.0000 0.17593  0.03881  0.14682  Biso   1.000  C
  C206     1.0000 0.96119  0.13712  0.14682  Biso   1.000  C
  C207     1.0000 0.86288  0.82407  0.14682  Biso   1.000  C
  C208     1.0000 0.82407  0.96119  0.64682  Biso   1.000  C
  C209     1.0000 0.03881  0.86288  0.64682  Biso   1.000  C
  C210     1.0000 0.13712  0.17593  0.64682  Biso   1.000  C
  C211     1.0000 0.03881  0.17593  0.85318  Biso   1.000  C
  C212     1.0000 0.13712  0.96119  0.85318  Biso   1.000  C
  C213     1.0000 0.82407  0.86288  0.85318  Biso   1.000  C
  C214     1.0000 0.96119  0.82407  0.35318  Biso   1.000  C
  C215     1.0000 0.86288  0.03881  0.35318  Biso   1.000  C
  C216     1.0000 0.17593  0.13712  0.35318  Biso   1.000  C
  C217     1.0000 0.82407  0.96119  0.85318  Biso   1.000  C
  C218     1.0000 0.03881  0.86288  0.85318  Biso   1.000  C
  C219     1.0000 0.13712  0.17593  0.85318  Biso   1.000  C
  C220     1.0000 0.17593  0.03881  0.35318  Biso   1.000  C
  C221     1.0000 0.96119  0.13712  0.35318  Biso   1.000  C
  C222     1.0000 0.86288  0.82407  0.35318  Biso   1.000  C
  C223     1.0000 0.96119  0.82407  0.14682  Biso   1.000  C
  C224     1.0000 0.86288  0.03881  0.14682  Biso   1.000  C
  C225     1.0000 0.17593  0.13712  0.14682  Biso   1.000  C
  C226     1.0000 0.03881  0.17593  0.64682  Biso   1.000  C
  C227     1.0000 0.13712  0.96119  0.64682  Biso   1.000  C
  C228     1.0000 0.82407  0.86288  0.64682  Biso   1.000  C
  N25      1.0000 0.22032  0.07589  0.19743  Biso   1.000  N
  N26      1.0000 0.92411  0.14443  0.19743  Biso   1.000  N
  N27      1.0000 0.85557  0.77968  0.19743  Biso   1.000  N
  N28      1.0000 0.77968  0.92411  0.69743  Biso   1.000  N
  N29      1.0000 0.07589  0.85557  0.69743  Biso   1.000  N
  N30      1.0000 0.14443  0.22032  0.69743  Biso   1.000  N
  N31      1.0000 0.07589  0.22032  0.80257  Biso   1.000  N
  N32      1.0000 0.14443  0.92411  0.80257  Biso   1.000  N
  N33      1.0000 0.77968  0.85557  0.80257  Biso   1.000  N
  N34      1.0000 0.92411  0.77968  0.30257  Biso   1.000  N
  N35      1.0000 0.85557  0.07589  0.30257  Biso   1.000  N
  N36      1.0000 0.22032  0.14443  0.30257  Biso   1.000  N
  N37      1.0000 0.77968  0.92411  0.80257  Biso   1.000  N
  N38      1.0000 0.07589  0.85557  0.80257  Biso   1.000  N
  N39      1.0000 0.14443  0.22032  0.80257  Biso   1.000  N
  N40      1.0000 0.22032  0.07589  0.30257  Biso   1.000  N
  N41      1.0000 0.92411  0.14443  0.30257  Biso   1.000  N
  N42      1.0000 0.85557  0.77968  0.30257  Biso   1.000  N
  N43      1.0000 0.92411  0.77968  0.19743  Biso   1.000  N
  N44      1.0000 0.85557  0.07589  0.19743  Biso   1.000  N
  N45      1.0000 0.22032  0.14443  0.19743  Biso   1.000  N
  N46      1.0000 0.07589  0.22032  0.69743  Biso   1.000  N
  N47      1.0000 0.14443  0.92411  0.69743  Biso   1.000  N
  N48      1.0000 0.77968  0.85557  0.69743  Biso   1.000  N
  H61      1.0000 0.06930  0.94510  0.11430  Biso   1.000  H
  H62      1.0000 0.05490  0.12420  0.11430  Biso   1.000  H
  H63      1.0000 0.87580  0.93070  0.11430  Biso   1.000  H
  H64      1.0000 0.93070  0.05490  0.61430  Biso   1.000  H
  H65      1.0000 0.94510  0.87580  0.61430  Biso   1.000  H
  H66      1.0000 0.12420  0.06930  0.61430  Biso   1.000  H
  H67      1.0000 0.94510  0.06930  0.88570  Biso   1.000  H
  H68      1.0000 0.12420  0.05490  0.88570  Biso   1.000  H
  H69      1.0000 0.93070  0.87580  0.88570  Biso   1.000  H
  H70      1.0000 0.05490  0.93070  0.38570  Biso   1.000  H
  H71      1.0000 0.87580  0.94510  0.38570  Biso   1.000  H
  H72      1.0000 0.06930  0.12420  0.38570  Biso   1.000  H
  H73      1.0000 0.93070  0.05490  0.88570  Biso   1.000  H
  H74      1.0000 0.94510  0.87580  0.88570  Biso   1.000  H
  H75      1.0000 0.12420  0.06930  0.88570  Biso   1.000  H
  H76      1.0000 0.06930  0.94510  0.38570  Biso   1.000  H
  H77      1.0000 0.05490  0.12420  0.38570  Biso   1.000  H
  H78      1.0000 0.87580  0.93070  0.38570  Biso   1.000  H
  H79      1.0000 0.05490  0.93070  0.11430  Biso   1.000  H
  H80      1.0000 0.87580  0.94510  0.11430  Biso   1.000  H
  H81      1.0000 0.06930  0.12420  0.11430  Biso   1.000  H
  H82      1.0000 0.94510  0.06930  0.61430  Biso   1.000  H
  H83      1.0000 0.12420  0.05490  0.61430  Biso   1.000  H
  H84      1.0000 0.93070  0.87580  0.61430  Biso   1.000  H
  H85      1.0000 0.00480  0.89380  0.20310  Biso   1.000  H
  H86      1.0000 0.10620  0.11100  0.20310  Biso   1.000  H
  H87      1.0000 0.88900  0.99520  0.20310  Biso   1.000  H
  H88      1.0000 0.99520  0.10620  0.70310  Biso   1.000  H
  H89      1.0000 0.89380  0.88900  0.70310  Biso   1.000  H
  H90      1.0000 0.11100  0.00480  0.70310  Biso   1.000  H
  H91      1.0000 0.89380  0.00480  0.79690  Biso   1.000  H
  H92      1.0000 0.11100  0.10620  0.79690  Biso   1.000  H
  H93      1.0000 0.99520  0.88900  0.79690  Biso   1.000  H
  H94      1.0000 0.10620  0.99520  0.29690  Biso   1.000  H
  H95      1.0000 0.88900  0.89380  0.29690  Biso   1.000  H
  H96      1.0000 0.00480  0.11100  0.29690  Biso   1.000  H
  H97      1.0000 0.99520  0.10620  0.79690  Biso   1.000  H
  H98      1.0000 0.89380  0.88900  0.79690  Biso   1.000  H
  H99      1.0000 0.11100  0.00480  0.79690  Biso   1.000  H
  H100     1.0000 0.00480  0.89380  0.29690  Biso   1.000  H
  H101     1.0000 0.10620  0.11100  0.29690  Biso   1.000  H
  H102     1.0000 0.88900  0.99520  0.29690  Biso   1.000  H
  H103     1.0000 0.10620  0.99520  0.20310  Biso   1.000  H
  H104     1.0000 0.88900  0.89380  0.20310  Biso   1.000  H
  H105     1.0000 0.00480  0.11100  0.20310  Biso   1.000  H
  H106     1.0000 0.89380  0.00480  0.70310  Biso   1.000  H
  H107     1.0000 0.11100  0.10620  0.70310  Biso   1.000  H
  H108     1.0000 0.99520  0.88900  0.70310  Biso   1.000  H
  H109     1.0000 0.07670  0.94570  0.28510  Biso   1.000  H
  H110     1.0000 0.05430  0.13100  0.28510  Biso   1.000  H
  H111     1.0000 0.86900  0.92330  0.28510  Biso   1.000  H
  H112     1.0000 0.92330  0.05430  0.78510  Biso   1.000  H
  H113     1.0000 0.94570  0.86900  0.78510  Biso   1.000  H
  H114     1.0000 0.13100  0.07670  0.78510  Biso   1.000  H
  H115     1.0000 0.94570  0.07670  0.71490  Biso   1.000  H
  H116     1.0000 0.13100  0.05430  0.71490  Biso   1.000  H
  H117     1.0000 0.92330  0.86900  0.71490  Biso   1.000  H
  H118     1.0000 0.05430  0.92330  0.21490  Biso   1.000  H
  H119     1.0000 0.86900  0.94570  0.21490  Biso   1.000  H
  H120     1.0000 0.07670  0.13100  0.21490  Biso   1.000  H
  H121     1.0000 0.92330  0.05430  0.71490  Biso   1.000  H
  H122     1.0000 0.94570  0.86900  0.71490  Biso   1.000  H
  H123     1.0000 0.13100  0.07670  0.71490  Biso   1.000  H
  H124     1.0000 0.07670  0.94570  0.21490  Biso   1.000  H
  H125     1.0000 0.05430  0.13100  0.21490  Biso   1.000  H
  H126     1.0000 0.86900  0.92330  0.21490  Biso   1.000  H
  H127     1.0000 0.05430  0.92330  0.28510  Biso   1.000  H
  H128     1.0000 0.86900  0.94570  0.28510  Biso   1.000  H
  H129     1.0000 0.07670  0.13100  0.28510  Biso   1.000  H
  H130     1.0000 0.94570  0.07670  0.78510  Biso   1.000  H
  H131     1.0000 0.13100  0.05430  0.78510  Biso   1.000  H
  H132     1.0000 0.92330  0.86900  0.78510  Biso   1.000  H
  H133     1.0000 0.39780  0.22620  0.25000  Biso   1.000  H
  H134     1.0000 0.77380  0.17160  0.25000  Biso   1.000  H
  H135     1.0000 0.82840  0.60220  0.25000  Biso   1.000  H
  H136     1.0000 0.60220  0.77380  0.75000  Biso   1.000  H
  H137     1.0000 0.22620  0.82840  0.75000  Biso   1.000  H
  H138     1.0000 0.17160  0.39780  0.75000  Biso   1.000  H
  H139     1.0000 0.22620  0.39780  0.75000  Biso   1.000  H
  H140     1.0000 0.17160  0.77380  0.75000  Biso   1.000  H
  H141     1.0000 0.60220  0.82840  0.75000  Biso   1.000  H
  H142     1.0000 0.77380  0.60220  0.25000  Biso   1.000  H
  H143     1.0000 0.82840  0.22620  0.25000  Biso   1.000  H
  H144     1.0000 0.39780  0.17160  0.25000  Biso   1.000  H
  H145     1.0000 0.20070  0.06160  0.11070  Biso   1.000  H
  H146     1.0000 0.93840  0.13910  0.11070  Biso   1.000  H
  H147     1.0000 0.86090  0.79930  0.11070  Biso   1.000  H
  H148     1.0000 0.79930  0.93840  0.61070  Biso   1.000  H
  H149     1.0000 0.06160  0.86090  0.61070  Biso   1.000  H
  H150     1.0000 0.13910  0.20070  0.61070  Biso   1.000  H
  H151     1.0000 0.06160  0.20070  0.88930  Biso   1.000  H
  H152     1.0000 0.13910  0.93840  0.88930  Biso   1.000  H
  H153     1.0000 0.79930  0.86090  0.88930  Biso   1.000  H
  H154     1.0000 0.93840  0.79930  0.38930  Biso   1.000  H
  H155     1.0000 0.86090  0.06160  0.38930  Biso   1.000  H
  H156     1.0000 0.20070  0.13910  0.38930  Biso   1.000  H
  H157     1.0000 0.79930  0.93840  0.88930  Biso   1.000  H
  H158     1.0000 0.06160  0.86090  0.88930  Biso   1.000  H
  H159     1.0000 0.13910  0.20070  0.88930  Biso   1.000  H
  H160     1.0000 0.20070  0.06160  0.38930  Biso   1.000  H
  H161     1.0000 0.93840  0.13910  0.38930  Biso   1.000  H
  H162     1.0000 0.86090  0.79930  0.38930  Biso   1.000  H
  H163     1.0000 0.93840  0.79930  0.11070  Biso   1.000  H
  H164     1.0000 0.86090  0.06160  0.11070  Biso   1.000  H
  H165     1.0000 0.20070  0.13910  0.11070  Biso   1.000  H
  H166     1.0000 0.06160  0.20070  0.61070  Biso   1.000  H
  H167     1.0000 0.13910  0.93840  0.61070  Biso   1.000  H
  H168     1.0000 0.79930  0.86090  0.61070  Biso   1.000  H
