data_image0
_cell_length_a       12.818
_cell_length_b       10.705
_cell_length_c       20.701
_cell_angle_alpha    90
_cell_angle_beta     95.86
_cell_angle_gamma    90

_symmetry_space_group_name_H-M    "P 1"
_symmetry_int_tables_number       1

loop_
  _symmetry_equiv_pos_as_xyz
  'x, y, z'

loop_
  _atom_site_label
  _atom_site_occupancy
  _atom_site_fract_x
  _atom_site_fract_y
  _atom_site_fract_z
  _atom_site_thermal_displace_type
  _atom_site_B_iso_or_equiv
  _atom_site_type_symbol
  Cu1      1.0000 0.79515  0.52439  0.13482  Biso   1.000  Cu
  Cu2      1.0000 0.20485  0.02439  0.36518  Biso   1.000  Cu
  Cu3      1.0000 0.20485  0.47561  0.86518  Biso   1.000  Cu
  Cu4      1.0000 0.79515  0.97561  0.63482  Biso   1.000  Cu
  C1       1.0000 0.96560  0.22870  0.22709  Biso   1.000  C
  C2       1.0000 0.03440  0.72870  0.27291  Biso   1.000  C
  C3       1.0000 0.03440  0.77130  0.77291  Biso   1.000  C
  C4       1.0000 0.96560  0.27130  0.72709  Biso   1.000  C
  H1       1.0000 0.98700  0.18860  0.18970  Biso   1.000  H
  H2       1.0000 0.01300  0.68860  0.31030  Biso   1.000  H
  H3       1.0000 0.01300  0.81140  0.81030  Biso   1.000  H
  H4       1.0000 0.98700  0.31140  0.68970  Biso   1.000  H
  C5       1.0000 0.90390  0.34280  0.33726  Biso   1.000  C
  C6       1.0000 0.09610  0.84280  0.16274  Biso   1.000  C
  C7       1.0000 0.09610  0.65720  0.66274  Biso   1.000  C
  C8       1.0000 0.90390  0.15720  0.83726  Biso   1.000  C
  H5       1.0000 0.88230  0.38120  0.37510  Biso   1.000  H
  H6       1.0000 0.11770  0.88120  0.12490  Biso   1.000  H
  H7       1.0000 0.11770  0.61880  0.62490  Biso   1.000  H
  H8       1.0000 0.88230  0.11880  0.87510  Biso   1.000  H
  C9       1.0000 0.90230  0.33750  0.21923  Biso   1.000  C
  C10      1.0000 0.09770  0.83750  0.28077  Biso   1.000  C
  C11      1.0000 0.09770  0.66250  0.78077  Biso   1.000  C
  C12      1.0000 0.90230  0.16250  0.71923  Biso   1.000  C
  C13      1.0000 0.99660  0.18010  0.28739  Biso   1.000  C
  C14      1.0000 0.00340  0.68010  0.21261  Biso   1.000  C
  C15      1.0000 0.00340  0.81990  0.71261  Biso   1.000  C
  C16      1.0000 0.99660  0.31990  0.78739  Biso   1.000  C
  H9       1.0000 0.03780  0.10610  0.29090  Biso   1.000  H
  H10      1.0000 0.96220  0.60610  0.20910  Biso   1.000  H
  H11      1.0000 0.96220  0.89390  0.70910  Biso   1.000  H
  H12      1.0000 0.03780  0.39390  0.79090  Biso   1.000  H
  C17      1.0000 0.86970  0.39380  0.27647  Biso   1.000  C
  C18      1.0000 0.13030  0.89380  0.22353  Biso   1.000  C
  C19      1.0000 0.13030  0.60620  0.72353  Biso   1.000  C
  C20      1.0000 0.86970  0.10620  0.77647  Biso   1.000  C
  C21      1.0000 0.96820  0.23840  0.34420  Biso   1.000  C
  C22      1.0000 0.03180  0.73840  0.15580  Biso   1.000  C
  C23      1.0000 0.03180  0.76160  0.65580  Biso   1.000  C
  C24      1.0000 0.96820  0.26160  0.84420  Biso   1.000  C
  C25      1.0000 0.80050  0.50010  0.27492  Biso   1.000  C
  C26      1.0000 0.19950  0.00010  0.22508  Biso   1.000  C
  C27      1.0000 0.19950  0.49990  0.72508  Biso   1.000  C
  C28      1.0000 0.80050  0.99990  0.77492  Biso   1.000  C
  H13      1.0000 0.78070  0.52990  0.31510  Biso   1.000  H
  H14      1.0000 0.21930  0.02990  0.18490  Biso   1.000  H
  H15      1.0000 0.21930  0.47010  0.68490  Biso   1.000  H
  H16      1.0000 0.78070  0.97010  0.81510  Biso   1.000  H
  C29      1.0000 0.00360  0.19440  0.40906  Biso   1.000  C
  C30      1.0000 0.99640  0.69440  0.09094  Biso   1.000  C
  C31      1.0000 0.99640  0.80560  0.59094  Biso   1.000  C
  C32      1.0000 0.00360  0.30560  0.90906  Biso   1.000  C
  H17      1.0000 0.96950  0.22500  0.44450  Biso   1.000  H
  H18      1.0000 0.03050  0.72500  0.05550  Biso   1.000  H
  H19      1.0000 0.03050  0.77500  0.55550  Biso   1.000  H
  H20      1.0000 0.96950  0.27500  0.94450  Biso   1.000  H
  C33      1.0000 0.66670  0.70220  0.17070  Biso   1.000  C
  C34      1.0000 0.33330  0.20220  0.32930  Biso   1.000  C
  C35      1.0000 0.33330  0.29780  0.82930  Biso   1.000  C
  C36      1.0000 0.66670  0.79780  0.67070  Biso   1.000  C
  C37      1.0000 0.18480  0.00770  0.50038  Biso   1.000  C
  C38      1.0000 0.81520  0.50770  0.99962  Biso   1.000  C
  C39      1.0000 0.81520  0.99230  0.49962  Biso   1.000  C
  C40      1.0000 0.18480  0.49230  0.00038  Biso   1.000  C
  C41      1.0000 0.58820  0.80460  0.16570  Biso   1.000  C
  C42      1.0000 0.41180  0.30460  0.33430  Biso   1.000  C
  C43      1.0000 0.41180  0.19540  0.83430  Biso   1.000  C
  C44      1.0000 0.58820  0.69540  0.66570  Biso   1.000  C
  C45      1.0000 0.21450  0.97740  0.56996  Biso   1.000  C
  C46      1.0000 0.78550  0.47740  0.93004  Biso   1.000  C
  C47      1.0000 0.78550  0.02260  0.43004  Biso   1.000  C
  C48      1.0000 0.21450  0.52260  0.06996  Biso   1.000  C
  C49      1.0000 0.55070  0.85040  0.10462  Biso   1.000  C
  C50      1.0000 0.44930  0.35040  0.39538  Biso   1.000  C
  C51      1.0000 0.44930  0.14960  0.89538  Biso   1.000  C
  C52      1.0000 0.55070  0.64960  0.60462  Biso   1.000  C
  H21      1.0000 0.57400  0.81470  0.06660  Biso   1.000  H
  H22      1.0000 0.42600  0.31470  0.43340  Biso   1.000  H
  H23      1.0000 0.42600  0.18530  0.93340  Biso   1.000  H
  H24      1.0000 0.57400  0.68530  0.56660  Biso   1.000  H
  C53      1.0000 0.27120  0.86780  0.58422  Biso   1.000  C
  C54      1.0000 0.72880  0.36780  0.91578  Biso   1.000  C
  C55      1.0000 0.72880  0.13220  0.41578  Biso   1.000  C
  C56      1.0000 0.27120  0.63220  0.08422  Biso   1.000  C
  H25      1.0000 0.28760  0.81410  0.55020  Biso   1.000  H
  H26      1.0000 0.71240  0.31410  0.94980  Biso   1.000  H
  H27      1.0000 0.71240  0.18590  0.44980  Biso   1.000  H
  H28      1.0000 0.28760  0.68590  0.05020  Biso   1.000  H
  C57      1.0000 0.47910  0.94830  0.09940  Biso   1.000  C
  C58      1.0000 0.52090  0.44830  0.40060  Biso   1.000  C
  C59      1.0000 0.52090  0.05170  0.90060  Biso   1.000  C
  C60      1.0000 0.47910  0.55170  0.59940  Biso   1.000  C
  H29      1.0000 0.45360  0.97920  0.05780  Biso   1.000  H
  H30      1.0000 0.54640  0.47920  0.44220  Biso   1.000  H
  H31      1.0000 0.54640  0.02080  0.94220  Biso   1.000  H
  H32      1.0000 0.45360  0.52080  0.55780  Biso   1.000  H
  C61      1.0000 0.30350  0.83750  0.64853  Biso   1.000  C
  C62      1.0000 0.69650  0.33750  0.85147  Biso   1.000  C
  C63      1.0000 0.69650  0.16250  0.35147  Biso   1.000  C
  C64      1.0000 0.30350  0.66250  0.14853  Biso   1.000  C
  H33      1.0000 0.34210  0.76300  0.65850  Biso   1.000  H
  H34      1.0000 0.65790  0.26300  0.84150  Biso   1.000  H
  H35      1.0000 0.65790  0.23700  0.34150  Biso   1.000  H
  H36      1.0000 0.34210  0.73700  0.15850  Biso   1.000  H
  C65      1.0000 0.44480  0.00110  0.15470  Biso   1.000  C
  C66      1.0000 0.55520  0.50110  0.34530  Biso   1.000  C
  C67      1.0000 0.55520  0.99890  0.84530  Biso   1.000  C
  C68      1.0000 0.44480  0.49890  0.65470  Biso   1.000  C
  H37      1.0000 0.39660  0.06880  0.15100  Biso   1.000  H
  H38      1.0000 0.60340  0.56880  0.34900  Biso   1.000  H
  H39      1.0000 0.60340  0.93120  0.84900  Biso   1.000  H
  H40      1.0000 0.39660  0.43120  0.65100  Biso   1.000  H
  C69      1.0000 0.27940  0.91650  0.69826  Biso   1.000  C
  C70      1.0000 0.72060  0.41650  0.80174  Biso   1.000  C
  C71      1.0000 0.72060  0.08350  0.30174  Biso   1.000  C
  C72      1.0000 0.27940  0.58350  0.19826  Biso   1.000  C
  H41      1.0000 0.30110  0.89530  0.74220  Biso   1.000  H
  H42      1.0000 0.69890  0.39530  0.75780  Biso   1.000  H
  H43      1.0000 0.69890  0.10470  0.25780  Biso   1.000  H
  H44      1.0000 0.30110  0.60470  0.24220  Biso   1.000  H
  C73      1.0000 0.48120  0.95450  0.21546  Biso   1.000  C
  C74      1.0000 0.51880  0.45450  0.28454  Biso   1.000  C
  C75      1.0000 0.51880  0.04550  0.78454  Biso   1.000  C
  C76      1.0000 0.48120  0.54550  0.71546  Biso   1.000  C
  H45      1.0000 0.45710  0.98990  0.25330  Biso   1.000  H
  H46      1.0000 0.54290  0.48990  0.24670  Biso   1.000  H
  H47      1.0000 0.54290  0.01010  0.74670  Biso   1.000  H
  H48      1.0000 0.45710  0.51010  0.75330  Biso   1.000  H
  C77      1.0000 0.22400  0.02560  0.68413  Biso   1.000  C
  C78      1.0000 0.77600  0.52560  0.81587  Biso   1.000  C
  C79      1.0000 0.77600  0.97440  0.31587  Biso   1.000  C
  C80      1.0000 0.22400  0.47440  0.18413  Biso   1.000  C
  H49      1.0000 0.20830  0.07950  0.71830  Biso   1.000  H
  H50      1.0000 0.79170  0.57950  0.78170  Biso   1.000  H
  H51      1.0000 0.79170  0.92050  0.28170  Biso   1.000  H
  H52      1.0000 0.20830  0.42050  0.21830  Biso   1.000  H
  C81      1.0000 0.55230  0.85680  0.22133  Biso   1.000  C
  C82      1.0000 0.44770  0.35680  0.27867  Biso   1.000  C
  C83      1.0000 0.44770  0.14320  0.77867  Biso   1.000  C
  C84      1.0000 0.55230  0.64320  0.72133  Biso   1.000  C
  H53      1.0000 0.57670  0.82520  0.26310  Biso   1.000  H
  H54      1.0000 0.42330  0.32520  0.23690  Biso   1.000  H
  H55      1.0000 0.42330  0.17480  0.73690  Biso   1.000  H
  H56      1.0000 0.57670  0.67480  0.76310  Biso   1.000  H
  C85      1.0000 0.19100  0.05690  0.61990  Biso   1.000  C
  C86      1.0000 0.80900  0.55690  0.88010  Biso   1.000  C
  C87      1.0000 0.80900  0.94310  0.38010  Biso   1.000  C
  C88      1.0000 0.19100  0.44310  0.11990  Biso   1.000  C
  H57      1.0000 0.15280  0.13180  0.61020  Biso   1.000  H
  H58      1.0000 0.84720  0.63180  0.88980  Biso   1.000  H
  H59      1.0000 0.84720  0.86820  0.38980  Biso   1.000  H
  H60      1.0000 0.15280  0.36820  0.11020  Biso   1.000  H
  O1       1.0000 0.87579  0.37880  0.15998  Biso   1.000  O
  O2       1.0000 0.12421  0.87880  0.34002  Biso   1.000  O
  O3       1.0000 0.12421  0.62120  0.84002  Biso   1.000  O
  O4       1.0000 0.87579  0.12120  0.65998  Biso   1.000  O
  O5       1.0000 0.70134  0.66410  0.11719  Biso   1.000  O
  O6       1.0000 0.29866  0.16410  0.38281  Biso   1.000  O
  O7       1.0000 0.29866  0.33590  0.88281  Biso   1.000  O
  O8       1.0000 0.70134  0.83590  0.61719  Biso   1.000  O
  O9       1.0000 0.23496  0.96058  0.45760  Biso   1.000  O
  O10      1.0000 0.76504  0.46058  0.04240  Biso   1.000  O
  O11      1.0000 0.76504  0.03942  0.54240  Biso   1.000  O
  O12      1.0000 0.23496  0.53942  0.95760  Biso   1.000  O
  N1       1.0000 0.76375  0.55750  0.22262  Biso   1.000  N
  N2       1.0000 0.23625  0.05750  0.27738  Biso   1.000  N
  N3       1.0000 0.23625  0.44250  0.77738  Biso   1.000  N
  N4       1.0000 0.76375  0.94250  0.72262  Biso   1.000  N
  N5       1.0000 0.07907  0.11560  0.42062  Biso   1.000  N
  N6       1.0000 0.92093  0.61560  0.07938  Biso   1.000  N
  N7       1.0000 0.92093  0.88440  0.57938  Biso   1.000  N
  N8       1.0000 0.07907  0.38440  0.92062  Biso   1.000  N
  N9       1.0000 0.69470  0.65600  0.22860  Biso   1.000  N
  N10      1.0000 0.30530  0.15600  0.27140  Biso   1.000  N
  N11      1.0000 0.30530  0.34400  0.77140  Biso   1.000  N
  N12      1.0000 0.69470  0.84400  0.72860  Biso   1.000  N
  N13      1.0000 0.10427  0.08540  0.48567  Biso   1.000  N
  N14      1.0000 0.89573  0.58540  0.01433  Biso   1.000  N
  N15      1.0000 0.89573  0.91460  0.51433  Biso   1.000  N
  N16      1.0000 0.10427  0.41460  0.98567  Biso   1.000  N
  H61      1.0000 0.06900  0.11700  0.51310  Biso   1.000  H
  H62      1.0000 0.93100  0.61700  0.98690  Biso   1.000  H
  H63      1.0000 0.93100  0.88300  0.48690  Biso   1.000  H
  H64      1.0000 0.06900  0.38300  0.01310  Biso   1.000  H
  S1       1.0000 0.52308  0.30464  0.05436  Biso   1.000  S
  S2       1.0000 0.47692  0.80464  0.44564  Biso   1.000  S
  S3       1.0000 0.47692  0.69536  0.94564  Biso   1.000  S
  S4       1.0000 0.52308  0.19536  0.55436  Biso   1.000  S
  O13      1.0000 0.42290  0.23440  0.05530  Biso   1.000  O
  O14      1.0000 0.57710  0.73440  0.44470  Biso   1.000  O
  O15      1.0000 0.57710  0.76560  0.94470  Biso   1.000  O
  O16      1.0000 0.42290  0.26560  0.55530  Biso   1.000  O
  C89      1.0000 0.60970  0.25320  0.12310  Biso   1.000  C
  C90      1.0000 0.39030  0.75320  0.37690  Biso   1.000  C
  C91      1.0000 0.39030  0.74680  0.87690  Biso   1.000  C
  C92      1.0000 0.60970  0.24680  0.62310  Biso   1.000  C
  H65      1.0000 0.57490  0.26300  0.16280  Biso   1.000  H
  H66      1.0000 0.42510  0.76300  0.33720  Biso   1.000  H
  H67      1.0000 0.42510  0.73700  0.83720  Biso   1.000  H
  H68      1.0000 0.57490  0.23700  0.66280  Biso   1.000  H
  H69      1.0000 0.67390  0.30350  0.12650  Biso   1.000  H
  H70      1.0000 0.32610  0.80350  0.37350  Biso   1.000  H
  H71      1.0000 0.32610  0.69650  0.87350  Biso   1.000  H
  H72      1.0000 0.67390  0.19650  0.62650  Biso   1.000  H
  H73      1.0000 0.62750  0.16510  0.11760  Biso   1.000  H
  H74      1.0000 0.37250  0.66510  0.38240  Biso   1.000  H
  H75      1.0000 0.37250  0.83490  0.88240  Biso   1.000  H
  H76      1.0000 0.62750  0.33490  0.61760  Biso   1.000  H
  C93      1.0000 0.49950  0.45830  0.08430  Biso   1.000  C
  C94      1.0000 0.50050  0.95830  0.41570  Biso   1.000  C
  C95      1.0000 0.50050  0.54170  0.91570  Biso   1.000  C
  C96      1.0000 0.49950  0.04170  0.58430  Biso   1.000  C
  H77      1.0000 0.45100  0.50290  0.05270  Biso   1.000  H
  H78      1.0000 0.54900  0.00290  0.44730  Biso   1.000  H
  H79      1.0000 0.54900  0.49710  0.94730  Biso   1.000  H
  H80      1.0000 0.45100  0.99710  0.55270  Biso   1.000  H
  H81      1.0000 0.56600  0.50410  0.09100  Biso   1.000  H
  H82      1.0000 0.43400  0.00410  0.40900  Biso   1.000  H
  H83      1.0000 0.43400  0.49590  0.90900  Biso   1.000  H
  H84      1.0000 0.56600  0.99590  0.59100  Biso   1.000  H
  H85      1.0000 0.46880  0.45180  0.12560  Biso   1.000  H
  H86      1.0000 0.53120  0.95180  0.37440  Biso   1.000  H
  H87      1.0000 0.53120  0.54820  0.87440  Biso   1.000  H
  H88      1.0000 0.46880  0.04820  0.62560  Biso   1.000  H
  S5       1.0000 0.76951  0.02335  0.02559  Biso   1.000  S
  S6       1.0000 0.23049  0.52335  0.47441  Biso   1.000  S
  S7       1.0000 0.23049  0.97665  0.97441  Biso   1.000  S
  S8       1.0000 0.76951  0.47665  0.52559  Biso   1.000  S
  O17      1.0000 0.84020  0.11580  0.99747  Biso   1.000  O
  O18      1.0000 0.15980  0.61580  0.50253  Biso   1.000  O
  O19      1.0000 0.15980  0.88420  0.00253  Biso   1.000  O
  O20      1.0000 0.84020  0.38420  0.49747  Biso   1.000  O
  C97      1.0000 0.82800  0.98810  0.10530  Biso   1.000  C
  C98      1.0000 0.17200  0.48810  0.39470  Biso   1.000  C
  C99      1.0000 0.17200  0.01190  0.89470  Biso   1.000  C
  C100     1.0000 0.82800  0.51190  0.60530  Biso   1.000  C
  H89      1.0000 0.90210  0.96840  0.10370  Biso   1.000  H
  H90      1.0000 0.09790  0.46840  0.39630  Biso   1.000  H
  H91      1.0000 0.09790  0.03160  0.89630  Biso   1.000  H
  H92      1.0000 0.90210  0.53160  0.60370  Biso   1.000  H
  H93      1.0000 0.79190  0.91700  0.12250  Biso   1.000  H
  H94      1.0000 0.20810  0.41700  0.37750  Biso   1.000  H
  H95      1.0000 0.20810  0.08300  0.87750  Biso   1.000  H
  H96      1.0000 0.79190  0.58300  0.62250  Biso   1.000  H
  H97      1.0000 0.82150  0.06120  0.13340  Biso   1.000  H
  H98      1.0000 0.17850  0.56120  0.36660  Biso   1.000  H
  H99      1.0000 0.17850  0.93880  0.86660  Biso   1.000  H
  H100     1.0000 0.82150  0.43880  0.63340  Biso   1.000  H
  C101     1.0000 0.79360  0.87760  0.98810  Biso   1.000  C
  C102     1.0000 0.20640  0.37760  0.51190  Biso   1.000  C
  C103     1.0000 0.20640  0.12240  0.01190  Biso   1.000  C
  C104     1.0000 0.79360  0.62240  0.48810  Biso   1.000  C
  H101     1.0000 0.77680  0.88510  0.94060  Biso   1.000  H
  H102     1.0000 0.22320  0.38510  0.55940  Biso   1.000  H
  H103     1.0000 0.22320  0.11490  0.05940  Biso   1.000  H
  H104     1.0000 0.77680  0.61490  0.44060  Biso   1.000  H
  H105     1.0000 0.74930  0.81270  0.00440  Biso   1.000  H
  H106     1.0000 0.25070  0.31270  0.49560  Biso   1.000  H
  H107     1.0000 0.25070  0.18730  0.99560  Biso   1.000  H
  H108     1.0000 0.74930  0.68730  0.50440  Biso   1.000  H
  H109     1.0000 0.86750  0.85470  0.99740  Biso   1.000  H
  H110     1.0000 0.13250  0.35470  0.50260  Biso   1.000  H
  H111     1.0000 0.13250  0.14530  0.00260  Biso   1.000  H
  H112     1.0000 0.86750  0.64530  0.49740  Biso   1.000  H
  S9       1.0000 0.88370  0.95920  0.03100  Biso   1.000  S
  S10      1.0000 0.11630  0.45920  0.46900  Biso   1.000  S
  S11      1.0000 0.11630  0.04080  0.96900  Biso   1.000  S
  S12      1.0000 0.88370  0.54080  0.53100  Biso   1.000  S
  O21      1.0000 0.90010  0.08410  0.00190  Biso   1.000  O
  O22      1.0000 0.09990  0.58410  0.49810  Biso   1.000  O
  O23      1.0000 0.09990  0.91590  0.99810  Biso   1.000  O
  O24      1.0000 0.90010  0.41590  0.50190  Biso   1.000  O
  H113     1.0000 0.81970  0.08060  0.11160  Biso   1.000  H
  H114     1.0000 0.18030  0.58060  0.38840  Biso   1.000  H
  H115     1.0000 0.18030  0.91940  0.88840  Biso   1.000  H
  H116     1.0000 0.81970  0.41940  0.61160  Biso   1.000  H
  H117     1.0000 0.87450  0.95740  0.14300  Biso   1.000  H
  H118     1.0000 0.12550  0.45740  0.35700  Biso   1.000  H
  H119     1.0000 0.12550  0.04260  0.85700  Biso   1.000  H
  H120     1.0000 0.87450  0.54260  0.64300  Biso   1.000  H
  H121     1.0000 0.75950  0.94950  0.10500  Biso   1.000  H
  H122     1.0000 0.24050  0.44950  0.39500  Biso   1.000  H
  H123     1.0000 0.24050  0.05050  0.89500  Biso   1.000  H
  H124     1.0000 0.75950  0.55050  0.60500  Biso   1.000  H
  H125     1.0000 0.75000  0.93080  0.95790  Biso   1.000  H
  H126     1.0000 0.25000  0.43080  0.54210  Biso   1.000  H
  H127     1.0000 0.25000  0.06920  0.04210  Biso   1.000  H
  H128     1.0000 0.75000  0.56920  0.45790  Biso   1.000  H
  H129     1.0000 0.74820  0.83520  0.01710  Biso   1.000  H
  H130     1.0000 0.25180  0.33520  0.48290  Biso   1.000  H
  H131     1.0000 0.25180  0.16480  0.98290  Biso   1.000  H
  H132     1.0000 0.74820  0.66480  0.51710  Biso   1.000  H
  H133     1.0000 0.82580  0.81170  0.96250  Biso   1.000  H
  H134     1.0000 0.17420  0.31170  0.53750  Biso   1.000  H
  H135     1.0000 0.17420  0.18830  0.03750  Biso   1.000  H
  H136     1.0000 0.82580  0.68830  0.46250  Biso   1.000  H
  O25      1.0000 0.97959  0.28050  0.06415  Biso   1.000  O
  O26      1.0000 0.02041  0.78050  0.43585  Biso   1.000  O
  O27      1.0000 0.02041  0.71950  0.93585  Biso   1.000  O
  O28      1.0000 0.97959  0.21950  0.56415  Biso   1.000  O
  H137     1.0000 0.95300  0.30900  0.09740  Biso   1.000  H
  H138     1.0000 0.04700  0.80900  0.40260  Biso   1.000  H
  H139     1.0000 0.04700  0.69100  0.90260  Biso   1.000  H
  H140     1.0000 0.95300  0.19100  0.59740  Biso   1.000  H
  H141     1.0000 0.93800  0.22300  0.05000  Biso   1.000  H
  H142     1.0000 0.06200  0.72300  0.45000  Biso   1.000  H
  H143     1.0000 0.06200  0.77700  0.95000  Biso   1.000  H
  H144     1.0000 0.93800  0.27700  0.55000  Biso   1.000  H
