data_image0
_cell_length_a       8.977
_cell_length_b       9.771
_cell_length_c       17.368
_cell_angle_alpha    90
_cell_angle_beta     90
_cell_angle_gamma    90

_symmetry_space_group_name_H-M    "P 1"
_symmetry_int_tables_number       1

loop_
  _symmetry_equiv_pos_as_xyz
  'x, y, z'

loop_
  _atom_site_label
  _atom_site_occupancy
  _atom_site_fract_x
  _atom_site_fract_y
  _atom_site_fract_z
  _atom_site_thermal_displace_type
  _atom_site_B_iso_or_equiv
  _atom_site_type_symbol
  Cu1      1.0000 0.14180  0.13390  0.46260  Biso   1.000  Cu
  Cu2      1.0000 0.35820  0.86610  0.96260  Biso   1.000  Cu
  Cu3      1.0000 0.64180  0.36610  0.53740  Biso   1.000  Cu
  Cu4      1.0000 0.85820  0.63390  0.03740  Biso   1.000  Cu
  P1       1.0000 0.80880  0.14520  0.19200  Biso   1.000  P
  P2       1.0000 0.69120  0.85480  0.69200  Biso   1.000  P
  P3       1.0000 0.30880  0.35480  0.80800  Biso   1.000  P
  P4       1.0000 0.19120  0.64520  0.30800  Biso   1.000  P
  O1       1.0000 0.93280  0.16770  0.48600  Biso   1.000  O
  O2       1.0000 0.56720  0.83230  0.98600  Biso   1.000  O
  O3       1.0000 0.43280  0.33230  0.51400  Biso   1.000  O
  O4       1.0000 0.06720  0.66770  0.01400  Biso   1.000  O
  O5       1.0000 0.18870  0.33110  0.52380  Biso   1.000  O
  O6       1.0000 0.31130  0.66890  0.02380  Biso   1.000  O
  O7       1.0000 0.68870  0.16890  0.47620  Biso   1.000  O
  O8       1.0000 0.81130  0.83110  0.97620  Biso   1.000  O
  N1       1.0000 0.12930  0.21360  0.35410  Biso   1.000  N
  N2       1.0000 0.37070  0.78640  0.85410  Biso   1.000  N
  N3       1.0000 0.62930  0.28640  0.64590  Biso   1.000  N
  N4       1.0000 0.87070  0.71360  0.14590  Biso   1.000  N
  N5       1.0000 0.34740  0.08490  0.43120  Biso   1.000  N
  N6       1.0000 0.15260  0.91510  0.93120  Biso   1.000  N
  N7       1.0000 0.84740  0.41510  0.56880  Biso   1.000  N
  N8       1.0000 0.65260  0.58490  0.06880  Biso   1.000  N
  N9       1.0000 0.17700  0.00140  0.55270  Biso   1.000  N
  N10      1.0000 0.32300  0.99860  0.05270  Biso   1.000  N
  N11      1.0000 0.67700  0.49860  0.44730  Biso   1.000  N
  N12      1.0000 0.82300  0.50140  0.94730  Biso   1.000  N
  C1       1.0000 0.27590  0.20230  0.31660  Biso   1.000  C
  C2       1.0000 0.22410  0.79770  0.81660  Biso   1.000  C
  C3       1.0000 0.77590  0.29770  0.68340  Biso   1.000  C
  C4       1.0000 0.72410  0.70230  0.18340  Biso   1.000  C
  C5       1.0000 0.35930  0.08210  0.34720  Biso   1.000  C
  C6       1.0000 0.14070  0.91790  0.84720  Biso   1.000  C
  C7       1.0000 0.85930  0.41790  0.65280  Biso   1.000  C
  C8       1.0000 0.64070  0.58210  0.15280  Biso   1.000  C
  C9       1.0000 0.39610  0.96120  0.47160  Biso   1.000  C
  C10      1.0000 0.10390  0.03880  0.97160  Biso   1.000  C
  C11      1.0000 0.89610  0.53880  0.52840  Biso   1.000  C
  C12      1.0000 0.60390  0.46120  0.02840  Biso   1.000  C
  C13      1.0000 0.33910  0.97500  0.55460  Biso   1.000  C
  C14      1.0000 0.16090  0.02500  0.05460  Biso   1.000  C
  C15      1.0000 0.83910  0.52500  0.44540  Biso   1.000  C
  C16      1.0000 0.66090  0.47500  0.94540  Biso   1.000  C
  C17      1.0000 0.13230  0.05920  0.62740  Biso   1.000  C
  C18      1.0000 0.36770  0.94080  0.12740  Biso   1.000  C
  C19      1.0000 0.63230  0.44080  0.37260  Biso   1.000  C
  C20      1.0000 0.86770  0.55920  0.87260  Biso   1.000  C
  C21      1.0000 0.09560  0.87250  0.54340  Biso   1.000  C
  C22      1.0000 0.40440  0.12750  0.04340  Biso   1.000  C
  C23      1.0000 0.59560  0.62750  0.45660  Biso   1.000  C
  C24      1.0000 0.90440  0.37250  0.95660  Biso   1.000  C
  C25      1.0000 0.81050  0.11730  0.46200  Biso   1.000  C
  C26      1.0000 0.68950  0.88270  0.96200  Biso   1.000  C
  C27      1.0000 0.31050  0.38270  0.53800  Biso   1.000  C
  C28      1.0000 0.18950  0.61730  0.03800  Biso   1.000  C
  C29      1.0000 0.81250  0.98310  0.41680  Biso   1.000  C
  C30      1.0000 0.68750  0.01690  0.91680  Biso   1.000  C
  C31      1.0000 0.31250  0.51690  0.58320  Biso   1.000  C
  C32      1.0000 0.18750  0.48310  0.08320  Biso   1.000  C
  F1       1.0000 0.82410  0.21300  0.27290  Biso   1.000  F
  F2       1.0000 0.67590  0.78700  0.77290  Biso   1.000  F
  F3       1.0000 0.32410  0.28700  0.72710  Biso   1.000  F
  F4       1.0000 0.17590  0.71300  0.22710  Biso   1.000  F
  F5       1.0000 0.66530  0.22830  0.17570  Biso   1.000  F
  F6       1.0000 0.83470  0.77170  0.67570  Biso   1.000  F
  F7       1.0000 0.16530  0.27170  0.82430  Biso   1.000  F
  F8       1.0000 0.33470  0.72830  0.32430  Biso   1.000  F
  F9       1.0000 0.90380  0.25770  0.15650  Biso   1.000  F
  F10      1.0000 0.59620  0.74230  0.65650  Biso   1.000  F
  F11      1.0000 0.40380  0.24230  0.84350  Biso   1.000  F
  F12      1.0000 0.09620  0.75770  0.34350  Biso   1.000  F
  F13      1.0000 0.70770  0.03020  0.22730  Biso   1.000  F
  F14      1.0000 0.79230  0.96980  0.72730  Biso   1.000  F
  F15      1.0000 0.20770  0.46980  0.77270  Biso   1.000  F
  F16      1.0000 0.29230  0.53020  0.27270  Biso   1.000  F
  F17      1.0000 0.94750  0.05630  0.20830  Biso   1.000  F
  F18      1.0000 0.55250  0.94370  0.70830  Biso   1.000  F
  F19      1.0000 0.44750  0.44370  0.79170  Biso   1.000  F
  F20      1.0000 0.05250  0.55630  0.29170  Biso   1.000  F
  F21      1.0000 0.79730  0.07330  0.11120  Biso   1.000  F
  F22      1.0000 0.70270  0.92670  0.61120  Biso   1.000  F
  F23      1.0000 0.29730  0.42670  0.88880  Biso   1.000  F
  F24      1.0000 0.20270  0.57330  0.38880  Biso   1.000  F
  H1       1.0000 0.10030  0.30800  0.35700  Biso   1.000  H
  H2       1.0000 0.39970  0.69200  0.85700  Biso   1.000  H
  H3       1.0000 0.60030  0.19200  0.64300  Biso   1.000  H
  H4       1.0000 0.89970  0.80800  0.14300  Biso   1.000  H
  H5       1.0000 0.05690  0.16360  0.32470  Biso   1.000  H
  H6       1.0000 0.44310  0.83640  0.82470  Biso   1.000  H
  H7       1.0000 0.55690  0.33640  0.67530  Biso   1.000  H
  H8       1.0000 0.94310  0.66360  0.17530  Biso   1.000  H
  H9       1.0000 0.41760  0.15340  0.44710  Biso   1.000  H
  H10      1.0000 0.08240  0.84660  0.94710  Biso   1.000  H
  H11      1.0000 0.91760  0.34660  0.55290  Biso   1.000  H
  H12      1.0000 0.58240  0.65340  0.05290  Biso   1.000  H
  H13      1.0000 0.26220  0.19180  0.26210  Biso   1.000  H
  H14      1.0000 0.23780  0.80820  0.76210  Biso   1.000  H
  H15      1.0000 0.76220  0.30820  0.73790  Biso   1.000  H
  H16      1.0000 0.73780  0.69180  0.23790  Biso   1.000  H
  H17      1.0000 0.33190  0.28420  0.32650  Biso   1.000  H
  H18      1.0000 0.16810  0.71580  0.82650  Biso   1.000  H
  H19      1.0000 0.83190  0.21580  0.67350  Biso   1.000  H
  H20      1.0000 0.66810  0.78420  0.17350  Biso   1.000  H
  H21      1.0000 0.46190  0.08780  0.33200  Biso   1.000  H
  H22      1.0000 0.03810  0.91220  0.83200  Biso   1.000  H
  H23      1.0000 0.96190  0.41220  0.66800  Biso   1.000  H
  H24      1.0000 0.53810  0.58780  0.16800  Biso   1.000  H
  H25      1.0000 0.31660  0.99910  0.32750  Biso   1.000  H
  H26      1.0000 0.18340  0.00090  0.82750  Biso   1.000  H
  H27      1.0000 0.81660  0.50090  0.67250  Biso   1.000  H
  H28      1.0000 0.68340  0.49910  0.17250  Biso   1.000  H
  H29      1.0000 0.35370  0.88160  0.44780  Biso   1.000  H
  H30      1.0000 0.14630  0.11840  0.94780  Biso   1.000  H
  H31      1.0000 0.85370  0.61840  0.55220  Biso   1.000  H
  H32      1.0000 0.64630  0.38160  0.05220  Biso   1.000  H
  H33      1.0000 0.50280  0.95440  0.47090  Biso   1.000  H
  H34      1.0000 0.99720  0.04560  0.97090  Biso   1.000  H
  H35      1.0000 0.00280  0.54560  0.52910  Biso   1.000  H
  H36      1.0000 0.49720  0.45440  0.02910  Biso   1.000  H
  H37      1.0000 0.38910  0.04990  0.57930  Biso   1.000  H
  H38      1.0000 0.11090  0.95010  0.07930  Biso   1.000  H
  H39      1.0000 0.88910  0.45010  0.42070  Biso   1.000  H
  H40      1.0000 0.61090  0.54990  0.92070  Biso   1.000  H
  H41      1.0000 0.35840  0.89200  0.58250  Biso   1.000  H
  H42      1.0000 0.14160  0.10800  0.08250  Biso   1.000  H
  H43      1.0000 0.85840  0.60800  0.41750  Biso   1.000  H
  H44      1.0000 0.64160  0.39200  0.91750  Biso   1.000  H
  H45      1.0000 0.18340  0.14430  0.63510  Biso   1.000  H
  H46      1.0000 0.31660  0.85570  0.13510  Biso   1.000  H
  H47      1.0000 0.68340  0.35570  0.36490  Biso   1.000  H
  H48      1.0000 0.81660  0.64430  0.86490  Biso   1.000  H
  H49      1.0000 0.15800  0.99670  0.66800  Biso   1.000  H
  H50      1.0000 0.34200  0.00330  0.16800  Biso   1.000  H
  H51      1.0000 0.65800  0.50330  0.33200  Biso   1.000  H
  H52      1.0000 0.84200  0.49670  0.83200  Biso   1.000  H
  H53      1.0000 0.02670  0.07480  0.62780  Biso   1.000  H
  H54      1.0000 0.47330  0.92520  0.12780  Biso   1.000  H
  H55      1.0000 0.52670  0.42520  0.37220  Biso   1.000  H
  H56      1.0000 0.97330  0.57480  0.87220  Biso   1.000  H
  H57      1.0000 0.12220  0.83160  0.49510  Biso   1.000  H
  H58      1.0000 0.37780  0.16840  0.99510  Biso   1.000  H
  H59      1.0000 0.62220  0.66840  0.50490  Biso   1.000  H
  H60      1.0000 0.87780  0.33160  0.00490  Biso   1.000  H
  H61      1.0000 0.99030  0.88950  0.54450  Biso   1.000  H
  H62      1.0000 0.50970  0.11050  0.04450  Biso   1.000  H
  H63      1.0000 0.49030  0.61050  0.45550  Biso   1.000  H
  H64      1.0000 0.00970  0.38950  0.95550  Biso   1.000  H
  H65      1.0000 0.12170  0.81150  0.58460  Biso   1.000  H
  H66      1.0000 0.37830  0.18850  0.08460  Biso   1.000  H
  H67      1.0000 0.62170  0.68850  0.41540  Biso   1.000  H
  H68      1.0000 0.87830  0.31150  0.91540  Biso   1.000  H
  H69      1.0000 0.71260  0.95840  0.40270  Biso   1.000  H
  H70      1.0000 0.78740  0.04160  0.90270  Biso   1.000  H
  H71      1.0000 0.21260  0.54160  0.59730  Biso   1.000  H
  H72      1.0000 0.28740  0.45840  0.09730  Biso   1.000  H
  H73      1.0000 0.85480  0.91230  0.44830  Biso   1.000  H
  H74      1.0000 0.64520  0.08770  0.94830  Biso   1.000  H
  H75      1.0000 0.35480  0.58770  0.55170  Biso   1.000  H
  H76      1.0000 0.14520  0.41230  0.05170  Biso   1.000  H
  H77      1.0000 0.87150  0.99420  0.37110  Biso   1.000  H
  H78      1.0000 0.62850  0.00580  0.87110  Biso   1.000  H
  H79      1.0000 0.37150  0.50580  0.62890  Biso   1.000  H
  H80      1.0000 0.12850  0.49420  0.12890  Biso   1.000  H
