data_image0
_cell_length_a       9.638
_cell_length_b       8.999
_cell_length_c       16.275
_cell_angle_alpha    90
_cell_angle_beta     96.46
_cell_angle_gamma    90

_symmetry_space_group_name_H-M    "P 1"
_symmetry_int_tables_number       1

loop_
  _symmetry_equiv_pos_as_xyz
  'x, y, z'

loop_
  _atom_site_label
  _atom_site_occupancy
  _atom_site_fract_x
  _atom_site_fract_y
  _atom_site_fract_z
  _atom_site_thermal_displace_type
  _atom_site_B_iso_or_equiv
  _atom_site_type_symbol
  Cu1      1.0000 0.13960  0.37680  0.28960  Biso   1.000  Cu
  Cu2      1.0000 0.36040  0.87680  0.21040  Biso   1.000  Cu
  Cu3      1.0000 0.86040  0.62320  0.71040  Biso   1.000  Cu
  Cu4      1.0000 0.63960  0.12320  0.78960  Biso   1.000  Cu
  Cl1      1.0000 0.19250  0.18440  0.93240  Biso   1.000  Cl
  Cl2      1.0000 0.30750  0.68440  0.56760  Biso   1.000  Cl
  Cl3      1.0000 0.80750  0.81560  0.06760  Biso   1.000  Cl
  Cl4      1.0000 0.69250  0.31560  0.43240  Biso   1.000  Cl
  O1       1.0000 0.17160  0.58770  0.26970  Biso   1.000  O
  O2       1.0000 0.32840  0.08770  0.23030  Biso   1.000  O
  O3       1.0000 0.82840  0.41230  0.73030  Biso   1.000  O
  O4       1.0000 0.67160  0.91230  0.76970  Biso   1.000  O
  O5       1.0000 0.31960  0.33080  0.21730  Biso   1.000  O
  O6       1.0000 0.18040  0.83080  0.28270  Biso   1.000  O
  O7       1.0000 0.68040  0.66920  0.78270  Biso   1.000  O
  O8       1.0000 0.81960  0.16920  0.71730  Biso   1.000  O
  O9       1.0000 0.24740  0.32480  0.95440  Biso   1.000  O
  O10      1.0000 0.25260  0.82480  0.54560  Biso   1.000  O
  O11      1.0000 0.75260  0.67520  0.04560  Biso   1.000  O
  O12      1.0000 0.74740  0.17520  0.45440  Biso   1.000  O
  O13      1.0000 0.30030  0.07950  0.92970  Biso   1.000  O
  O14      1.0000 0.19970  0.57950  0.57030  Biso   1.000  O
  O15      1.0000 0.69970  0.92050  0.07030  Biso   1.000  O
  O16      1.0000 0.80030  0.42050  0.42970  Biso   1.000  O
  O17      1.0000 0.11790  0.19430  0.85340  Biso   1.000  O
  O18      1.0000 0.38210  0.69430  0.64660  Biso   1.000  O
  O19      1.0000 0.88210  0.80570  0.14660  Biso   1.000  O
  O20      1.0000 0.61790  0.30570  0.35340  Biso   1.000  O
  O21      1.0000 0.10590  0.13430  0.99000  Biso   1.000  O
  O22      1.0000 0.39410  0.63430  0.51000  Biso   1.000  O
  O23      1.0000 0.89410  0.86570  0.01000  Biso   1.000  O
  O24      1.0000 0.60590  0.36570  0.49000  Biso   1.000  O
  N1       1.0000 0.24290  0.37590  0.40580  Biso   1.000  N
  N2       1.0000 0.25710  0.87590  0.09420  Biso   1.000  N
  N3       1.0000 0.75710  0.62410  0.59420  Biso   1.000  N
  N4       1.0000 0.74290  0.12410  0.90580  Biso   1.000  N
  N5       1.0000 0.09320  0.17000  0.31800  Biso   1.000  N
  N6       1.0000 0.40680  0.67000  0.18200  Biso   1.000  N
  N7       1.0000 0.90680  0.83000  0.68200  Biso   1.000  N
  N8       1.0000 0.59320  0.33000  0.81800  Biso   1.000  N
  N9       1.0000 0.98470  0.35530  0.19240  Biso   1.000  N
  N10      1.0000 0.51530  0.85530  0.30760  Biso   1.000  N
  N11      1.0000 0.01530  0.64470  0.80760  Biso   1.000  N
  N12      1.0000 0.48470  0.14470  0.69240  Biso   1.000  N
  C1       1.0000 0.22580  0.23260  0.44600  Biso   1.000  C
  C2       1.0000 0.27420  0.73260  0.05400  Biso   1.000  C
  C3       1.0000 0.77420  0.76740  0.55400  Biso   1.000  C
  C4       1.0000 0.72580  0.26740  0.94600  Biso   1.000  C
  C5       1.0000 0.10210  0.15360  0.40810  Biso   1.000  C
  C6       1.0000 0.39790  0.65360  0.09190  Biso   1.000  C
  C7       1.0000 0.89790  0.84640  0.59190  Biso   1.000  C
  C8       1.0000 0.60210  0.34640  0.90810  Biso   1.000  C
  C9       1.0000 0.96100  0.12470  0.26950  Biso   1.000  C
  C10      1.0000 0.53900  0.62470  0.23050  Biso   1.000  C
  C11      1.0000 0.03900  0.87530  0.73050  Biso   1.000  C
  C12      1.0000 0.46100  0.37530  0.76950  Biso   1.000  C
  C13      1.0000 0.96130  0.19160  0.18540  Biso   1.000  C
  C14      1.0000 0.53870  0.69160  0.31460  Biso   1.000  C
  C15      1.0000 0.03870  0.80840  0.81460  Biso   1.000  C
  C16      1.0000 0.46130  0.30840  0.68540  Biso   1.000  C
  C17      1.0000 0.85750  0.42910  0.20930  Biso   1.000  C
  C18      1.0000 0.64250  0.92910  0.29070  Biso   1.000  C
  C19      1.0000 0.14250  0.57090  0.79070  Biso   1.000  C
  C20      1.0000 0.35750  0.07090  0.70930  Biso   1.000  C
  C21      1.0000 0.02640  0.41610  0.11480  Biso   1.000  C
  C22      1.0000 0.47360  0.91610  0.38520  Biso   1.000  C
  C23      1.0000 0.97360  0.58390  0.88520  Biso   1.000  C
  C24      1.0000 0.52640  0.08390  0.61480  Biso   1.000  C
  C25      1.0000 0.13170  0.70910  0.29960  Biso   1.000  C
  C26      1.0000 0.36830  0.20910  0.20040  Biso   1.000  C
  C27      1.0000 0.86830  0.29090  0.70040  Biso   1.000  C
  C28      1.0000 0.63170  0.79090  0.79960  Biso   1.000  C
  C29      1.0000 0.02310  0.70530  0.35950  Biso   1.000  C
  C30      1.0000 0.47690  0.20530  0.14050  Biso   1.000  C
  C31      1.0000 0.97690  0.29470  0.64050  Biso   1.000  C
  C32      1.0000 0.52310  0.79470  0.85950  Biso   1.000  C
  H1       1.0000 0.20620  0.45320  0.43780  Biso   1.000  H
  H2       1.0000 0.29380  0.95320  0.06220  Biso   1.000  H
  H3       1.0000 0.79380  0.54680  0.56220  Biso   1.000  H
  H4       1.0000 0.70620  0.04680  0.93780  Biso   1.000  H
  H5       1.0000 0.34040  0.39340  0.40270  Biso   1.000  H
  H6       1.0000 0.15960  0.89340  0.09730  Biso   1.000  H
  H7       1.0000 0.65960  0.60660  0.59730  Biso   1.000  H
  H8       1.0000 0.84040  0.10660  0.90270  Biso   1.000  H
  H9       1.0000 0.16030  0.09990  0.30210  Biso   1.000  H
  H10      1.0000 0.33970  0.59990  0.19790  Biso   1.000  H
  H11      1.0000 0.83970  0.90010  0.69790  Biso   1.000  H
  H12      1.0000 0.66030  0.40010  0.80210  Biso   1.000  H
  H13      1.0000 0.30690  0.17270  0.44120  Biso   1.000  H
  H14      1.0000 0.19310  0.67270  0.05880  Biso   1.000  H
  H15      1.0000 0.69310  0.82730  0.55880  Biso   1.000  H
  H16      1.0000 0.80690  0.32730  0.94120  Biso   1.000  H
  H17      1.0000 0.21650  0.24920  0.50340  Biso   1.000  H
  H18      1.0000 0.28350  0.74920  0.99660  Biso   1.000  H
  H19      1.0000 0.78350  0.75080  0.49660  Biso   1.000  H
  H20      1.0000 0.71650  0.25080  0.00340  Biso   1.000  H
  H21      1.0000 0.10930  0.05010  0.42240  Biso   1.000  H
  H22      1.0000 0.39070  0.55010  0.07760  Biso   1.000  H
  H23      1.0000 0.89070  0.94990  0.57760  Biso   1.000  H
  H24      1.0000 0.60930  0.44990  0.92240  Biso   1.000  H
  H25      1.0000 0.02010  0.19480  0.42770  Biso   1.000  H
  H26      1.0000 0.47990  0.69480  0.07230  Biso   1.000  H
  H27      1.0000 0.97990  0.80520  0.57230  Biso   1.000  H
  H28      1.0000 0.52010  0.30520  0.92770  Biso   1.000  H
  H29      1.0000 0.95610  0.01830  0.26540  Biso   1.000  H
  H30      1.0000 0.54390  0.51830  0.23460  Biso   1.000  H
  H31      1.0000 0.04390  0.98170  0.73460  Biso   1.000  H
  H32      1.0000 0.45610  0.48170  0.76540  Biso   1.000  H
  H33      1.0000 0.88280  0.16090  0.29520  Biso   1.000  H
  H34      1.0000 0.61720  0.66090  0.20480  Biso   1.000  H
  H35      1.0000 0.11720  0.83910  0.70480  Biso   1.000  H
  H36      1.0000 0.38280  0.33910  0.79520  Biso   1.000  H
  H37      1.0000 0.87300  0.17300  0.15350  Biso   1.000  H
  H38      1.0000 0.62700  0.67300  0.34650  Biso   1.000  H
  H39      1.0000 0.12700  0.82700  0.84650  Biso   1.000  H
  H40      1.0000 0.37300  0.32700  0.65350  Biso   1.000  H
  H41      1.0000 0.03460  0.14750  0.15820  Biso   1.000  H
  H42      1.0000 0.46540  0.64750  0.34180  Biso   1.000  H
  H43      1.0000 0.96540  0.85250  0.84180  Biso   1.000  H
  H44      1.0000 0.53460  0.35250  0.65820  Biso   1.000  H
  H45      1.0000 0.82840  0.39090  0.25970  Biso   1.000  H
  H46      1.0000 0.67160  0.89090  0.24030  Biso   1.000  H
  H47      1.0000 0.17160  0.60910  0.74030  Biso   1.000  H
  H48      1.0000 0.32840  0.10910  0.75970  Biso   1.000  H
  H49      1.0000 0.78570  0.41130  0.16460  Biso   1.000  H
  H50      1.0000 0.71430  0.91130  0.33540  Biso   1.000  H
  H51      1.0000 0.21430  0.58870  0.83540  Biso   1.000  H
  H52      1.0000 0.28570  0.08870  0.66460  Biso   1.000  H
  H53      1.0000 0.87410  0.53400  0.21480  Biso   1.000  H
  H54      1.0000 0.62590  0.03400  0.28520  Biso   1.000  H
  H55      1.0000 0.12590  0.46600  0.78520  Biso   1.000  H
  H56      1.0000 0.37410  0.96600  0.71480  Biso   1.000  H
  H57      1.0000 0.11080  0.36860  0.10240  Biso   1.000  H
  H58      1.0000 0.38920  0.86860  0.39760  Biso   1.000  H
  H59      1.0000 0.88920  0.63140  0.89760  Biso   1.000  H
  H60      1.0000 0.61080  0.13140  0.60240  Biso   1.000  H
  H61      1.0000 0.04210  0.52110  0.12080  Biso   1.000  H
  H62      1.0000 0.45790  0.02110  0.37920  Biso   1.000  H
  H63      1.0000 0.95790  0.47890  0.87920  Biso   1.000  H
  H64      1.0000 0.54210  0.97890  0.62080  Biso   1.000  H
  H65      1.0000 0.95360  0.39840  0.07060  Biso   1.000  H
  H66      1.0000 0.54640  0.89840  0.42940  Biso   1.000  H
  H67      1.0000 0.04640  0.60160  0.92940  Biso   1.000  H
  H68      1.0000 0.45360  0.10160  0.57060  Biso   1.000  H
  H69      1.0000 0.00400  0.80470  0.37640  Biso   1.000  H
  H70      1.0000 0.49600  0.30470  0.12360  Biso   1.000  H
  H71      1.0000 0.99600  0.19530  0.62360  Biso   1.000  H
  H72      1.0000 0.50400  0.69530  0.87640  Biso   1.000  H
  H73      1.0000 0.05710  0.64730  0.40700  Biso   1.000  H
  H74      1.0000 0.44290  0.14730  0.09300  Biso   1.000  H
  H75      1.0000 0.94290  0.35270  0.59300  Biso   1.000  H
  H76      1.0000 0.55710  0.85270  0.90700  Biso   1.000  H
  H77      1.0000 0.93890  0.66130  0.33300  Biso   1.000  H
  H78      1.0000 0.56110  0.16130  0.16700  Biso   1.000  H
  H79      1.0000 0.06110  0.33870  0.66700  Biso   1.000  H
  H80      1.0000 0.43890  0.83870  0.83300  Biso   1.000  H
