data_image0
_cell_length_a       23.4405
_cell_length_b       19.8751
_cell_length_c       14.5335
_cell_angle_alpha    84.359
_cell_angle_beta     57.542
_cell_angle_gamma    38.099

_symmetry_space_group_name_H-M    "P 1"
_symmetry_int_tables_number       1

loop_
  _symmetry_equiv_pos_as_xyz
  'x, y, z'

loop_
  _atom_site_label
  _atom_site_occupancy
  _atom_site_fract_x
  _atom_site_fract_y
  _atom_site_fract_z
  _atom_site_thermal_displace_type
  _atom_site_B_iso_or_equiv
  _atom_site_type_symbol
  O1       1.0000 0.71200  0.01570  0.94980  Biso   1.000  O
  O2       1.0000 0.28800  0.98430  0.05020  Biso   1.000  O
  O3       1.0000 0.01540  0.71230  0.82260  Biso   1.000  O
  O4       1.0000 0.98460  0.28770  0.17740  Biso   1.000  O
  O5       1.0000 0.65950  0.20410  0.18770  Biso   1.000  O
  O6       1.0000 0.34050  0.79590  0.81230  Biso   1.000  O
  C1       1.0000 0.77580  0.12380  0.11880  Biso   1.000  C
  C2       1.0000 0.22420  0.87620  0.88120  Biso   1.000  C
  O7       1.0000 0.75680  0.75640  0.99410  Biso   1.000  O
  O8       1.0000 0.24320  0.24360  0.00590  Biso   1.000  O
  O9       1.0000 0.80170  0.15840  0.12740  Biso   1.000  O
  O10      1.0000 0.19830  0.84160  0.87260  Biso   1.000  O
  O11      1.0000 0.62730  0.91260  0.30170  Biso   1.000  O
  O12      1.0000 0.37270  0.08740  0.69830  Biso   1.000  O
  O13      1.0000 0.32280  0.44960  0.51520  Biso   1.000  O
  O14      1.0000 0.67720  0.55040  0.48480  Biso   1.000  O
  O15      1.0000 0.44940  0.32290  0.21270  Biso   1.000  O
  O16      1.0000 0.55060  0.67710  0.78730  Biso   1.000  O
  O17      1.0000 0.49400  0.49250  0.25670  Biso   1.000  O
  O18      1.0000 0.50600  0.50750  0.74330  Biso   1.000  O
  Cu1      1.0000 0.00000  0.00000  0.00000  Biso   1.000  Cu
  Cu2      1.0000 0.00000  0.00000  0.50000  Biso   1.000  Cu
  Cu3      1.0000 0.50000  0.00000  0.50000  Biso   1.000  Cu
  Cu4      1.0000 0.00000  0.50000  0.50000  Biso   1.000  Cu
  Na1      1.0000 0.64957  0.10047  0.14975  Biso   1.000  Na
  Na2      1.0000 0.35043  0.89953  0.85025  Biso   1.000  Na
  Na3      1.0000 0.10028  0.64955  0.60026  Biso   1.000  Na
  Na4      1.0000 0.89972  0.35045  0.39974  Biso   1.000  Na
  Na5      1.0000 0.43268  0.43260  0.31710  Biso   1.000  Na
  Na6      1.0000 0.56732  0.56740  0.68290  Biso   1.000  Na
  Na7      1.0000 0.81770  0.81700  0.93246  Biso   1.000  Na
  Na8      1.0000 0.18230  0.18300  0.06754  Biso   1.000  Na
  O19      1.0000 0.91230  0.62720  0.65880  Biso   1.000  O
  O20      1.0000 0.08770  0.37280  0.34120  Biso   1.000  O
  O21      1.0000 0.88550  0.92560  0.99710  Biso   1.000  O
  O22      1.0000 0.11450  0.07440  0.00290  Biso   1.000  O
  O23      1.0000 0.15840  0.80190  0.41270  Biso   1.000  O
  O24      1.0000 0.84160  0.19810  0.58730  Biso   1.000  O
  O25      1.0000 0.68830  0.94810  0.15900  Biso   1.000  O
  O26      1.0000 0.31170  0.05190  0.84100  Biso   1.000  O
  N1       1.0000 0.89290  0.02160  0.64350  Biso   1.000  N
  N2       1.0000 0.10710  0.97840  0.35650  Biso   1.000  N
  O27      1.0000 0.19120  0.49770  0.42610  Biso   1.000  O
  O28      1.0000 0.80880  0.50230  0.57390  Biso   1.000  O
  O29      1.0000 0.92580  0.88530  0.69130  Biso   1.000  O
  O30      1.0000 0.07420  0.11470  0.30870  Biso   1.000  O
  N3       1.0000 0.44180  0.14350  0.52160  Biso   1.000  N
  N4       1.0000 0.55820  0.85650  0.47840  Biso   1.000  N
  N5       1.0000 0.02180  0.89280  0.94200  Biso   1.000  N
  N6       1.0000 0.97820  0.10720  0.05800  Biso   1.000  N
  O31      1.0000 0.49740  0.19150  0.38580  Biso   1.000  O
  O32      1.0000 0.50260  0.80850  0.61420  Biso   1.000  O
  O33      1.0000 0.20420  0.65940  0.44860  Biso   1.000  O
  O34      1.0000 0.79580  0.34060  0.55140  Biso   1.000  O
  N7       1.0000 0.14330  0.44180  0.39270  Biso   1.000  N
  N8       1.0000 0.85670  0.55820  0.60730  Biso   1.000  N
  C3       1.0000 0.74610  0.15180  0.76740  Biso   1.000  C
  C4       1.0000 0.25390  0.84820  0.23260  Biso   1.000  C
  C5       1.0000 0.90400  0.96610  0.01050  Biso   1.000  C
  C6       1.0000 0.09600  0.03390  0.98950  Biso   1.000  C
  O35      1.0000 0.94890  0.68740  0.70400  Biso   1.000  O
  O36      1.0000 0.05110  0.31260  0.29600  Biso   1.000  O
  C7       1.0000 0.98160  0.61870  0.62390  Biso   1.000  C
  C8       1.0000 0.01840  0.38130  0.37610  Biso   1.000  C
  C9       1.0000 0.50990  0.11940  0.40450  Biso   1.000  C
  C10      1.0000 0.49010  0.88060  0.59550  Biso   1.000  C
  C11      1.0000 0.15170  0.74590  0.83490  Biso   1.000  C
  C12      1.0000 0.84830  0.25410  0.16510  Biso   1.000  C
  C13      1.0000 0.96580  0.90440  0.61970  Biso   1.000  C
  C14      1.0000 0.03420  0.09560  0.38030  Biso   1.000  C
  C15      1.0000 0.33510  0.26690  0.65120  Biso   1.000  C
  C16      1.0000 0.66490  0.73310  0.34880  Biso   1.000  C
  C17      1.0000 0.26750  0.33470  0.24540  Biso   1.000  C
  C18      1.0000 0.73250  0.66530  0.75460  Biso   1.000  C
  C19      1.0000 0.11950  0.51000  0.46610  Biso   1.000  C
  C20      1.0000 0.88050  0.49000  0.53390  Biso   1.000  C
  C21      1.0000 0.61950  0.98080  0.27540  Biso   1.000  C
  C22      1.0000 0.38050  0.01920  0.72460  Biso   1.000  C
  C23      1.0000 0.12370  0.77590  0.48170  Biso   1.000  C
  C24      1.0000 0.87630  0.22410  0.51830  Biso   1.000  C
  C25      1.0000 0.69410  0.23100  0.87820  Biso   1.000  C
  C26      1.0000 0.30590  0.76900  0.12180  Biso   1.000  C
  C27      1.0000 0.19670  0.37810  0.73100  Biso   1.000  C
  C28      1.0000 0.80330  0.62190  0.26900  Biso   1.000  C
  C29      1.0000 0.23110  0.69420  0.69690  Biso   1.000  C
  C30      1.0000 0.76890  0.30580  0.30310  Biso   1.000  C
  C31      1.0000 0.37910  0.19590  0.19360  Biso   1.000  C
  C32      1.0000 0.62090  0.80410  0.80640  Biso   1.000  C
  C33      1.0000 0.36460  0.55030  0.59120  Biso   1.000  C
  C34      1.0000 0.63540  0.44970  0.40880  Biso   1.000  C
  H1       1.0000 0.41880  0.51580  0.49890  Biso   1.000  H
  H2       1.0000 0.58120  0.48420  0.50110  Biso   1.000  H
  C35      1.0000 0.65600  0.20370  0.77500  Biso   1.000  C
  C36      1.0000 0.34400  0.79630  0.22500  Biso   1.000  C
  C37      1.0000 0.36570  0.27460  0.70410  Biso   1.000  C
  C38      1.0000 0.63430  0.72540  0.29590  Biso   1.000  C
  C39      1.0000 0.54920  0.36510  0.99430  Biso   1.000  C
  C40      1.0000 0.45080  0.63490  0.00570  Biso   1.000  C
  H3       1.0000 0.51440  0.41930  0.06730  Biso   1.000  H
  H4       1.0000 0.48560  0.58070  0.93270  Biso   1.000  H
  C41      1.0000 0.49430  0.09160  0.04990  Biso   1.000  C
  C42      1.0000 0.50570  0.90840  0.95010  Biso   1.000  C
  H5       1.0000 0.56760  0.99910  0.01500  Biso   1.000  H
  H6       1.0000 0.43240  0.00090  0.98500  Biso   1.000  H
  C43      1.0000 0.27490  0.36570  0.15590  Biso   1.000  C
  C44      1.0000 0.72510  0.63430  0.84410  Biso   1.000  C
  C45      1.0000 0.09230  0.49320  0.86320  Biso   1.000  C
  C46      1.0000 0.90770  0.50680  0.13680  Biso   1.000  C
  H7       1.0000 0.99990  0.56630  0.91700  Biso   1.000  H
  H8       1.0000 0.00010  0.43370  0.08300  Biso   1.000  H
  C47      1.0000 0.50390  0.11910  0.95940  Biso   1.000  C
  C48      1.0000 0.49610  0.88090  0.04060  Biso   1.000  C
  C49      1.0000 0.20370  0.65610  0.86560  Biso   1.000  C
  C50      1.0000 0.79630  0.34390  0.13440  Biso   1.000  C
  C51      1.0000 0.63340  0.99990  0.80220  Biso   1.000  C
  C52      1.0000 0.36660  0.00010  0.19780  Biso   1.000  C
  H9       1.0000 0.69510  0.98300  0.76340  Biso   1.000  H
  H10      1.0000 0.30490  0.01700  0.23660  Biso   1.000  H
  H11      1.0000 0.60600  0.02490  0.75900  Biso   1.000  H
  H12      1.0000 0.39400  0.97510  0.24100  Biso   1.000  H
  H13      1.0000 0.68020  0.91710  0.78560  Biso   1.000  H
  H14      1.0000 0.31980  0.08290  0.21440  Biso   1.000  H
  C53      1.0000 0.37300  0.16160  0.29160  Biso   1.000  C
  C54      1.0000 0.62700  0.83840  0.70840  Biso   1.000  C
  H15      1.0000 0.37300  0.19230  0.33880  Biso   1.000  H
  H16      1.0000 0.62700  0.80770  0.66120  Biso   1.000  H
  H17      1.0000 0.45270  0.06280  0.23980  Biso   1.000  H
  H18      1.0000 0.54730  0.93720  0.76020  Biso   1.000  H
  H19      1.0000 0.28950  0.20800  0.35870  Biso   1.000  H
  H20      1.0000 0.71050  0.79200  0.64130  Biso   1.000  H
  C55      1.0000 0.00070  0.63290  0.06380  Biso   1.000  C
  C56      1.0000 0.99930  0.36710  0.93620  Biso   1.000  C
  H21      1.0000 0.03760  0.61770  0.09070  Biso   1.000  H
  H22      1.0000 0.96240  0.38230  0.90930  Biso   1.000  H
  H23      1.0000 0.93780  0.65130  0.12830  Biso   1.000  H
  H24      1.0000 0.06220  0.34870  0.87170  Biso   1.000  H
  H25      1.0000 0.95170  0.71120  0.06430  Biso   1.000  H
  H26      1.0000 0.04830  0.28880  0.93570  Biso   1.000  H
  C57      1.0000 0.56440  0.30220  0.50090  Biso   1.000  C
  C58      1.0000 0.43560  0.69780  0.49910  Biso   1.000  C
  H27      1.0000 0.58260  0.27940  0.42400  Biso   1.000  H
  H28      1.0000 0.41740  0.72060  0.57600  Biso   1.000  H
  H29      1.0000 0.57180  0.25340  0.53300  Biso   1.000  H
  H30      1.0000 0.42820  0.74660  0.46700  Biso   1.000  H
  H31      1.0000 0.63110  0.27520  0.47140  Biso   1.000  H
  H32      1.0000 0.36890  0.72480  0.52860  Biso   1.000  H
  C59      1.0000 0.30320  0.56300  0.13340  Biso   1.000  C
  C60      1.0000 0.69680  0.43700  0.86660  Biso   1.000  C
  H33      1.0000 0.26070  0.55660  0.17950  Biso   1.000  H
  H34      1.0000 0.73930  0.44340  0.82050  Biso   1.000  H
  H35      1.0000 0.26360  0.61910  0.10700  Biso   1.000  H
  H36      1.0000 0.73640  0.38090  0.89300  Biso   1.000  H
  H37      1.0000 0.28680  0.60480  0.19530  Biso   1.000  H
  H38      1.0000 0.71320  0.39520  0.80470  Biso   1.000  H
  C61      1.0000 0.25610  0.39420  0.83690  Biso   1.000  C
  C62      1.0000 0.74390  0.60580  0.16310  Biso   1.000  C
  H39      1.0000 0.27690  0.39970  0.87170  Biso   1.000  H
  H40      1.0000 0.72310  0.60030  0.12830  Biso   1.000  H
  C63      1.0000 0.79170  0.17430  0.87230  Biso   1.000  C
  C64      1.0000 0.20830  0.82570  0.12770  Biso   1.000  C
  H41      1.0000 0.84470  0.09200  0.86480  Biso   1.000  H
  H42      1.0000 0.15530  0.90800  0.13520  Biso   1.000  H
  H43      1.0000 0.73890  0.24310  0.95570  Biso   1.000  H
  H44      1.0000 0.26110  0.75690  0.04430  Biso   1.000  H
  H45      1.0000 0.85390  0.15150  0.79280  Biso   1.000  H
  H46      1.0000 0.14610  0.84850  0.20720  Biso   1.000  H
  C65      1.0000 0.17470  0.79060  0.66130  Biso   1.000  C
  C66      1.0000 0.82530  0.20940  0.33870  Biso   1.000  C
  H47      1.0000 0.09340  0.84200  0.69710  Biso   1.000  H
  H48      1.0000 0.90660  0.15800  0.30290  Biso   1.000  H
  H49      1.0000 0.24410  0.73750  0.56200  Biso   1.000  H
  H50      1.0000 0.75590  0.26250  0.43800  Biso   1.000  H
  H51      1.0000 0.15030  0.85420  0.70220  Biso   1.000  H
  H52      1.0000 0.84970  0.14580  0.29780  Biso   1.000  H
  C67      1.0000 0.33600  0.51300  0.75560  Biso   1.000  C
  C68      1.0000 0.66400  0.48700  0.24440  Biso   1.000  C
  H53      1.0000 0.36980  0.45190  0.77640  Biso   1.000  H
  H54      1.0000 0.63020  0.54810  0.22360  Biso   1.000  H
  C69      1.0000 0.11990  0.50340  0.91760  Biso   1.000  C
  C70      1.0000 0.88010  0.49660  0.08240  Biso   1.000  C
  C71      1.0000 0.11870  0.71360  0.01630  Biso   1.000  C
  C72      1.0000 0.88130  0.28640  0.98370  Biso   1.000  C
  H55      1.0000 0.09940  0.77110  0.05890  Biso   1.000  H
  H56      1.0000 0.90060  0.22890  0.94110  Biso   1.000  H
  H57      1.0000 0.17020  0.63790  0.02020  Biso   1.000  H
  H58      1.0000 0.82980  0.36210  0.97980  Biso   1.000  H
  H59      1.0000 0.03260  0.76810  0.06530  Biso   1.000  H
  H60      1.0000 0.96740  0.23190  0.93470  Biso   1.000  H
  C73      1.0000 0.45870  0.41820  0.00430  Biso   1.000  C
  C74      1.0000 0.54130  0.58180  0.99570  Biso   1.000  C
  C75      1.0000 0.41760  0.45910  0.61920  Biso   1.000  C
  C76      1.0000 0.58240  0.54090  0.38080  Biso   1.000  C
  C77      1.0000 0.51430  0.33490  0.89420  Biso   1.000  C
  C78      1.0000 0.48570  0.66510  0.10580  Biso   1.000  C
  H61      1.0000 0.45350  0.36840  0.90020  Biso   1.000  H
  H62      1.0000 0.54650  0.63160  0.09980  Biso   1.000  H
  C79      1.0000 0.39510  0.25560  0.01320  Biso   1.000  C
  C80      1.0000 0.60490  0.74440  0.98680  Biso   1.000  C
  H63      1.0000 0.40140  0.27610  0.95180  Biso   1.000  H
  H64      1.0000 0.59860  0.72390  0.04820  Biso   1.000  H
  C81      1.0000 0.51670  0.15190  0.61870  Biso   1.000  C
  C82      1.0000 0.48330  0.84810  0.38130  Biso   1.000  C
  H65      1.0000 0.55460  0.07600  0.61490  Biso   1.000  H
  H66      1.0000 0.44540  0.92400  0.38510  Biso   1.000  H
  H67      1.0000 0.52150  0.17910  0.66120  Biso   1.000  H
  H68      1.0000 0.47850  0.82090  0.33880  Biso   1.000  H
  H69      1.0000 0.56940  0.12300  0.52590  Biso   1.000  H
  H70      1.0000 0.43060  0.87700  0.47410  Biso   1.000  H
  C83      1.0000 0.16160  0.37230  0.67470  Biso   1.000  C
  C84      1.0000 0.83840  0.62770  0.32530  Biso   1.000  C
  H71      1.0000 0.20150  0.36110  0.59040  Biso   1.000  H
  H72      1.0000 0.79850  0.63890  0.40960  Biso   1.000  H
  H73      1.0000 0.06230  0.45710  0.74220  Biso   1.000  H
  H74      1.0000 0.93770  0.54290  0.25780  Biso   1.000  H
  H75      1.0000 0.19870  0.29480  0.65540  Biso   1.000  H
  H76      1.0000 0.80130  0.70520  0.34460  Biso   1.000  H
  C85      1.0000 0.71260  0.11840  0.65250  Biso   1.000  C
  C86      1.0000 0.28740  0.88160  0.34750  Biso   1.000  C
  H77      1.0000 0.75690  0.11210  0.57550  Biso   1.000  H
  H78      1.0000 0.24310  0.88790  0.42450  Biso   1.000  H
  H79      1.0000 0.63740  0.16280  0.67930  Biso   1.000  H
  H80      1.0000 0.36260  0.83720  0.32070  Biso   1.000  H
  H81      1.0000 0.77920  0.02660  0.62560  Biso   1.000  H
  H82      1.0000 0.22080  0.97340  0.37440  Biso   1.000  H
  C87      1.0000 0.15030  0.51700  0.21380  Biso   1.000  C
  C88      1.0000 0.84970  0.48300  0.78620  Biso   1.000  C
  H83      1.0000 0.07140  0.55720  0.26700  Biso   1.000  H
  H84      1.0000 0.92860  0.44280  0.73300  Biso   1.000  H
  H85      1.0000 0.17220  0.52130  0.13830  Biso   1.000  H
  H86      1.0000 0.82780  0.47870  0.86170  Biso   1.000  H
  H87      1.0000 0.12890  0.56800  0.27280  Biso   1.000  H
  H88      1.0000 0.87110  0.43200  0.72720  Biso   1.000  H
