data_image0
_cell_length_a       13.9753
_cell_length_b       15.4428
_cell_length_c       10.9479
_cell_angle_alpha    90
_cell_angle_beta     93.261
_cell_angle_gamma    90

_symmetry_space_group_name_H-M    "P 1"
_symmetry_int_tables_number       1

loop_
  _symmetry_equiv_pos_as_xyz
  'x, y, z'

loop_
  _atom_site_label
  _atom_site_occupancy
  _atom_site_fract_x
  _atom_site_fract_y
  _atom_site_fract_z
  _atom_site_thermal_displace_type
  _atom_site_B_iso_or_equiv
  _atom_site_type_symbol
  Co1      1.0000 0.00000  0.07551  0.25000  Biso   1.000  Co
  Co2      1.0000 0.50000  0.57551  0.25000  Biso   1.000  Co
  Co3      1.0000 0.00000  0.92449  0.75000  Biso   1.000  Co
  Co4      1.0000 0.50000  0.42449  0.75000  Biso   1.000  Co
  Cu1      1.0000 0.25000  0.25000  0.00000  Biso   1.000  Cu
  Cu2      1.0000 0.75000  0.75000  0.00000  Biso   1.000  Cu
  Cu3      1.0000 0.75000  0.25000  0.50000  Biso   1.000  Cu
  Cu4      1.0000 0.25000  0.75000  0.50000  Biso   1.000  Cu
  O1       1.0000 0.90030  0.98220  0.19260  Biso   1.000  O
  O2       1.0000 0.40030  0.48220  0.19260  Biso   1.000  O
  O3       1.0000 0.09970  0.98220  0.30740  Biso   1.000  O
  O4       1.0000 0.59970  0.48220  0.30740  Biso   1.000  O
  O5       1.0000 0.09970  0.01780  0.80740  Biso   1.000  O
  O6       1.0000 0.59970  0.51780  0.80740  Biso   1.000  O
  O7       1.0000 0.90030  0.01780  0.69260  Biso   1.000  O
  O8       1.0000 0.40030  0.51780  0.69260  Biso   1.000  O
  O9       1.0000 0.09930  0.17530  0.27580  Biso   1.000  O
  O10      1.0000 0.59930  0.67530  0.27580  Biso   1.000  O
  O11      1.0000 0.90070  0.17530  0.22420  Biso   1.000  O
  O12      1.0000 0.40070  0.67530  0.22420  Biso   1.000  O
  O13      1.0000 0.90070  0.82470  0.72420  Biso   1.000  O
  O14      1.0000 0.40070  0.32470  0.72420  Biso   1.000  O
  O15      1.0000 0.09930  0.82470  0.77580  Biso   1.000  O
  O16      1.0000 0.59930  0.32470  0.77580  Biso   1.000  O
  O17      1.0000 0.05610  0.07930  0.07390  Biso   1.000  O
  O18      1.0000 0.55610  0.57930  0.07390  Biso   1.000  O
  O19      1.0000 0.94390  0.07930  0.42610  Biso   1.000  O
  O20      1.0000 0.44390  0.57930  0.42610  Biso   1.000  O
  O21      1.0000 0.94390  0.92070  0.92610  Biso   1.000  O
  O22      1.0000 0.44390  0.42070  0.92610  Biso   1.000  O
  O23      1.0000 0.05610  0.92070  0.57390  Biso   1.000  O
  O24      1.0000 0.55610  0.42070  0.57390  Biso   1.000  O
  O25      1.0000 0.16150  0.15270  0.97320  Biso   1.000  O
  O26      1.0000 0.66150  0.65270  0.97320  Biso   1.000  O
  O27      1.0000 0.83850  0.15270  0.52680  Biso   1.000  O
  O28      1.0000 0.33850  0.65270  0.52680  Biso   1.000  O
  O29      1.0000 0.83850  0.84730  0.02680  Biso   1.000  O
  O30      1.0000 0.33850  0.34730  0.02680  Biso   1.000  O
  O31      1.0000 0.16150  0.84730  0.47320  Biso   1.000  O
  O32      1.0000 0.66150  0.34730  0.47320  Biso   1.000  O
  N1       1.0000 0.20100  0.25470  0.16050  Biso   1.000  N
  N2       1.0000 0.70100  0.75470  0.16050  Biso   1.000  N
  N3       1.0000 0.79900  0.25470  0.33950  Biso   1.000  N
  N4       1.0000 0.29900  0.75470  0.33950  Biso   1.000  N
  N5       1.0000 0.79900  0.74530  0.83950  Biso   1.000  N
  N6       1.0000 0.29900  0.24530  0.83950  Biso   1.000  N
  N7       1.0000 0.20100  0.74530  0.66050  Biso   1.000  N
  N8       1.0000 0.70100  0.24530  0.66050  Biso   1.000  N
  C1       1.0000 0.14030  0.19260  0.18030  Biso   1.000  C
  C2       1.0000 0.64030  0.69260  0.18030  Biso   1.000  C
  C3       1.0000 0.85970  0.19260  0.31970  Biso   1.000  C
  C4       1.0000 0.35970  0.69260  0.31970  Biso   1.000  C
  C5       1.0000 0.85970  0.80740  0.81970  Biso   1.000  C
  C6       1.0000 0.35970  0.30740  0.81970  Biso   1.000  C
  C7       1.0000 0.14030  0.80740  0.68030  Biso   1.000  C
  C8       1.0000 0.64030  0.30740  0.68030  Biso   1.000  C
  C9       1.0000 0.11710  0.13650  0.06770  Biso   1.000  C
  C10      1.0000 0.61710  0.63650  0.06770  Biso   1.000  C
  C11      1.0000 0.88290  0.13650  0.43230  Biso   1.000  C
  C12      1.0000 0.38290  0.63650  0.43230  Biso   1.000  C
  C13      1.0000 0.88290  0.86350  0.93230  Biso   1.000  C
  C14      1.0000 0.38290  0.36350  0.93230  Biso   1.000  C
  C15      1.0000 0.11710  0.86350  0.56770  Biso   1.000  C
  C16      1.0000 0.61710  0.36350  0.56770  Biso   1.000  C
  C17      1.0000 0.22000  0.31960  0.25410  Biso   1.000  C
  C18      1.0000 0.72000  0.81960  0.25410  Biso   1.000  C
  C19      1.0000 0.78000  0.31960  0.24590  Biso   1.000  C
  C20      1.0000 0.28000  0.81960  0.24590  Biso   1.000  C
  C21      1.0000 0.78000  0.68040  0.74590  Biso   1.000  C
  C22      1.0000 0.28000  0.18040  0.74590  Biso   1.000  C
  C23      1.0000 0.22000  0.68040  0.75410  Biso   1.000  C
  C24      1.0000 0.72000  0.18040  0.75410  Biso   1.000  C
  C25      1.0000 0.16670  0.39510  0.24560  Biso   1.000  C
  C26      1.0000 0.66670  0.89510  0.24560  Biso   1.000  C
  C27      1.0000 0.83330  0.39510  0.25440  Biso   1.000  C
  C28      1.0000 0.33330  0.89510  0.25440  Biso   1.000  C
  C29      1.0000 0.83330  0.60490  0.75440  Biso   1.000  C
  C30      1.0000 0.33330  0.10490  0.75440  Biso   1.000  C
  C31      1.0000 0.16670  0.60490  0.74560  Biso   1.000  C
  C32      1.0000 0.66670  0.10490  0.74560  Biso   1.000  C
  C33      1.0000 0.18480  0.45710  0.33830  Biso   1.000  C
  C34      1.0000 0.68480  0.95710  0.33830  Biso   1.000  C
  C35      1.0000 0.81520  0.45710  0.16170  Biso   1.000  C
  C36      1.0000 0.31520  0.95710  0.16170  Biso   1.000  C
  C37      1.0000 0.81520  0.54290  0.66170  Biso   1.000  C
  C38      1.0000 0.31520  0.04290  0.66170  Biso   1.000  C
  C39      1.0000 0.18480  0.54290  0.83830  Biso   1.000  C
  C40      1.0000 0.68480  0.04290  0.83830  Biso   1.000  C
  H1       1.0000 0.15010  0.50850  0.33830  Biso   1.000  H
  H2       1.0000 0.65010  0.00850  0.33830  Biso   1.000  H
  H3       1.0000 0.84990  0.50850  0.16170  Biso   1.000  H
  H4       1.0000 0.34990  0.00850  0.16170  Biso   1.000  H
  H5       1.0000 0.84990  0.49150  0.66170  Biso   1.000  H
  H6       1.0000 0.34990  0.99150  0.66170  Biso   1.000  H
  H7       1.0000 0.15010  0.49150  0.83830  Biso   1.000  H
  H8       1.0000 0.65010  0.99150  0.83830  Biso   1.000  H
  C41      1.0000 0.25310  0.44080  0.42700  Biso   1.000  C
  C42      1.0000 0.75310  0.94080  0.42700  Biso   1.000  C
  C43      1.0000 0.74690  0.44080  0.07300  Biso   1.000  C
  C44      1.0000 0.24690  0.94080  0.07300  Biso   1.000  C
  C45      1.0000 0.74690  0.55920  0.57300  Biso   1.000  C
  C46      1.0000 0.24690  0.05920  0.57300  Biso   1.000  C
  C47      1.0000 0.25310  0.55920  0.92700  Biso   1.000  C
  C48      1.0000 0.75310  0.05920  0.92700  Biso   1.000  C
  H9       1.0000 0.26250  0.48210  0.48830  Biso   1.000  H
  H10      1.0000 0.76250  0.98210  0.48830  Biso   1.000  H
  H11      1.0000 0.73750  0.48210  0.01170  Biso   1.000  H
  H12      1.0000 0.23750  0.98210  0.01170  Biso   1.000  H
  H13      1.0000 0.73750  0.51790  0.51170  Biso   1.000  H
  H14      1.0000 0.23750  0.01790  0.51170  Biso   1.000  H
  H15      1.0000 0.26250  0.51790  0.98830  Biso   1.000  H
  H16      1.0000 0.76250  0.01790  0.98830  Biso   1.000  H
  C49      1.0000 0.30950  0.36920  0.43480  Biso   1.000  C
  C50      1.0000 0.80950  0.86920  0.43480  Biso   1.000  C
  C51      1.0000 0.69050  0.36920  0.06520  Biso   1.000  C
  C52      1.0000 0.19050  0.86920  0.06520  Biso   1.000  C
  C53      1.0000 0.69050  0.63080  0.56520  Biso   1.000  C
  C54      1.0000 0.19050  0.13080  0.56520  Biso   1.000  C
  C55      1.0000 0.30950  0.63080  0.93480  Biso   1.000  C
  C56      1.0000 0.80950  0.13080  0.93480  Biso   1.000  C
  H17      1.0000 0.35770  0.36320  0.49650  Biso   1.000  H
  H18      1.0000 0.85770  0.86320  0.49650  Biso   1.000  H
  H19      1.0000 0.64230  0.36320  0.00350  Biso   1.000  H
  H20      1.0000 0.14230  0.86320  0.00350  Biso   1.000  H
  H21      1.0000 0.64230  0.63680  0.50350  Biso   1.000  H
  H22      1.0000 0.14230  0.13680  0.50350  Biso   1.000  H
  H23      1.0000 0.35770  0.63680  0.99650  Biso   1.000  H
  H24      1.0000 0.85770  0.13680  0.99650  Biso   1.000  H
  C57      1.0000 0.29180  0.30310  0.34410  Biso   1.000  C
  C58      1.0000 0.79180  0.80310  0.34410  Biso   1.000  C
  C59      1.0000 0.70820  0.30310  0.15590  Biso   1.000  C
  C60      1.0000 0.20820  0.80310  0.15590  Biso   1.000  C
  C61      1.0000 0.70820  0.69690  0.65590  Biso   1.000  C
  C62      1.0000 0.20820  0.19690  0.65590  Biso   1.000  C
  C63      1.0000 0.29180  0.69690  0.84410  Biso   1.000  C
  C64      1.0000 0.79180  0.19690  0.84410  Biso   1.000  C
  C65      1.0000 0.09520  0.41060  0.14450  Biso   1.000  C
  C66      1.0000 0.59520  0.91060  0.14450  Biso   1.000  C
  C67      1.0000 0.90480  0.41060  0.35550  Biso   1.000  C
  C68      1.0000 0.40480  0.91060  0.35550  Biso   1.000  C
  C69      1.0000 0.90480  0.58940  0.85550  Biso   1.000  C
  C70      1.0000 0.40480  0.08940  0.85550  Biso   1.000  C
  C71      1.0000 0.09520  0.58940  0.64450  Biso   1.000  C
  C72      1.0000 0.59520  0.08940  0.64450  Biso   1.000  C
  H25      1.0000 0.06610  0.46620  0.15470  Biso   1.000  H
  H26      1.0000 0.56610  0.96620  0.15470  Biso   1.000  H
  H27      1.0000 0.93390  0.46620  0.34530  Biso   1.000  H
  H28      1.0000 0.43390  0.96620  0.34530  Biso   1.000  H
  H29      1.0000 0.93390  0.53380  0.84530  Biso   1.000  H
  H30      1.0000 0.43390  0.03380  0.84530  Biso   1.000  H
  H31      1.0000 0.06610  0.53380  0.65470  Biso   1.000  H
  H32      1.0000 0.56610  0.03380  0.65470  Biso   1.000  H
  H33      1.0000 0.04690  0.36640  0.14440  Biso   1.000  H
  H34      1.0000 0.54690  0.86640  0.14440  Biso   1.000  H
  H35      1.0000 0.95310  0.36640  0.35560  Biso   1.000  H
  H36      1.0000 0.45310  0.86640  0.35560  Biso   1.000  H
  H37      1.0000 0.95310  0.63360  0.85560  Biso   1.000  H
  H38      1.0000 0.45310  0.13360  0.85560  Biso   1.000  H
  H39      1.0000 0.04690  0.63360  0.64440  Biso   1.000  H
  H40      1.0000 0.54690  0.13360  0.64440  Biso   1.000  H
  H41      1.0000 0.12590  0.40930  0.06830  Biso   1.000  H
  H42      1.0000 0.62590  0.90930  0.06830  Biso   1.000  H
  H43      1.0000 0.87410  0.40930  0.43170  Biso   1.000  H
  H44      1.0000 0.37410  0.90930  0.43170  Biso   1.000  H
  H45      1.0000 0.87410  0.59070  0.93170  Biso   1.000  H
  H46      1.0000 0.37410  0.09070  0.93170  Biso   1.000  H
  H47      1.0000 0.12590  0.59070  0.56830  Biso   1.000  H
  H48      1.0000 0.62590  0.09070  0.56830  Biso   1.000  H
  C73      1.0000 0.35060  0.22520  0.34760  Biso   1.000  C
  C74      1.0000 0.85060  0.72520  0.34760  Biso   1.000  C
  C75      1.0000 0.64940  0.22520  0.15240  Biso   1.000  C
  C76      1.0000 0.14940  0.72520  0.15240  Biso   1.000  C
  C77      1.0000 0.64940  0.77480  0.65240  Biso   1.000  C
  C78      1.0000 0.14940  0.27480  0.65240  Biso   1.000  C
  C79      1.0000 0.35060  0.77480  0.84760  Biso   1.000  C
  C80      1.0000 0.85060  0.27480  0.84760  Biso   1.000  C
  H49      1.0000 0.39560  0.22750  0.41710  Biso   1.000  H
  H50      1.0000 0.89560  0.72750  0.41710  Biso   1.000  H
  H51      1.0000 0.60440  0.22750  0.08290  Biso   1.000  H
  H52      1.0000 0.10440  0.72750  0.08290  Biso   1.000  H
  H53      1.0000 0.60440  0.77250  0.58290  Biso   1.000  H
  H54      1.0000 0.10440  0.27250  0.58290  Biso   1.000  H
  H55      1.0000 0.39560  0.77250  0.91710  Biso   1.000  H
  H56      1.0000 0.89560  0.27250  0.91710  Biso   1.000  H
  H57      1.0000 0.38460  0.22140  0.27400  Biso   1.000  H
  H58      1.0000 0.88460  0.72140  0.27400  Biso   1.000  H
  H59      1.0000 0.61540  0.22140  0.22600  Biso   1.000  H
  H60      1.0000 0.11540  0.72140  0.22600  Biso   1.000  H
  H61      1.0000 0.61540  0.77860  0.72600  Biso   1.000  H
  H62      1.0000 0.11540  0.27860  0.72600  Biso   1.000  H
  H63      1.0000 0.38460  0.77860  0.77400  Biso   1.000  H
  H64      1.0000 0.88460  0.27860  0.77400  Biso   1.000  H
  H65      1.0000 0.31030  0.17520  0.35400  Biso   1.000  H
  H66      1.0000 0.81030  0.67520  0.35400  Biso   1.000  H
  H67      1.0000 0.68970  0.17520  0.14600  Biso   1.000  H
  H68      1.0000 0.18970  0.67520  0.14600  Biso   1.000  H
  H69      1.0000 0.68970  0.82480  0.64600  Biso   1.000  H
  H70      1.0000 0.18970  0.32480  0.64600  Biso   1.000  H
  H71      1.0000 0.31030  0.82480  0.85400  Biso   1.000  H
  H72      1.0000 0.81030  0.32480  0.85400  Biso   1.000  H
