data_image0
_cell_length_a       16.1603
_cell_length_b       14.9216
_cell_length_c       30.305
_cell_angle_alpha    90
_cell_angle_beta     90
_cell_angle_gamma    90

_symmetry_space_group_name_H-M    "P 1"
_symmetry_int_tables_number       1

loop_
  _symmetry_equiv_pos_as_xyz
  'x, y, z'

loop_
  _atom_site_label
  _atom_site_occupancy
  _atom_site_fract_x
  _atom_site_fract_y
  _atom_site_fract_z
  _atom_site_thermal_displace_type
  _atom_site_B_iso_or_equiv
  _atom_site_type_symbol
  Cu1      1.0000 0.60520  0.19621  0.12283  Biso   1.000  Cu
  Cu2      1.0000 0.89480  0.80379  0.62283  Biso   1.000  Cu
  Cu3      1.0000 0.10520  0.30379  0.87717  Biso   1.000  Cu
  Cu4      1.0000 0.39480  0.69621  0.37717  Biso   1.000  Cu
  Cu5      1.0000 0.39480  0.80379  0.87717  Biso   1.000  Cu
  Cu6      1.0000 0.10520  0.19621  0.37717  Biso   1.000  Cu
  Cu7      1.0000 0.89480  0.69621  0.12283  Biso   1.000  Cu
  Cu8      1.0000 0.60520  0.30379  0.62283  Biso   1.000  Cu
  O1       1.0000 0.59417  0.04249  0.11789  Biso   1.000  O
  O2       1.0000 0.90583  0.95751  0.61789  Biso   1.000  O
  O3       1.0000 0.09417  0.45751  0.88211  Biso   1.000  O
  O4       1.0000 0.40583  0.54249  0.38211  Biso   1.000  O
  O5       1.0000 0.40583  0.95751  0.88211  Biso   1.000  O
  O6       1.0000 0.09417  0.04249  0.38211  Biso   1.000  O
  O7       1.0000 0.90583  0.54249  0.11789  Biso   1.000  O
  O8       1.0000 0.59417  0.45751  0.61789  Biso   1.000  O
  N1       1.0000 0.51924  0.22553  0.07609  Biso   1.000  N
  N2       1.0000 0.98076  0.77447  0.57609  Biso   1.000  N
  N3       1.0000 0.01924  0.27447  0.92391  Biso   1.000  N
  N4       1.0000 0.48076  0.72553  0.42391  Biso   1.000  N
  N5       1.0000 0.48076  0.77447  0.92391  Biso   1.000  N
  N6       1.0000 0.01924  0.22553  0.42391  Biso   1.000  N
  N7       1.0000 0.98076  0.72553  0.07609  Biso   1.000  N
  N8       1.0000 0.51924  0.27447  0.57609  Biso   1.000  N
  N9       1.0000 0.19578  0.28762  0.92237  Biso   1.000  N
  N10      1.0000 0.30422  0.71238  0.42237  Biso   1.000  N
  N11      1.0000 0.69578  0.21238  0.07763  Biso   1.000  N
  N12      1.0000 0.80422  0.78762  0.57763  Biso   1.000  N
  N13      1.0000 0.80422  0.71238  0.07763  Biso   1.000  N
  N14      1.0000 0.69578  0.28762  0.57763  Biso   1.000  N
  N15      1.0000 0.30422  0.78762  0.92237  Biso   1.000  N
  N16      1.0000 0.19578  0.21238  0.42237  Biso   1.000  N
  N17      1.0000 0.51440  0.19131  0.16930  Biso   1.000  N
  N18      1.0000 0.98560  0.80869  0.66930  Biso   1.000  N
  N19      1.0000 0.01440  0.30869  0.83070  Biso   1.000  N
  N20      1.0000 0.48560  0.69131  0.33070  Biso   1.000  N
  N21      1.0000 0.48560  0.80869  0.83070  Biso   1.000  N
  N22      1.0000 0.01440  0.19131  0.33070  Biso   1.000  N
  N23      1.0000 0.98560  0.69131  0.16930  Biso   1.000  N
  N24      1.0000 0.51440  0.30869  0.66930  Biso   1.000  N
  N25      1.0000 0.19461  0.19140  0.32954  Biso   1.000  N
  N26      1.0000 0.30539  0.80860  0.82954  Biso   1.000  N
  N27      1.0000 0.69461  0.30860  0.67046  Biso   1.000  N
  N28      1.0000 0.80539  0.69140  0.17046  Biso   1.000  N
  N29      1.0000 0.80539  0.80860  0.67046  Biso   1.000  N
  N30      1.0000 0.69461  0.19140  0.17046  Biso   1.000  N
  N31      1.0000 0.30539  0.69140  0.32954  Biso   1.000  N
  N32      1.0000 0.19461  0.30860  0.82954  Biso   1.000  N
  C1       1.0000 0.46587  0.29370  0.08023  Biso   1.000  C
  C2       1.0000 0.03413  0.70630  0.58023  Biso   1.000  C
  C3       1.0000 0.96587  0.20630  0.91977  Biso   1.000  C
  C4       1.0000 0.53413  0.79370  0.41977  Biso   1.000  C
  C5       1.0000 0.53413  0.70630  0.91977  Biso   1.000  C
  C6       1.0000 0.96587  0.29370  0.41977  Biso   1.000  C
  C7       1.0000 0.03413  0.79370  0.08023  Biso   1.000  C
  C8       1.0000 0.46587  0.20630  0.58023  Biso   1.000  C
  C9       1.0000 0.40360  0.31010  0.04980  Biso   1.000  C
  C10      1.0000 0.09640  0.68990  0.54980  Biso   1.000  C
  C11      1.0000 0.90360  0.18990  0.95020  Biso   1.000  C
  C12      1.0000 0.59640  0.81010  0.45020  Biso   1.000  C
  C13      1.0000 0.59640  0.68990  0.95020  Biso   1.000  C
  C14      1.0000 0.90360  0.31010  0.45020  Biso   1.000  C
  C15      1.0000 0.09640  0.81010  0.04980  Biso   1.000  C
  C16      1.0000 0.40360  0.18990  0.54980  Biso   1.000  C
  C17      1.0000 0.39452  0.25280  0.01391  Biso   1.000  C
  C18      1.0000 0.10548  0.74720  0.51391  Biso   1.000  C
  C19      1.0000 0.89452  0.24720  0.98609  Biso   1.000  C
  C20      1.0000 0.60548  0.75280  0.48609  Biso   1.000  C
  C21      1.0000 0.60548  0.74720  0.98609  Biso   1.000  C
  C22      1.0000 0.89452  0.25280  0.48609  Biso   1.000  C
  C23      1.0000 0.10548  0.75280  0.01391  Biso   1.000  C
  C24      1.0000 0.39452  0.24720  0.51391  Biso   1.000  C
  C25      1.0000 0.45080  0.18360  0.00947  Biso   1.000  C
  C26      1.0000 0.04920  0.81640  0.50947  Biso   1.000  C
  C27      1.0000 0.95080  0.31640  0.99053  Biso   1.000  C
  C28      1.0000 0.54920  0.68360  0.49053  Biso   1.000  C
  C29      1.0000 0.54920  0.81640  0.99053  Biso   1.000  C
  C30      1.0000 0.95080  0.18360  0.49053  Biso   1.000  C
  C31      1.0000 0.04920  0.68360  0.00947  Biso   1.000  C
  C32      1.0000 0.45080  0.31640  0.50947  Biso   1.000  C
  C33      1.0000 0.51229  0.17240  0.04066  Biso   1.000  C
  C34      1.0000 0.98771  0.82760  0.54066  Biso   1.000  C
  C35      1.0000 0.01229  0.32760  0.95934  Biso   1.000  C
  C36      1.0000 0.48771  0.67240  0.45934  Biso   1.000  C
  C37      1.0000 0.48771  0.82760  0.95934  Biso   1.000  C
  C38      1.0000 0.01229  0.17240  0.45934  Biso   1.000  C
  C39      1.0000 0.98771  0.67240  0.04066  Biso   1.000  C
  C40      1.0000 0.51229  0.32760  0.54066  Biso   1.000  C
  C41      1.0000 0.20277  0.21220  0.94625  Biso   1.000  C
  C42      1.0000 0.29723  0.78780  0.44625  Biso   1.000  C
  C43      1.0000 0.70277  0.28780  0.05375  Biso   1.000  C
  C44      1.0000 0.79723  0.71220  0.55375  Biso   1.000  C
  C45      1.0000 0.79723  0.78780  0.05375  Biso   1.000  C
  C46      1.0000 0.70277  0.21220  0.55375  Biso   1.000  C
  C47      1.0000 0.29723  0.71220  0.94625  Biso   1.000  C
  C48      1.0000 0.20277  0.28780  0.44625  Biso   1.000  C
  C49      1.0000 0.26730  0.19820  0.97547  Biso   1.000  C
  C50      1.0000 0.23270  0.80180  0.47547  Biso   1.000  C
  C51      1.0000 0.76730  0.30180  0.02453  Biso   1.000  C
  C52      1.0000 0.73270  0.69820  0.52453  Biso   1.000  C
  C53      1.0000 0.73270  0.80180  0.02453  Biso   1.000  C
  C54      1.0000 0.76730  0.19820  0.52453  Biso   1.000  C
  C55      1.0000 0.23270  0.69820  0.97547  Biso   1.000  C
  C56      1.0000 0.26730  0.30180  0.47547  Biso   1.000  C
  C57      1.0000 0.32577  0.26530  0.98181  Biso   1.000  C
  C58      1.0000 0.17423  0.73470  0.48181  Biso   1.000  C
  C59      1.0000 0.82577  0.23470  0.01819  Biso   1.000  C
  C60      1.0000 0.67423  0.76530  0.51819  Biso   1.000  C
  C61      1.0000 0.67423  0.73470  0.01819  Biso   1.000  C
  C62      1.0000 0.82577  0.26530  0.51819  Biso   1.000  C
  C63      1.0000 0.17423  0.76530  0.98181  Biso   1.000  C
  C64      1.0000 0.32577  0.23470  0.48181  Biso   1.000  C
  C65      1.0000 0.31790  0.34390  0.95760  Biso   1.000  C
  C66      1.0000 0.18210  0.65610  0.45760  Biso   1.000  C
  C67      1.0000 0.81790  0.15610  0.04240  Biso   1.000  C
  C68      1.0000 0.68210  0.84390  0.54240  Biso   1.000  C
  C69      1.0000 0.68210  0.65610  0.04240  Biso   1.000  C
  C70      1.0000 0.81790  0.34390  0.54240  Biso   1.000  C
  C71      1.0000 0.18210  0.84390  0.95760  Biso   1.000  C
  C72      1.0000 0.31790  0.15610  0.45760  Biso   1.000  C
  C73      1.0000 0.25306  0.35210  0.92780  Biso   1.000  C
  C74      1.0000 0.24694  0.64790  0.42780  Biso   1.000  C
  C75      1.0000 0.75306  0.14790  0.07220  Biso   1.000  C
  C76      1.0000 0.74694  0.85210  0.57220  Biso   1.000  C
  C77      1.0000 0.74694  0.64790  0.07220  Biso   1.000  C
  C78      1.0000 0.75306  0.35210  0.57220  Biso   1.000  C
  C79      1.0000 0.24694  0.85210  0.92780  Biso   1.000  C
  C80      1.0000 0.25306  0.14790  0.42780  Biso   1.000  C
  C81      1.0000 0.52204  0.23400  0.20789  Biso   1.000  C
  C82      1.0000 0.97796  0.76600  0.70789  Biso   1.000  C
  C83      1.0000 0.02204  0.26600  0.79211  Biso   1.000  C
  C84      1.0000 0.47796  0.73400  0.29211  Biso   1.000  C
  C85      1.0000 0.47796  0.76600  0.79211  Biso   1.000  C
  C86      1.0000 0.02204  0.23400  0.29211  Biso   1.000  C
  C87      1.0000 0.97796  0.73400  0.20789  Biso   1.000  C
  C88      1.0000 0.52204  0.26600  0.70789  Biso   1.000  C
  C89      1.0000 0.46005  0.23420  0.23958  Biso   1.000  C
  C90      1.0000 0.03995  0.76580  0.73958  Biso   1.000  C
  C91      1.0000 0.96005  0.26580  0.76042  Biso   1.000  C
  C92      1.0000 0.53995  0.73420  0.26042  Biso   1.000  C
  C93      1.0000 0.53995  0.76580  0.76042  Biso   1.000  C
  C94      1.0000 0.96005  0.23420  0.26042  Biso   1.000  C
  C95      1.0000 0.03995  0.73420  0.23958  Biso   1.000  C
  C96      1.0000 0.46005  0.26580  0.73958  Biso   1.000  C
  C97      1.0000 0.38582  0.18967  0.23148  Biso   1.000  C
  C98      1.0000 0.11418  0.81033  0.73148  Biso   1.000  C
  C99      1.0000 0.88582  0.31033  0.76852  Biso   1.000  C
  C100     1.0000 0.61418  0.68967  0.26852  Biso   1.000  C
  C101     1.0000 0.61418  0.81033  0.76852  Biso   1.000  C
  C102     1.0000 0.88582  0.18967  0.26852  Biso   1.000  C
  C103     1.0000 0.11418  0.68967  0.23148  Biso   1.000  C
  C104     1.0000 0.38582  0.31033  0.73148  Biso   1.000  C
  C105     1.0000 0.37799  0.14510  0.19119  Biso   1.000  C
  C106     1.0000 0.12201  0.85490  0.69119  Biso   1.000  C
  C107     1.0000 0.87799  0.35490  0.80881  Biso   1.000  C
  C108     1.0000 0.62201  0.64510  0.30881  Biso   1.000  C
  C109     1.0000 0.62201  0.85490  0.80881  Biso   1.000  C
  C110     1.0000 0.87799  0.14510  0.30881  Biso   1.000  C
  C111     1.0000 0.12201  0.64510  0.19119  Biso   1.000  C
  C112     1.0000 0.37799  0.35490  0.69119  Biso   1.000  C
  C113     1.0000 0.44315  0.14740  0.16133  Biso   1.000  C
  C114     1.0000 0.05685  0.85260  0.66133  Biso   1.000  C
  C115     1.0000 0.94315  0.35260  0.83867  Biso   1.000  C
  C116     1.0000 0.55685  0.64740  0.33867  Biso   1.000  C
  C117     1.0000 0.55685  0.85260  0.83867  Biso   1.000  C
  C118     1.0000 0.94315  0.14740  0.33867  Biso   1.000  C
  C119     1.0000 0.05685  0.64740  0.16133  Biso   1.000  C
  C120     1.0000 0.44315  0.35260  0.66133  Biso   1.000  C
  C121     1.0000 0.20151  0.12340  0.30080  Biso   1.000  C
  C122     1.0000 0.29849  0.87660  0.80080  Biso   1.000  C
  C123     1.0000 0.70151  0.37660  0.69920  Biso   1.000  C
  C124     1.0000 0.79849  0.62340  0.19920  Biso   1.000  C
  C125     1.0000 0.79849  0.87660  0.69920  Biso   1.000  C
  C126     1.0000 0.70151  0.12340  0.19920  Biso   1.000  C
  C127     1.0000 0.29849  0.62340  0.30080  Biso   1.000  C
  C128     1.0000 0.20151  0.37660  0.80080  Biso   1.000  C
  C129     1.0000 0.26164  0.12080  0.26814  Biso   1.000  C
  C130     1.0000 0.23836  0.87920  0.76814  Biso   1.000  C
  C131     1.0000 0.76164  0.37920  0.73186  Biso   1.000  C
  C132     1.0000 0.73836  0.62080  0.23186  Biso   1.000  C
  C133     1.0000 0.73836  0.87920  0.73186  Biso   1.000  C
  C134     1.0000 0.76164  0.12080  0.23186  Biso   1.000  C
  C135     1.0000 0.23836  0.62080  0.26814  Biso   1.000  C
  C136     1.0000 0.26164  0.37920  0.76814  Biso   1.000  C
  C137     1.0000 0.31851  0.19042  0.26483  Biso   1.000  C
  C138     1.0000 0.18149  0.80958  0.76483  Biso   1.000  C
  C139     1.0000 0.81851  0.30958  0.73517  Biso   1.000  C
  C140     1.0000 0.68149  0.69042  0.23517  Biso   1.000  C
  C141     1.0000 0.68149  0.80958  0.73517  Biso   1.000  C
  C142     1.0000 0.81851  0.19042  0.23517  Biso   1.000  C
  C143     1.0000 0.18149  0.69042  0.26483  Biso   1.000  C
  C144     1.0000 0.31851  0.30958  0.76483  Biso   1.000  C
  C145     1.0000 0.31112  0.26120  0.29457  Biso   1.000  C
  C146     1.0000 0.18888  0.73880  0.79457  Biso   1.000  C
  C147     1.0000 0.81112  0.23880  0.70543  Biso   1.000  C
  C148     1.0000 0.68888  0.76120  0.20543  Biso   1.000  C
  C149     1.0000 0.68888  0.73880  0.70543  Biso   1.000  C
  C150     1.0000 0.81112  0.26120  0.20543  Biso   1.000  C
  C151     1.0000 0.18888  0.76120  0.29457  Biso   1.000  C
  C152     1.0000 0.31112  0.23880  0.79457  Biso   1.000  C
  C153     1.0000 0.24929  0.25910  0.32631  Biso   1.000  C
  C154     1.0000 0.25071  0.74090  0.82631  Biso   1.000  C
  C155     1.0000 0.74929  0.24090  0.67369  Biso   1.000  C
  C156     1.0000 0.75071  0.75910  0.17369  Biso   1.000  C
  C157     1.0000 0.75071  0.74090  0.67369  Biso   1.000  C
  C158     1.0000 0.74929  0.25910  0.17369  Biso   1.000  C
  C159     1.0000 0.25071  0.75910  0.32631  Biso   1.000  C
  C160     1.0000 0.24929  0.24090  0.82631  Biso   1.000  C
  C161     1.0000 0.61160  0.97180  0.08771  Biso   1.000  C
  C162     1.0000 0.88840  0.02820  0.58771  Biso   1.000  C
  C163     1.0000 0.11160  0.52820  0.91229  Biso   1.000  C
  C164     1.0000 0.38840  0.47180  0.41229  Biso   1.000  C
  C165     1.0000 0.38840  0.02820  0.91229  Biso   1.000  C
  C166     1.0000 0.11160  0.97180  0.41229  Biso   1.000  C
  C167     1.0000 0.88840  0.47180  0.08771  Biso   1.000  C
  C168     1.0000 0.61160  0.52820  0.58771  Biso   1.000  C
  H1       1.0000 0.47080  0.33230  0.10500  Biso   1.000  H
  H2       1.0000 0.02920  0.66770  0.60500  Biso   1.000  H
  H3       1.0000 0.97080  0.16770  0.89500  Biso   1.000  H
  H4       1.0000 0.52920  0.83230  0.39500  Biso   1.000  H
  H5       1.0000 0.52920  0.66770  0.89500  Biso   1.000  H
  H6       1.0000 0.97080  0.33230  0.39500  Biso   1.000  H
  H7       1.0000 0.02920  0.83230  0.10500  Biso   1.000  H
  H8       1.0000 0.47080  0.16770  0.60500  Biso   1.000  H
  H9       1.0000 0.36760  0.35980  0.05340  Biso   1.000  H
  H10      1.0000 0.13240  0.64020  0.55340  Biso   1.000  H
  H11      1.0000 0.86760  0.14020  0.94660  Biso   1.000  H
  H12      1.0000 0.63240  0.85980  0.44660  Biso   1.000  H
  H13      1.0000 0.63240  0.64020  0.94660  Biso   1.000  H
  H14      1.0000 0.86760  0.35980  0.44660  Biso   1.000  H
  H15      1.0000 0.13240  0.85980  0.05340  Biso   1.000  H
  H16      1.0000 0.36760  0.14020  0.55340  Biso   1.000  H
  H17      1.0000 0.44720  0.14390  0.98500  Biso   1.000  H
  H18      1.0000 0.05280  0.85610  0.48500  Biso   1.000  H
  H19      1.0000 0.94720  0.35610  0.01500  Biso   1.000  H
  H20      1.0000 0.55280  0.64390  0.51500  Biso   1.000  H
  H21      1.0000 0.55280  0.85610  0.01500  Biso   1.000  H
  H22      1.0000 0.94720  0.14390  0.51500  Biso   1.000  H
  H23      1.0000 0.05280  0.64390  0.98500  Biso   1.000  H
  H24      1.0000 0.44720  0.35610  0.48500  Biso   1.000  H
  H25      1.0000 0.55110  0.12530  0.03680  Biso   1.000  H
  H26      1.0000 0.94890  0.87470  0.53680  Biso   1.000  H
  H27      1.0000 0.05110  0.37470  0.96320  Biso   1.000  H
  H28      1.0000 0.44890  0.62530  0.46320  Biso   1.000  H
  H29      1.0000 0.44890  0.87470  0.96320  Biso   1.000  H
  H30      1.0000 0.05110  0.12530  0.46320  Biso   1.000  H
  H31      1.0000 0.94890  0.62530  0.03680  Biso   1.000  H
  H32      1.0000 0.55110  0.37470  0.53680  Biso   1.000  H
  H33      1.0000 0.16200  0.16690  0.94300  Biso   1.000  H
  H34      1.0000 0.33800  0.83310  0.44300  Biso   1.000  H
  H35      1.0000 0.66200  0.33310  0.05700  Biso   1.000  H
  H36      1.0000 0.83800  0.66690  0.55700  Biso   1.000  H
  H37      1.0000 0.83800  0.83310  0.05700  Biso   1.000  H
  H38      1.0000 0.66200  0.16690  0.55700  Biso   1.000  H
  H39      1.0000 0.33800  0.66690  0.94300  Biso   1.000  H
  H40      1.0000 0.16200  0.33310  0.44300  Biso   1.000  H
  H41      1.0000 0.27160  0.14320  0.99110  Biso   1.000  H
  H42      1.0000 0.22840  0.85680  0.49110  Biso   1.000  H
  H43      1.0000 0.77160  0.35680  0.00890  Biso   1.000  H
  H44      1.0000 0.72840  0.64320  0.50890  Biso   1.000  H
  H45      1.0000 0.72840  0.85680  0.00890  Biso   1.000  H
  H46      1.0000 0.77160  0.14320  0.50890  Biso   1.000  H
  H47      1.0000 0.22840  0.64320  0.99110  Biso   1.000  H
  H48      1.0000 0.27160  0.35680  0.49110  Biso   1.000  H
  H49      1.0000 0.35640  0.39140  0.96140  Biso   1.000  H
  H50      1.0000 0.14360  0.60860  0.46140  Biso   1.000  H
  H51      1.0000 0.85640  0.10860  0.03860  Biso   1.000  H
  H52      1.0000 0.64360  0.89140  0.53860  Biso   1.000  H
  H53      1.0000 0.64360  0.60860  0.03860  Biso   1.000  H
  H54      1.0000 0.85640  0.39140  0.53860  Biso   1.000  H
  H55      1.0000 0.14360  0.89140  0.96140  Biso   1.000  H
  H56      1.0000 0.35640  0.10860  0.46140  Biso   1.000  H
  H57      1.0000 0.24900  0.40510  0.91060  Biso   1.000  H
  H58      1.0000 0.25100  0.59490  0.41060  Biso   1.000  H
  H59      1.0000 0.74900  0.09490  0.08940  Biso   1.000  H
  H60      1.0000 0.75100  0.90510  0.58940  Biso   1.000  H
  H61      1.0000 0.75100  0.59490  0.08940  Biso   1.000  H
  H62      1.0000 0.74900  0.40510  0.58940  Biso   1.000  H
  H63      1.0000 0.25100  0.90510  0.91060  Biso   1.000  H
  H64      1.0000 0.24900  0.09490  0.41060  Biso   1.000  H
  H65      1.0000 0.57190  0.26550  0.21390  Biso   1.000  H
  H66      1.0000 0.92810  0.73450  0.71390  Biso   1.000  H
  H67      1.0000 0.07190  0.23450  0.78610  Biso   1.000  H
  H68      1.0000 0.42810  0.76550  0.28610  Biso   1.000  H
  H69      1.0000 0.42810  0.73450  0.78610  Biso   1.000  H
  H70      1.0000 0.07190  0.26550  0.28610  Biso   1.000  H
  H71      1.0000 0.92810  0.76550  0.21390  Biso   1.000  H
  H72      1.0000 0.57190  0.23450  0.71390  Biso   1.000  H
  H73      1.0000 0.46820  0.26470  0.26680  Biso   1.000  H
  H74      1.0000 0.03180  0.73530  0.76680  Biso   1.000  H
  H75      1.0000 0.96820  0.23530  0.73320  Biso   1.000  H
  H76      1.0000 0.53180  0.76470  0.23320  Biso   1.000  H
  H77      1.0000 0.53180  0.73530  0.73320  Biso   1.000  H
  H78      1.0000 0.96820  0.26470  0.23320  Biso   1.000  H
  H79      1.0000 0.03180  0.76470  0.26680  Biso   1.000  H
  H80      1.0000 0.46820  0.23530  0.76680  Biso   1.000  H
  H81      1.0000 0.32860  0.11360  0.18430  Biso   1.000  H
  H82      1.0000 0.17140  0.88640  0.68430  Biso   1.000  H
  H83      1.0000 0.82860  0.38640  0.81570  Biso   1.000  H
  H84      1.0000 0.67140  0.61360  0.31570  Biso   1.000  H
  H85      1.0000 0.67140  0.88640  0.81570  Biso   1.000  H
  H86      1.0000 0.82860  0.11360  0.31570  Biso   1.000  H
  H87      1.0000 0.17140  0.61360  0.18430  Biso   1.000  H
  H88      1.0000 0.32860  0.38640  0.68430  Biso   1.000  H
  H89      1.0000 0.43720  0.11660  0.13410  Biso   1.000  H
  H90      1.0000 0.06280  0.88340  0.63410  Biso   1.000  H
  H91      1.0000 0.93720  0.38340  0.86590  Biso   1.000  H
  H92      1.0000 0.56280  0.61660  0.36590  Biso   1.000  H
  H93      1.0000 0.56280  0.88340  0.86590  Biso   1.000  H
  H94      1.0000 0.93720  0.11660  0.36590  Biso   1.000  H
  H95      1.0000 0.06280  0.61660  0.13410  Biso   1.000  H
  H96      1.0000 0.43720  0.38340  0.63410  Biso   1.000  H
  H97      1.0000 0.16360  0.07500  0.30290  Biso   1.000  H
  H98      1.0000 0.33640  0.92500  0.80290  Biso   1.000  H
  H99      1.0000 0.66360  0.42500  0.69710  Biso   1.000  H
  H100     1.0000 0.83640  0.57500  0.19710  Biso   1.000  H
  H101     1.0000 0.83640  0.92500  0.69710  Biso   1.000  H
  H102     1.0000 0.66360  0.07500  0.19710  Biso   1.000  H
  H103     1.0000 0.33640  0.57500  0.30290  Biso   1.000  H
  H104     1.0000 0.16360  0.42500  0.80290  Biso   1.000  H
  H105     1.0000 0.26400  0.07170  0.24820  Biso   1.000  H
  H106     1.0000 0.23600  0.92830  0.74820  Biso   1.000  H
  H107     1.0000 0.76400  0.42830  0.75180  Biso   1.000  H
  H108     1.0000 0.73600  0.57170  0.25180  Biso   1.000  H
  H109     1.0000 0.73600  0.92830  0.75180  Biso   1.000  H
  H110     1.0000 0.76400  0.07170  0.25180  Biso   1.000  H
  H111     1.0000 0.23600  0.57170  0.24820  Biso   1.000  H
  H112     1.0000 0.26400  0.42830  0.74820  Biso   1.000  H
  H113     1.0000 0.34820  0.31060  0.29310  Biso   1.000  H
  H114     1.0000 0.15180  0.68940  0.79310  Biso   1.000  H
  H115     1.0000 0.84820  0.18940  0.70690  Biso   1.000  H
  H116     1.0000 0.65180  0.81060  0.20690  Biso   1.000  H
  H117     1.0000 0.65180  0.68940  0.70690  Biso   1.000  H
  H118     1.0000 0.84820  0.31060  0.20690  Biso   1.000  H
  H119     1.0000 0.15180  0.81060  0.29310  Biso   1.000  H
  H120     1.0000 0.34820  0.18940  0.79310  Biso   1.000  H
  H121     1.0000 0.24540  0.30740  0.34660  Biso   1.000  H
  H122     1.0000 0.25460  0.69260  0.84660  Biso   1.000  H
  H123     1.0000 0.74540  0.19260  0.65340  Biso   1.000  H
  H124     1.0000 0.75460  0.80740  0.15340  Biso   1.000  H
  H125     1.0000 0.75460  0.69260  0.65340  Biso   1.000  H
  H126     1.0000 0.74540  0.30740  0.15340  Biso   1.000  H
  H127     1.0000 0.25460  0.80740  0.34660  Biso   1.000  H
  H128     1.0000 0.24540  0.19260  0.84660  Biso   1.000  H
  H129     1.0000 0.67100  0.97090  0.08120  Biso   1.000  H
  H130     1.0000 0.82900  0.02910  0.58120  Biso   1.000  H
  H131     1.0000 0.17100  0.52910  0.91880  Biso   1.000  H
  H132     1.0000 0.32900  0.47090  0.41880  Biso   1.000  H
  H133     1.0000 0.32900  0.02910  0.91880  Biso   1.000  H
  H134     1.0000 0.17100  0.97090  0.41880  Biso   1.000  H
  H135     1.0000 0.82900  0.47090  0.08120  Biso   1.000  H
  H136     1.0000 0.67100  0.52910  0.58120  Biso   1.000  H
  H137     1.0000 0.58060  0.98150  0.06030  Biso   1.000  H
  H138     1.0000 0.91940  0.01850  0.56030  Biso   1.000  H
  H139     1.0000 0.08060  0.51850  0.93970  Biso   1.000  H
  H140     1.0000 0.41940  0.48150  0.43970  Biso   1.000  H
  H141     1.0000 0.41940  0.01850  0.93970  Biso   1.000  H
  H142     1.0000 0.08060  0.98150  0.43970  Biso   1.000  H
  H143     1.0000 0.91940  0.48150  0.06030  Biso   1.000  H
  H144     1.0000 0.58060  0.51850  0.56030  Biso   1.000  H
  H145     1.0000 0.59520  0.91450  0.10080  Biso   1.000  H
  H146     1.0000 0.90480  0.08550  0.60080  Biso   1.000  H
  H147     1.0000 0.09520  0.58550  0.89920  Biso   1.000  H
  H148     1.0000 0.40480  0.41450  0.39920  Biso   1.000  H
  H149     1.0000 0.40480  0.08550  0.89920  Biso   1.000  H
  H150     1.0000 0.09520  0.91450  0.39920  Biso   1.000  H
  H151     1.0000 0.90480  0.41450  0.10080  Biso   1.000  H
  H152     1.0000 0.59520  0.58550  0.60080  Biso   1.000  H
  P1       1.0000 0.60630  0.47522  0.14616  Biso   1.000  P
  P2       1.0000 0.89370  0.52478  0.64616  Biso   1.000  P
  P3       1.0000 0.10630  0.02478  0.85384  Biso   1.000  P
  P4       1.0000 0.39370  0.97522  0.35384  Biso   1.000  P
  P5       1.0000 0.39370  0.52478  0.85384  Biso   1.000  P
  P6       1.0000 0.10630  0.47522  0.35384  Biso   1.000  P
  P7       1.0000 0.89370  0.97522  0.14616  Biso   1.000  P
  P8       1.0000 0.60630  0.02478  0.64616  Biso   1.000  P
  F1       1.0000 0.60451  0.36812  0.13949  Biso   1.000  F
  F2       1.0000 0.89549  0.63188  0.63949  Biso   1.000  F
  F3       1.0000 0.10451  0.13188  0.86051  Biso   1.000  F
  F4       1.0000 0.39549  0.86812  0.36051  Biso   1.000  F
  F5       1.0000 0.39549  0.63188  0.86051  Biso   1.000  F
  F6       1.0000 0.10451  0.36812  0.36051  Biso   1.000  F
  F7       1.0000 0.89549  0.86812  0.13949  Biso   1.000  F
  F8       1.0000 0.60451  0.13188  0.63949  Biso   1.000  F
  F9       1.0000 0.61210  0.58150  0.14916  Biso   1.000  F
  F10      1.0000 0.88790  0.41850  0.64916  Biso   1.000  F
  F11      1.0000 0.11210  0.91850  0.85084  Biso   1.000  F
  F12      1.0000 0.38790  0.08150  0.35084  Biso   1.000  F
  F13      1.0000 0.38790  0.41850  0.85084  Biso   1.000  F
  F14      1.0000 0.11210  0.58150  0.35084  Biso   1.000  F
  F15      1.0000 0.88790  0.08150  0.14916  Biso   1.000  F
  F16      1.0000 0.61210  0.91850  0.64916  Biso   1.000  F
  F17      1.0000 0.70315  0.47450  0.14064  Biso   1.000  F
  F18      1.0000 0.79685  0.52550  0.64064  Biso   1.000  F
  F19      1.0000 0.20315  0.02550  0.85936  Biso   1.000  F
  F20      1.0000 0.29685  0.97450  0.35936  Biso   1.000  F
  F21      1.0000 0.29685  0.52550  0.85936  Biso   1.000  F
  F22      1.0000 0.20315  0.47450  0.35936  Biso   1.000  F
  F23      1.0000 0.79685  0.97450  0.14064  Biso   1.000  F
  F24      1.0000 0.70315  0.02550  0.64064  Biso   1.000  F
  F25      1.0000 0.50908  0.47420  0.15101  Biso   1.000  F
  F26      1.0000 0.99092  0.52580  0.65101  Biso   1.000  F
  F27      1.0000 0.00908  0.02580  0.84899  Biso   1.000  F
  F28      1.0000 0.49092  0.97420  0.34899  Biso   1.000  F
  F29      1.0000 0.49092  0.52580  0.84899  Biso   1.000  F
  F30      1.0000 0.00908  0.47420  0.34899  Biso   1.000  F
  F31      1.0000 0.99092  0.97420  0.15101  Biso   1.000  F
  F32      1.0000 0.50908  0.02580  0.65101  Biso   1.000  F
  F33      1.0000 0.61880  0.46120  0.19676  Biso   1.000  F
  F34      1.0000 0.88120  0.53880  0.69676  Biso   1.000  F
  F35      1.0000 0.11880  0.03880  0.80324  Biso   1.000  F
  F36      1.0000 0.38120  0.96120  0.30324  Biso   1.000  F
  F37      1.0000 0.38120  0.53880  0.80324  Biso   1.000  F
  F38      1.0000 0.11880  0.46120  0.30324  Biso   1.000  F
  F39      1.0000 0.88120  0.96120  0.19676  Biso   1.000  F
  F40      1.0000 0.61880  0.03880  0.69676  Biso   1.000  F
  F41      1.0000 0.59540  0.48430  0.09396  Biso   1.000  F
  F42      1.0000 0.90460  0.51570  0.59396  Biso   1.000  F
  F43      1.0000 0.09540  0.01570  0.90604  Biso   1.000  F
  F44      1.0000 0.40460  0.98430  0.40604  Biso   1.000  F
  F45      1.0000 0.40460  0.51570  0.90604  Biso   1.000  F
  F46      1.0000 0.09540  0.48430  0.40604  Biso   1.000  F
  F47      1.0000 0.90460  0.98430  0.09396  Biso   1.000  F
  F48      1.0000 0.59540  0.01570  0.59396  Biso   1.000  F
  P9       1.0000 0.33404  0.96023  0.05990  Biso   1.000  P
  P10      1.0000 0.16596  0.03977  0.55990  Biso   1.000  P
  P11      1.0000 0.83404  0.53977  0.94010  Biso   1.000  P
  P12      1.0000 0.66596  0.46023  0.44010  Biso   1.000  P
  P13      1.0000 0.66596  0.03977  0.94010  Biso   1.000  P
  P14      1.0000 0.83404  0.96023  0.44010  Biso   1.000  P
  P15      1.0000 0.16596  0.46023  0.05990  Biso   1.000  P
  P16      1.0000 0.33404  0.53977  0.55990  Biso   1.000  P
  F49      1.0000 0.25370  0.94040  0.08796  Biso   1.000  F
  F50      1.0000 0.24630  0.05960  0.58796  Biso   1.000  F
  F51      1.0000 0.75370  0.55960  0.91204  Biso   1.000  F
  F52      1.0000 0.74630  0.44040  0.41204  Biso   1.000  F
  F53      1.0000 0.74630  0.05960  0.91204  Biso   1.000  F
  F54      1.0000 0.75370  0.94040  0.41204  Biso   1.000  F
  F55      1.0000 0.24630  0.44040  0.08796  Biso   1.000  F
  F56      1.0000 0.25370  0.55960  0.58796  Biso   1.000  F
  F57      1.0000 0.41510  0.97730  0.03112  Biso   1.000  F
  F58      1.0000 0.08490  0.02270  0.53112  Biso   1.000  F
  F59      1.0000 0.91510  0.52270  0.96888  Biso   1.000  F
  F60      1.0000 0.58490  0.47730  0.46888  Biso   1.000  F
  F61      1.0000 0.58490  0.02270  0.96888  Biso   1.000  F
  F62      1.0000 0.91510  0.97730  0.46888  Biso   1.000  F
  F63      1.0000 0.08490  0.47730  0.03112  Biso   1.000  F
  F64      1.0000 0.41510  0.52270  0.53112  Biso   1.000  F
  F65      1.0000 0.33360  0.06500  0.07405  Biso   1.000  F
  F66      1.0000 0.16640  0.93500  0.57405  Biso   1.000  F
  F67      1.0000 0.83360  0.43500  0.92595  Biso   1.000  F
  F68      1.0000 0.66640  0.56500  0.42595  Biso   1.000  F
  F69      1.0000 0.66640  0.93500  0.92595  Biso   1.000  F
  F70      1.0000 0.83360  0.06500  0.42595  Biso   1.000  F
  F71      1.0000 0.16640  0.56500  0.07405  Biso   1.000  F
  F72      1.0000 0.33360  0.43500  0.57405  Biso   1.000  F
  F73      1.0000 0.33100  0.86080  0.04312  Biso   1.000  F
  F74      1.0000 0.16900  0.13920  0.54312  Biso   1.000  F
  F75      1.0000 0.83100  0.63920  0.95688  Biso   1.000  F
  F76      1.0000 0.66900  0.36080  0.45688  Biso   1.000  F
  F77      1.0000 0.66900  0.13920  0.95688  Biso   1.000  F
  F78      1.0000 0.83100  0.86080  0.45688  Biso   1.000  F
  F79      1.0000 0.16900  0.36080  0.04312  Biso   1.000  F
  F80      1.0000 0.33100  0.63920  0.54312  Biso   1.000  F
  F81      1.0000 0.38810  0.94190  0.10080  Biso   1.000  F
  F82      1.0000 0.11190  0.05810  0.60080  Biso   1.000  F
  F83      1.0000 0.88810  0.55810  0.89920  Biso   1.000  F
  F84      1.0000 0.61190  0.44190  0.39920  Biso   1.000  F
  F85      1.0000 0.61190  0.05810  0.89920  Biso   1.000  F
  F86      1.0000 0.88810  0.94190  0.39920  Biso   1.000  F
  F87      1.0000 0.11190  0.44190  0.10080  Biso   1.000  F
  F88      1.0000 0.38810  0.55810  0.60080  Biso   1.000  F
  F89      1.0000 0.27830  0.98760  0.01979  Biso   1.000  F
  F90      1.0000 0.22170  0.01240  0.51979  Biso   1.000  F
  F91      1.0000 0.77830  0.51240  0.98021  Biso   1.000  F
  F92      1.0000 0.72170  0.48760  0.48021  Biso   1.000  F
  F93      1.0000 0.72170  0.01240  0.98021  Biso   1.000  F
  F94      1.0000 0.77830  0.98760  0.48021  Biso   1.000  F
  F95      1.0000 0.22170  0.48760  0.01979  Biso   1.000  F
  F96      1.0000 0.27830  0.51240  0.51979  Biso   1.000  F
  O9       1.0000 0.24850  0.45380  0.18250  Biso   1.000  O
  O10      1.0000 0.25150  0.54620  0.68250  Biso   1.000  O
  O11      1.0000 0.74850  0.04620  0.81750  Biso   1.000  O
  O12      1.0000 0.75150  0.95380  0.31750  Biso   1.000  O
  O13      1.0000 0.75150  0.54620  0.81750  Biso   1.000  O
  O14      1.0000 0.74850  0.45380  0.31750  Biso   1.000  O
  O15      1.0000 0.25150  0.95380  0.18250  Biso   1.000  O
  O16      1.0000 0.24850  0.04620  0.68250  Biso   1.000  O
  C169     1.0000 0.32610  0.42760  0.19090  Biso   1.000  C
  C170     1.0000 0.17390  0.57240  0.69090  Biso   1.000  C
  C171     1.0000 0.82610  0.07240  0.80910  Biso   1.000  C
  C172     1.0000 0.67390  0.92760  0.30910  Biso   1.000  C
  C173     1.0000 0.67390  0.57240  0.80910  Biso   1.000  C
  C174     1.0000 0.82610  0.42760  0.30910  Biso   1.000  C
  C175     1.0000 0.17390  0.92760  0.19090  Biso   1.000  C
  C176     1.0000 0.32610  0.07240  0.69090  Biso   1.000  C
  O17      1.0000 0.45500  0.44710  0.31141  Biso   1.000  O
  O18      1.0000 0.04500  0.55290  0.81141  Biso   1.000  O
  O19      1.0000 0.95500  0.05290  0.68859  Biso   1.000  O
  O20      1.0000 0.54500  0.94710  0.18859  Biso   1.000  O
  O21      1.0000 0.54500  0.55290  0.68859  Biso   1.000  O
  O22      1.0000 0.95500  0.44710  0.18859  Biso   1.000  O
  O23      1.0000 0.04500  0.94710  0.31141  Biso   1.000  O
  O24      1.0000 0.45500  0.05290  0.81141  Biso   1.000  O
  C177     1.0000 0.48990  0.47160  0.27160  Biso   1.000  C
  C178     1.0000 0.01010  0.52840  0.77160  Biso   1.000  C
  C179     1.0000 0.98990  0.02840  0.72840  Biso   1.000  C
  C180     1.0000 0.51010  0.97160  0.22840  Biso   1.000  C
  C181     1.0000 0.51010  0.52840  0.72840  Biso   1.000  C
  C182     1.0000 0.98990  0.47160  0.22840  Biso   1.000  C
  C183     1.0000 0.01010  0.97160  0.27160  Biso   1.000  C
  C184     1.0000 0.48990  0.02840  0.77160  Biso   1.000  C
