data_image0
_cell_length_a       10.8579
_cell_length_b       8.7995
_cell_length_c       16.4975
_cell_angle_alpha    90
_cell_angle_beta     91.546
_cell_angle_gamma    90

_symmetry_space_group_name_H-M    "P 1"
_symmetry_int_tables_number       1

loop_
  _symmetry_equiv_pos_as_xyz
  'x, y, z'

loop_
  _atom_site_label
  _atom_site_occupancy
  _atom_site_fract_x
  _atom_site_fract_y
  _atom_site_fract_z
  _atom_site_thermal_displace_type
  _atom_site_B_iso_or_equiv
  _atom_site_type_symbol
  Cu1      1.0000 0.33944  0.09299  0.11840  Biso   1.000  Cu
  Cu2      1.0000 0.16056  0.59299  0.38160  Biso   1.000  Cu
  Cu3      1.0000 0.66056  0.90701  0.88160  Biso   1.000  Cu
  Cu4      1.0000 0.83944  0.40701  0.61840  Biso   1.000  Cu
  P1       1.0000 0.85937  0.09321  0.76858  Biso   1.000  P
  P2       1.0000 0.64063  0.59321  0.73142  Biso   1.000  P
  P3       1.0000 0.14063  0.90679  0.23142  Biso   1.000  P
  P4       1.0000 0.35937  0.40679  0.26858  Biso   1.000  P
  P5       1.0000 0.09333  0.25207  0.06336  Biso   1.000  P
  P6       1.0000 0.40667  0.75207  0.43664  Biso   1.000  P
  P7       1.0000 0.90667  0.74793  0.93664  Biso   1.000  P
  P8       1.0000 0.59333  0.24793  0.56336  Biso   1.000  P
  O1       1.0000 0.19568  0.13610  0.05181  Biso   1.000  O
  O2       1.0000 0.30432  0.63610  0.44819  Biso   1.000  O
  O3       1.0000 0.80432  0.86390  0.94819  Biso   1.000  O
  O4       1.0000 0.69568  0.36390  0.55181  Biso   1.000  O
  O5       1.0000 0.83822  0.16273  0.68531  Biso   1.000  O
  O6       1.0000 0.66178  0.66273  0.81469  Biso   1.000  O
  O7       1.0000 0.16178  0.83727  0.31469  Biso   1.000  O
  O8       1.0000 0.33822  0.33727  0.18531  Biso   1.000  O
  O9       1.0000 0.74251  0.03747  0.80653  Biso   1.000  O
  O10      1.0000 0.75749  0.53747  0.69347  Biso   1.000  O
  O11      1.0000 0.25749  0.96253  0.19347  Biso   1.000  O
  O12      1.0000 0.24251  0.46253  0.30653  Biso   1.000  O
  O13      1.0000 0.98968  0.19731  0.11477  Biso   1.000  O
  O14      1.0000 0.51032  0.69731  0.38523  Biso   1.000  O
  O15      1.0000 0.01032  0.80269  0.88523  Biso   1.000  O
  O16      1.0000 0.48968  0.30269  0.61477  Biso   1.000  O
  O17      1.0000 0.15129  0.40375  0.09791  Biso   1.000  O
  O18      1.0000 0.34871  0.90375  0.40209  Biso   1.000  O
  O19      1.0000 0.84871  0.59625  0.90209  Biso   1.000  O
  O20      1.0000 0.65129  0.09625  0.59791  Biso   1.000  O
  O21      1.0000 0.95537  0.96073  0.75972  Biso   1.000  O
  O22      1.0000 0.54463  0.46073  0.74028  Biso   1.000  O
  O23      1.0000 0.04463  0.03927  0.24028  Biso   1.000  O
  O24      1.0000 0.45537  0.53927  0.25972  Biso   1.000  O
  N1       1.0000 0.50409  0.02678  0.16328  Biso   1.000  N
  N2       1.0000 0.99591  0.52678  0.33672  Biso   1.000  N
  N3       1.0000 0.49591  0.97322  0.83672  Biso   1.000  N
  N4       1.0000 0.00409  0.47322  0.66328  Biso   1.000  N
  N5       1.0000 0.44954  0.18967  0.03604  Biso   1.000  N
  N6       1.0000 0.05046  0.68967  0.46396  Biso   1.000  N
  N7       1.0000 0.55046  0.81033  0.96396  Biso   1.000  N
  N8       1.0000 0.94954  0.31033  0.53604  Biso   1.000  N
  C1       1.0000 0.41106  0.27142  0.97174  Biso   1.000  C
  C2       1.0000 0.08894  0.77142  0.52826  Biso   1.000  C
  C3       1.0000 0.58894  0.72858  0.02826  Biso   1.000  C
  C4       1.0000 0.91106  0.22858  0.47174  Biso   1.000  C
  H1       1.0000 0.32510  0.27940  0.96000  Biso   1.000  H
  H2       1.0000 0.17490  0.77940  0.54000  Biso   1.000  H
  H3       1.0000 0.67490  0.72060  0.04000  Biso   1.000  H
  H4       1.0000 0.82510  0.22060  0.46000  Biso   1.000  H
  C5       1.0000 0.49285  0.34496  0.92155  Biso   1.000  C
  C6       1.0000 0.00715  0.84496  0.57845  Biso   1.000  C
  C7       1.0000 0.50715  0.65504  0.07845  Biso   1.000  C
  C8       1.0000 0.99285  0.15504  0.42155  Biso   1.000  C
  H5       1.0000 0.46350  0.40200  0.87610  Biso   1.000  H
  H6       1.0000 0.03650  0.90200  0.62390  Biso   1.000  H
  H7       1.0000 0.53650  0.59800  0.12390  Biso   1.000  H
  H8       1.0000 0.96350  0.09800  0.37610  Biso   1.000  H
  C9       1.0000 0.61789  0.33341  0.93903  Biso   1.000  C
  C10      1.0000 0.88211  0.83341  0.56097  Biso   1.000  C
  C11      1.0000 0.38211  0.66659  0.06097  Biso   1.000  C
  C12      1.0000 0.11789  0.16659  0.43903  Biso   1.000  C
  H9       1.0000 0.67560  0.38260  0.90560  Biso   1.000  H
  H10      1.0000 0.82440  0.88260  0.59440  Biso   1.000  H
  H11      1.0000 0.32440  0.61740  0.09440  Biso   1.000  H
  H12      1.0000 0.17560  0.11740  0.40560  Biso   1.000  H
  C13      1.0000 0.65828  0.24931  0.00586  Biso   1.000  C
  C14      1.0000 0.84172  0.74931  0.49414  Biso   1.000  C
  C15      1.0000 0.34172  0.75069  0.99414  Biso   1.000  C
  C16      1.0000 0.15828  0.25069  0.50586  Biso   1.000  C
  H13      1.0000 0.74370  0.24080  0.01910  Biso   1.000  H
  H14      1.0000 0.75630  0.74080  0.48090  Biso   1.000  H
  H15      1.0000 0.25630  0.75920  0.98090  Biso   1.000  H
  H16      1.0000 0.24370  0.25920  0.51910  Biso   1.000  H
  C17      1.0000 0.57133  0.17772  0.05314  Biso   1.000  C
  C18      1.0000 0.92867  0.67772  0.44686  Biso   1.000  C
  C19      1.0000 0.42867  0.82228  0.94686  Biso   1.000  C
  C20      1.0000 0.07133  0.32228  0.55314  Biso   1.000  C
  C21      1.0000 0.60262  0.08290  0.12451  Biso   1.000  C
  C22      1.0000 0.89738  0.58290  0.37549  Biso   1.000  C
  C23      1.0000 0.39738  0.91710  0.87549  Biso   1.000  C
  C24      1.0000 0.10262  0.41710  0.62451  Biso   1.000  C
  C25      1.0000 0.72250  0.05116  0.15055  Biso   1.000  C
  C26      1.0000 0.77750  0.55116  0.34945  Biso   1.000  C
  C27      1.0000 0.27750  0.94884  0.84945  Biso   1.000  C
  C28      1.0000 0.22250  0.44884  0.65055  Biso   1.000  C
  H17      1.0000 0.79060  0.09060  0.12230  Biso   1.000  H
  H18      1.0000 0.70940  0.59060  0.37770  Biso   1.000  H
  H19      1.0000 0.20940  0.90940  0.87770  Biso   1.000  H
  H20      1.0000 0.29060  0.40940  0.62230  Biso   1.000  H
  C29      1.0000 0.74092  0.96053  0.21872  Biso   1.000  C
  C30      1.0000 0.75908  0.46053  0.28128  Biso   1.000  C
  C31      1.0000 0.25908  0.03947  0.78128  Biso   1.000  C
  C32      1.0000 0.24092  0.53947  0.71872  Biso   1.000  C
  H21      1.0000 0.82210  0.93850  0.23820  Biso   1.000  H
  H22      1.0000 0.67790  0.43850  0.26180  Biso   1.000  H
  H23      1.0000 0.17790  0.06150  0.76180  Biso   1.000  H
  H24      1.0000 0.32210  0.56150  0.73820  Biso   1.000  H
  C33      1.0000 0.63996  0.90245  0.25815  Biso   1.000  C
  C34      1.0000 0.86004  0.40245  0.24185  Biso   1.000  C
  C35      1.0000 0.36004  0.09755  0.74185  Biso   1.000  C
  C36      1.0000 0.13996  0.59755  0.75815  Biso   1.000  C
  H25      1.0000 0.65090  0.84000  0.30480  Biso   1.000  H
  H26      1.0000 0.84910  0.34000  0.19520  Biso   1.000  H
  H27      1.0000 0.34910  0.16000  0.69520  Biso   1.000  H
  H28      1.0000 0.15090  0.66000  0.80480  Biso   1.000  H
  C37      1.0000 0.52245  0.93746  0.22805  Biso   1.000  C
  C38      1.0000 0.97755  0.43746  0.27195  Biso   1.000  C
  C39      1.0000 0.47755  0.06254  0.77195  Biso   1.000  C
  C40      1.0000 0.02245  0.56254  0.72805  Biso   1.000  C
  H29      1.0000 0.45310  0.89660  0.25430  Biso   1.000  H
  H30      1.0000 0.04690  0.39660  0.24570  Biso   1.000  H
  H31      1.0000 0.54690  0.10340  0.74570  Biso   1.000  H
  H32      1.0000 0.95310  0.60340  0.75430  Biso   1.000  H
  C41      1.0000 0.93356  0.23345  0.83199  Biso   1.000  C
  C42      1.0000 0.56644  0.73345  0.66801  Biso   1.000  C
  C43      1.0000 0.06644  0.76655  0.16801  Biso   1.000  C
  C44      1.0000 0.43356  0.26655  0.33199  Biso   1.000  C
  H33      1.0000 0.87530  0.31840  0.83980  Biso   1.000  H
  H34      1.0000 0.62470  0.81840  0.66020  Biso   1.000  H
  H35      1.0000 0.12470  0.68160  0.16020  Biso   1.000  H
  H36      1.0000 0.37530  0.18160  0.33980  Biso   1.000  H
  H37      1.0000 0.00520  0.27440  0.80320  Biso   1.000  H
  H38      1.0000 0.49480  0.77440  0.69680  Biso   1.000  H
  H39      1.0000 0.99480  0.72560  0.19680  Biso   1.000  H
  H40      1.0000 0.50520  0.22560  0.30320  Biso   1.000  H
  C45      1.0000 0.97813  0.17683  0.91544  Biso   1.000  C
  C46      1.0000 0.52187  0.67683  0.58456  Biso   1.000  C
  C47      1.0000 0.02187  0.82317  0.08456  Biso   1.000  C
  C48      1.0000 0.47813  0.32317  0.41544  Biso   1.000  C
  H41      1.0000 0.04120  0.09690  0.90880  Biso   1.000  H
  H42      1.0000 0.45880  0.59690  0.59120  Biso   1.000  H
  H43      1.0000 0.95880  0.90310  0.09120  Biso   1.000  H
  H44      1.0000 0.54120  0.40310  0.40880  Biso   1.000  H
  H45      1.0000 0.90820  0.13180  0.94430  Biso   1.000  H
  H46      1.0000 0.59180  0.63180  0.55570  Biso   1.000  H
  H47      1.0000 0.09180  0.86820  0.05570  Biso   1.000  H
  H48      1.0000 0.40820  0.36820  0.44430  Biso   1.000  H
  C49      1.0000 0.03298  0.30760  0.96552  Biso   1.000  C
  C50      1.0000 0.46702  0.80760  0.53448  Biso   1.000  C
  C51      1.0000 0.96702  0.69240  0.03448  Biso   1.000  C
  C52      1.0000 0.53298  0.19240  0.46552  Biso   1.000  C
  H49      1.0000 0.96850  0.38550  0.97290  Biso   1.000  H
  H50      1.0000 0.53150  0.88550  0.52710  Biso   1.000  H
  H51      1.0000 0.03150  0.61450  0.02710  Biso   1.000  H
  H52      1.0000 0.46850  0.11450  0.47290  Biso   1.000  H
  H53      1.0000 0.09990  0.35500  0.93470  Biso   1.000  H
  H54      1.0000 0.40010  0.85500  0.56530  Biso   1.000  H
  H55      1.0000 0.90010  0.64500  0.06530  Biso   1.000  H
  H56      1.0000 0.59990  0.14500  0.43470  Biso   1.000  H
  H57      1.0000 0.96800  0.90900  0.80190  Biso   1.000  H
  H58      1.0000 0.53200  0.40900  0.69810  Biso   1.000  H
  H59      1.0000 0.03200  0.09100  0.19810  Biso   1.000  H
  H60      1.0000 0.46800  0.59100  0.30190  Biso   1.000  H
  H61      1.0000 0.20600  0.38700  0.12060  Biso   1.000  H
  H62      1.0000 0.29400  0.88700  0.37940  Biso   1.000  H
  H63      1.0000 0.79400  0.61300  0.87940  Biso   1.000  H
  H64      1.0000 0.70600  0.11300  0.62060  Biso   1.000  H
