data_image0
_cell_length_a       18.208
_cell_length_b       16.376
_cell_length_c       10.585
_cell_angle_alpha    90
_cell_angle_beta     100.72
_cell_angle_gamma    90

_symmetry_space_group_name_H-M    "P 1"
_symmetry_int_tables_number       1

loop_
  _symmetry_equiv_pos_as_xyz
  'x, y, z'

loop_
  _atom_site_label
  _atom_site_occupancy
  _atom_site_fract_x
  _atom_site_fract_y
  _atom_site_fract_z
  _atom_site_thermal_displace_type
  _atom_site_B_iso_or_equiv
  _atom_site_type_symbol
  Cu1      1.0000 0.97172  0.94114  0.88522  Biso   1.000  Cu
  Cu2      1.0000 0.47172  0.44114  0.88522  Biso   1.000  Cu
  Cu3      1.0000 0.02828  0.94114  0.61478  Biso   1.000  Cu
  Cu4      1.0000 0.52828  0.44114  0.61478  Biso   1.000  Cu
  Cu5      1.0000 0.02828  0.05886  0.11478  Biso   1.000  Cu
  Cu6      1.0000 0.52828  0.55886  0.11478  Biso   1.000  Cu
  Cu7      1.0000 0.97172  0.05886  0.38522  Biso   1.000  Cu
  Cu8      1.0000 0.47172  0.55886  0.38522  Biso   1.000  Cu
  P1       1.0000 0.91062  0.06878  0.67248  Biso   1.000  P
  P2       1.0000 0.41062  0.56878  0.67248  Biso   1.000  P
  P3       1.0000 0.08938  0.06878  0.82752  Biso   1.000  P
  P4       1.0000 0.58938  0.56878  0.82752  Biso   1.000  P
  P5       1.0000 0.08938  0.93122  0.32752  Biso   1.000  P
  P6       1.0000 0.58938  0.43122  0.32752  Biso   1.000  P
  P7       1.0000 0.91062  0.93122  0.17248  Biso   1.000  P
  P8       1.0000 0.41062  0.43122  0.17248  Biso   1.000  P
  O1       1.0000 0.90454  0.01827  0.78770  Biso   1.000  O
  O2       1.0000 0.40454  0.51827  0.78770  Biso   1.000  O
  O3       1.0000 0.09546  0.01827  0.71230  Biso   1.000  O
  O4       1.0000 0.59546  0.51827  0.71230  Biso   1.000  O
  O5       1.0000 0.09546  0.98173  0.21230  Biso   1.000  O
  O6       1.0000 0.59546  0.48173  0.21230  Biso   1.000  O
  O7       1.0000 0.90454  0.98173  0.28770  Biso   1.000  O
  O8       1.0000 0.40454  0.48173  0.28770  Biso   1.000  O
  O9       1.0000 0.94919  0.02238  0.57860  Biso   1.000  O
  O10      1.0000 0.44919  0.52238  0.57860  Biso   1.000  O
  O11      1.0000 0.05081  0.02238  0.92140  Biso   1.000  O
  O12      1.0000 0.55081  0.52238  0.92140  Biso   1.000  O
  O13      1.0000 0.05081  0.97762  0.42140  Biso   1.000  O
  O14      1.0000 0.55081  0.47762  0.42140  Biso   1.000  O
  O15      1.0000 0.94919  0.97762  0.07860  Biso   1.000  O
  O16      1.0000 0.44919  0.47762  0.07860  Biso   1.000  O
  O17      1.0000 0.83379  0.09860  0.60600  Biso   1.000  O
  O18      1.0000 0.33379  0.59860  0.60600  Biso   1.000  O
  O19      1.0000 0.16621  0.09860  0.89400  Biso   1.000  O
  O20      1.0000 0.66621  0.59860  0.89400  Biso   1.000  O
  O21      1.0000 0.16621  0.90140  0.39400  Biso   1.000  O
  O22      1.0000 0.66621  0.40140  0.39400  Biso   1.000  O
  O23      1.0000 0.83379  0.90140  0.10600  Biso   1.000  O
  O24      1.0000 0.33379  0.40140  0.10600  Biso   1.000  O
  O25      1.0000 0.90060  0.50030  0.92880  Biso   1.000  O
  O26      1.0000 0.40060  0.00030  0.92880  Biso   1.000  O
  O27      1.0000 0.09940  0.50030  0.57120  Biso   1.000  O
  O28      1.0000 0.59940  0.00030  0.57120  Biso   1.000  O
  O29      1.0000 0.09940  0.49970  0.07120  Biso   1.000  O
  O30      1.0000 0.59940  0.99970  0.07120  Biso   1.000  O
  O31      1.0000 0.90060  0.49970  0.42880  Biso   1.000  O
  O32      1.0000 0.40060  0.99970  0.42880  Biso   1.000  O
  O33      1.0000 0.76500  0.51280  0.49410  Biso   1.000  O
  O34      1.0000 0.26500  0.01280  0.49410  Biso   1.000  O
  O35      1.0000 0.23500  0.51280  0.00590  Biso   1.000  O
  O36      1.0000 0.73500  0.01280  0.00590  Biso   1.000  O
  O37      1.0000 0.23500  0.48720  0.50590  Biso   1.000  O
  O38      1.0000 0.73500  0.98720  0.50590  Biso   1.000  O
  O39      1.0000 0.76500  0.48720  0.99410  Biso   1.000  O
  O40      1.0000 0.26500  0.98720  0.99410  Biso   1.000  O
  O41      1.0000 0.84070  0.48580  0.75130  Biso   1.000  O
  O42      1.0000 0.34070  0.98580  0.75130  Biso   1.000  O
  O43      1.0000 0.15930  0.48580  0.74870  Biso   1.000  O
  O44      1.0000 0.65930  0.98580  0.74870  Biso   1.000  O
  O45      1.0000 0.15930  0.51420  0.24870  Biso   1.000  O
  O46      1.0000 0.65930  0.01420  0.24870  Biso   1.000  O
  O47      1.0000 0.84070  0.51420  0.25130  Biso   1.000  O
  O48      1.0000 0.34070  0.01420  0.25130  Biso   1.000  O
  O49      1.0000 0.02700  0.48050  0.20840  Biso   1.000  O
  O50      1.0000 0.52700  0.98050  0.20840  Biso   1.000  O
  O51      1.0000 0.97300  0.48050  0.29160  Biso   1.000  O
  O52      1.0000 0.47300  0.98050  0.29160  Biso   1.000  O
  O53      1.0000 0.97300  0.51950  0.79160  Biso   1.000  O
  O54      1.0000 0.47300  0.01950  0.79160  Biso   1.000  O
  O55      1.0000 0.02700  0.51950  0.70840  Biso   1.000  O
  O56      1.0000 0.52700  0.01950  0.70840  Biso   1.000  O
  O57      1.0000 0.98710  0.50330  0.04630  Biso   1.000  O
  O58      1.0000 0.48710  0.00330  0.04630  Biso   1.000  O
  O59      1.0000 0.01290  0.50330  0.45370  Biso   1.000  O
  O60      1.0000 0.51290  0.00330  0.45370  Biso   1.000  O
  O61      1.0000 0.01290  0.49670  0.95370  Biso   1.000  O
  O62      1.0000 0.51290  0.99670  0.95370  Biso   1.000  O
  O63      1.0000 0.98710  0.49670  0.54630  Biso   1.000  O
  O64      1.0000 0.48710  0.99670  0.54630  Biso   1.000  O
  N1       1.0000 0.03980  0.84930  0.93620  Biso   1.000  N
  N2       1.0000 0.53980  0.34930  0.93620  Biso   1.000  N
  N3       1.0000 0.96020  0.84930  0.56380  Biso   1.000  N
  N4       1.0000 0.46020  0.34930  0.56380  Biso   1.000  N
  N5       1.0000 0.96020  0.15070  0.06380  Biso   1.000  N
  N6       1.0000 0.46020  0.65070  0.06380  Biso   1.000  N
  N7       1.0000 0.03980  0.15070  0.43620  Biso   1.000  N
  N8       1.0000 0.53980  0.65070  0.43620  Biso   1.000  N
  N9       1.0000 0.89870  0.85180  0.84960  Biso   1.000  N
  N10      1.0000 0.39870  0.35180  0.84960  Biso   1.000  N
  N11      1.0000 0.10130  0.85180  0.65040  Biso   1.000  N
  N12      1.0000 0.60130  0.35180  0.65040  Biso   1.000  N
  N13      1.0000 0.10130  0.14820  0.15040  Biso   1.000  N
  N14      1.0000 0.60130  0.64820  0.15040  Biso   1.000  N
  N15      1.0000 0.89870  0.14820  0.34960  Biso   1.000  N
  N16      1.0000 0.39870  0.64820  0.34960  Biso   1.000  N
  C1       1.0000 0.11280  0.85530  0.98300  Biso   1.000  C
  C2       1.0000 0.61280  0.35530  0.98300  Biso   1.000  C
  C3       1.0000 0.88720  0.85530  0.51700  Biso   1.000  C
  C4       1.0000 0.38720  0.35530  0.51700  Biso   1.000  C
  C5       1.0000 0.88720  0.14470  0.01700  Biso   1.000  C
  C6       1.0000 0.38720  0.64470  0.01700  Biso   1.000  C
  C7       1.0000 0.11280  0.14470  0.48300  Biso   1.000  C
  C8       1.0000 0.61280  0.64470  0.48300  Biso   1.000  C
  H1       1.0000 0.13450  0.90690  0.99500  Biso   1.000  H
  H2       1.0000 0.63450  0.40690  0.99500  Biso   1.000  H
  H3       1.0000 0.86550  0.90690  0.50500  Biso   1.000  H
  H4       1.0000 0.36550  0.40690  0.50500  Biso   1.000  H
  H5       1.0000 0.86550  0.09310  0.00500  Biso   1.000  H
  H6       1.0000 0.36550  0.59310  0.00500  Biso   1.000  H
  H7       1.0000 0.13450  0.09310  0.49500  Biso   1.000  H
  H8       1.0000 0.63450  0.59310  0.49500  Biso   1.000  H
  C9       1.0000 0.15710  0.78740  0.01410  Biso   1.000  C
  C10      1.0000 0.65710  0.28740  0.01410  Biso   1.000  C
  C11      1.0000 0.84290  0.78740  0.48590  Biso   1.000  C
  C12      1.0000 0.34290  0.28740  0.48590  Biso   1.000  C
  C13      1.0000 0.84290  0.21260  0.98590  Biso   1.000  C
  C14      1.0000 0.34290  0.71260  0.98590  Biso   1.000  C
  C15      1.0000 0.15710  0.21260  0.51410  Biso   1.000  C
  C16      1.0000 0.65710  0.71260  0.51410  Biso   1.000  C
  H9       1.0000 0.20790  0.79280  0.04670  Biso   1.000  H
  H10      1.0000 0.70790  0.29280  0.04670  Biso   1.000  H
  H11      1.0000 0.79210  0.79280  0.45330  Biso   1.000  H
  H12      1.0000 0.29210  0.29280  0.45330  Biso   1.000  H
  H13      1.0000 0.79210  0.20720  0.95330  Biso   1.000  H
  H14      1.0000 0.29210  0.70720  0.95330  Biso   1.000  H
  H15      1.0000 0.20790  0.20720  0.54670  Biso   1.000  H
  H16      1.0000 0.70790  0.70720  0.54670  Biso   1.000  H
  C17      1.0000 0.12490  0.71210  0.99610  Biso   1.000  C
  C18      1.0000 0.62490  0.21210  0.99610  Biso   1.000  C
  C19      1.0000 0.87510  0.71210  0.50390  Biso   1.000  C
  C20      1.0000 0.37510  0.21210  0.50390  Biso   1.000  C
  C21      1.0000 0.87510  0.28790  0.00390  Biso   1.000  C
  C22      1.0000 0.37510  0.78790  0.00390  Biso   1.000  C
  C23      1.0000 0.12490  0.28790  0.49610  Biso   1.000  C
  C24      1.0000 0.62490  0.78790  0.49610  Biso   1.000  C
  H17      1.0000 0.15400  0.66550  0.01530  Biso   1.000  H
  H18      1.0000 0.65400  0.16550  0.01530  Biso   1.000  H
  H19      1.0000 0.84600  0.66550  0.48470  Biso   1.000  H
  H20      1.0000 0.34600  0.16550  0.48470  Biso   1.000  H
  H21      1.0000 0.84600  0.33450  0.98470  Biso   1.000  H
  H22      1.0000 0.34600  0.83450  0.98470  Biso   1.000  H
  H23      1.0000 0.15400  0.33450  0.51530  Biso   1.000  H
  H24      1.0000 0.65400  0.83450  0.51530  Biso   1.000  H
  C25      1.0000 0.04950  0.70510  0.94960  Biso   1.000  C
  C26      1.0000 0.54950  0.20510  0.94960  Biso   1.000  C
  C27      1.0000 0.95050  0.70510  0.55040  Biso   1.000  C
  C28      1.0000 0.45050  0.20510  0.55040  Biso   1.000  C
  C29      1.0000 0.95050  0.29490  0.05040  Biso   1.000  C
  C30      1.0000 0.45050  0.79490  0.05040  Biso   1.000  C
  C31      1.0000 0.04950  0.29490  0.44960  Biso   1.000  C
  C32      1.0000 0.54950  0.79490  0.44960  Biso   1.000  C
  H25      1.0000 0.02730  0.65390  0.93730  Biso   1.000  H
  H26      1.0000 0.52730  0.15390  0.93730  Biso   1.000  H
  H27      1.0000 0.97270  0.65390  0.56270  Biso   1.000  H
  H28      1.0000 0.47270  0.15390  0.56270  Biso   1.000  H
  H29      1.0000 0.97270  0.34610  0.06270  Biso   1.000  H
  H30      1.0000 0.47270  0.84610  0.06270  Biso   1.000  H
  H31      1.0000 0.02730  0.34610  0.43730  Biso   1.000  H
  H32      1.0000 0.52730  0.84610  0.43730  Biso   1.000  H
  C33      1.0000 0.00750  0.77470  0.92140  Biso   1.000  C
  C34      1.0000 0.50750  0.27470  0.92140  Biso   1.000  C
  C35      1.0000 0.99250  0.77470  0.57860  Biso   1.000  C
  C36      1.0000 0.49250  0.27470  0.57860  Biso   1.000  C
  C37      1.0000 0.99250  0.22530  0.07860  Biso   1.000  C
  C38      1.0000 0.49250  0.72530  0.07860  Biso   1.000  C
  C39      1.0000 0.00750  0.22530  0.42140  Biso   1.000  C
  C40      1.0000 0.50750  0.72530  0.42140  Biso   1.000  C
  C41      1.0000 0.92660  0.77680  0.87480  Biso   1.000  C
  C42      1.0000 0.42660  0.27680  0.87480  Biso   1.000  C
  C43      1.0000 0.07340  0.77680  0.62520  Biso   1.000  C
  C44      1.0000 0.57340  0.27680  0.62520  Biso   1.000  C
  C45      1.0000 0.07340  0.22320  0.12520  Biso   1.000  C
  C46      1.0000 0.57340  0.72320  0.12520  Biso   1.000  C
  C47      1.0000 0.92660  0.22320  0.37480  Biso   1.000  C
  C48      1.0000 0.42660  0.72320  0.37480  Biso   1.000  C
  C49      1.0000 0.88000  0.70930  0.86170  Biso   1.000  C
  C50      1.0000 0.38000  0.20930  0.86170  Biso   1.000  C
  C51      1.0000 0.12000  0.70930  0.63830  Biso   1.000  C
  C52      1.0000 0.62000  0.20930  0.63830  Biso   1.000  C
  C53      1.0000 0.12000  0.29070  0.13830  Biso   1.000  C
  C54      1.0000 0.62000  0.79070  0.13830  Biso   1.000  C
  C55      1.0000 0.88000  0.29070  0.36170  Biso   1.000  C
  C56      1.0000 0.38000  0.79070  0.36170  Biso   1.000  C
  H33      1.0000 0.89970  0.65710  0.87800  Biso   1.000  H
  H34      1.0000 0.39970  0.15710  0.87800  Biso   1.000  H
  H35      1.0000 0.10030  0.65710  0.62200  Biso   1.000  H
  H36      1.0000 0.60030  0.15710  0.62200  Biso   1.000  H
  H37      1.0000 0.10030  0.34290  0.12200  Biso   1.000  H
  H38      1.0000 0.60030  0.84290  0.12200  Biso   1.000  H
  H39      1.0000 0.89970  0.34290  0.37800  Biso   1.000  H
  H40      1.0000 0.39970  0.84290  0.37800  Biso   1.000  H
  C57      1.0000 0.80570  0.72030  0.82480  Biso   1.000  C
  C58      1.0000 0.30570  0.22030  0.82480  Biso   1.000  C
  C59      1.0000 0.19430  0.72030  0.67520  Biso   1.000  C
  C60      1.0000 0.69430  0.22030  0.67520  Biso   1.000  C
  C61      1.0000 0.19430  0.27970  0.17520  Biso   1.000  C
  C62      1.0000 0.69430  0.77970  0.17520  Biso   1.000  C
  C63      1.0000 0.80570  0.27970  0.32480  Biso   1.000  C
  C64      1.0000 0.30570  0.77970  0.32480  Biso   1.000  C
  H41      1.0000 0.77380  0.67540  0.81600  Biso   1.000  H
  H42      1.0000 0.27380  0.17540  0.81600  Biso   1.000  H
  H43      1.0000 0.22620  0.67540  0.68400  Biso   1.000  H
  H44      1.0000 0.72620  0.17540  0.68400  Biso   1.000  H
  H45      1.0000 0.22620  0.32460  0.18400  Biso   1.000  H
  H46      1.0000 0.72620  0.82460  0.18400  Biso   1.000  H
  H47      1.0000 0.77380  0.32460  0.31600  Biso   1.000  H
  H48      1.0000 0.27380  0.82460  0.31600  Biso   1.000  H
  C65      1.0000 0.77710  0.79680  0.80060  Biso   1.000  C
  C66      1.0000 0.27710  0.29680  0.80060  Biso   1.000  C
  C67      1.0000 0.22290  0.79680  0.69940  Biso   1.000  C
  C68      1.0000 0.72290  0.29680  0.69940  Biso   1.000  C
  C69      1.0000 0.22290  0.20320  0.19940  Biso   1.000  C
  C70      1.0000 0.72290  0.70320  0.19940  Biso   1.000  C
  C71      1.0000 0.77710  0.20320  0.30060  Biso   1.000  C
  C72      1.0000 0.27710  0.70320  0.30060  Biso   1.000  C
  H49      1.0000 0.72580  0.80460  0.77620  Biso   1.000  H
  H50      1.0000 0.22580  0.30460  0.77620  Biso   1.000  H
  H51      1.0000 0.27420  0.80460  0.72380  Biso   1.000  H
  H52      1.0000 0.77420  0.30460  0.72380  Biso   1.000  H
  H53      1.0000 0.27420  0.19540  0.22380  Biso   1.000  H
  H54      1.0000 0.77420  0.69540  0.22380  Biso   1.000  H
  H55      1.0000 0.72580  0.19540  0.27620  Biso   1.000  H
  H56      1.0000 0.22580  0.69540  0.27620  Biso   1.000  H
  C73      1.0000 0.82500  0.86210  0.81260  Biso   1.000  C
  C74      1.0000 0.32500  0.36210  0.81260  Biso   1.000  C
  C75      1.0000 0.17500  0.86210  0.68740  Biso   1.000  C
  C76      1.0000 0.67500  0.36210  0.68740  Biso   1.000  C
  C77      1.0000 0.17500  0.13790  0.18740  Biso   1.000  C
  C78      1.0000 0.67500  0.63790  0.18740  Biso   1.000  C
  C79      1.0000 0.82500  0.13790  0.31260  Biso   1.000  C
  C80      1.0000 0.32500  0.63790  0.31260  Biso   1.000  C
  H57      1.0000 0.80600  0.91440  0.79460  Biso   1.000  H
  H58      1.0000 0.30600  0.41440  0.79460  Biso   1.000  H
  H59      1.0000 0.19400  0.91440  0.70540  Biso   1.000  H
  H60      1.0000 0.69400  0.41440  0.70540  Biso   1.000  H
  H61      1.0000 0.19400  0.08560  0.20540  Biso   1.000  H
  H62      1.0000 0.69400  0.58560  0.20540  Biso   1.000  H
  H63      1.0000 0.80600  0.08560  0.29460  Biso   1.000  H
  H64      1.0000 0.30600  0.58560  0.29460  Biso   1.000  H
  C81      1.0000 0.96310  0.16080  0.71890  Biso   1.000  C
  C82      1.0000 0.46310  0.66080  0.71890  Biso   1.000  C
  C83      1.0000 0.03690  0.16080  0.78110  Biso   1.000  C
  C84      1.0000 0.53690  0.66080  0.78110  Biso   1.000  C
  C85      1.0000 0.03690  0.83920  0.28110  Biso   1.000  C
  C86      1.0000 0.53690  0.33920  0.28110  Biso   1.000  C
  C87      1.0000 0.96310  0.83920  0.21890  Biso   1.000  C
  C88      1.0000 0.46310  0.33920  0.21890  Biso   1.000  C
  C89      1.0000 0.92630  0.23480  0.68940  Biso   1.000  C
  C90      1.0000 0.42630  0.73480  0.68940  Biso   1.000  C
  C91      1.0000 0.07370  0.23480  0.81060  Biso   1.000  C
  C92      1.0000 0.57370  0.73480  0.81060  Biso   1.000  C
  C93      1.0000 0.07370  0.76520  0.31060  Biso   1.000  C
  C94      1.0000 0.57370  0.26520  0.31060  Biso   1.000  C
  C95      1.0000 0.92630  0.76520  0.18940  Biso   1.000  C
  C96      1.0000 0.42630  0.26520  0.18940  Biso   1.000  C
  H65      1.0000 0.87640  0.23520  0.64870  Biso   1.000  H
  H66      1.0000 0.37640  0.73520  0.64870  Biso   1.000  H
  H67      1.0000 0.12360  0.23520  0.85130  Biso   1.000  H
  H68      1.0000 0.62360  0.73520  0.85130  Biso   1.000  H
  H69      1.0000 0.12360  0.76480  0.35130  Biso   1.000  H
  H70      1.0000 0.62360  0.26480  0.35130  Biso   1.000  H
  H71      1.0000 0.87640  0.76480  0.14870  Biso   1.000  H
  H72      1.0000 0.37640  0.26480  0.14870  Biso   1.000  H
  C97      1.0000 0.96360  0.30810  0.72030  Biso   1.000  C
  C98      1.0000 0.46360  0.80810  0.72030  Biso   1.000  C
  C99      1.0000 0.03640  0.30810  0.77970  Biso   1.000  C
  C100     1.0000 0.53640  0.80810  0.77970  Biso   1.000  C
  C101     1.0000 0.03640  0.69190  0.27970  Biso   1.000  C
  C102     1.0000 0.53640  0.19190  0.27970  Biso   1.000  C
  C103     1.0000 0.96360  0.69190  0.22030  Biso   1.000  C
  C104     1.0000 0.46360  0.19190  0.22030  Biso   1.000  C
  H73      1.0000 0.93870  0.35730  0.70040  Biso   1.000  H
  H74      1.0000 0.43870  0.85730  0.70040  Biso   1.000  H
  H75      1.0000 0.06130  0.35730  0.79960  Biso   1.000  H
  H76      1.0000 0.56130  0.85730  0.79960  Biso   1.000  H
  H77      1.0000 0.06130  0.64270  0.29960  Biso   1.000  H
  H78      1.0000 0.56130  0.14270  0.29960  Biso   1.000  H
  H79      1.0000 0.93870  0.64270  0.20040  Biso   1.000  H
  H80      1.0000 0.43870  0.14270  0.20040  Biso   1.000  H
