data_image0
_cell_length_a       11.8668
_cell_length_b       8.8784
_cell_length_c       22.457
_cell_angle_alpha    90
_cell_angle_beta     92.308
_cell_angle_gamma    90

_symmetry_space_group_name_H-M    "P 1"
_symmetry_int_tables_number       1

loop_
  _symmetry_equiv_pos_as_xyz
  'x, y, z'

loop_
  _atom_site_label
  _atom_site_occupancy
  _atom_site_fract_x
  _atom_site_fract_y
  _atom_site_fract_z
  _atom_site_thermal_displace_type
  _atom_site_B_iso_or_equiv
  _atom_site_type_symbol
  O1       1.0000 0.21380  0.74060  0.24706  Biso   1.000  O
  O2       1.0000 0.28620  0.24060  0.25294  Biso   1.000  O
  O3       1.0000 0.78620  0.25940  0.75294  Biso   1.000  O
  O4       1.0000 0.71380  0.75940  0.74706  Biso   1.000  O
  Cu1      1.0000 0.05923  0.60446  0.21242  Biso   1.000  Cu
  Cu2      1.0000 0.44077  0.10446  0.28758  Biso   1.000  Cu
  Cu3      1.0000 0.94077  0.39554  0.78758  Biso   1.000  Cu
  Cu4      1.0000 0.55923  0.89554  0.71242  Biso   1.000  Cu
  P1       1.0000 0.22795  0.88083  0.28475  Biso   1.000  P
  P2       1.0000 0.27205  0.38083  0.21525  Biso   1.000  P
  P3       1.0000 0.77205  0.11917  0.71525  Biso   1.000  P
  P4       1.0000 0.72795  0.61917  0.78475  Biso   1.000  P
  O5       1.0000 0.08030  0.66930  0.13012  Biso   1.000  O
  O6       1.0000 0.41970  0.16930  0.36988  Biso   1.000  O
  O7       1.0000 0.91970  0.33070  0.86988  Biso   1.000  O
  O8       1.0000 0.58030  0.83070  0.63012  Biso   1.000  O
  O9       1.0000 0.34980  0.92490  0.29731  Biso   1.000  O
  O10      1.0000 0.15020  0.42490  0.20269  Biso   1.000  O
  O11      1.0000 0.65020  0.07510  0.70269  Biso   1.000  O
  O12      1.0000 0.84980  0.57510  0.79731  Biso   1.000  O
  O13      1.0000 0.15950  0.01300  0.25491  Biso   1.000  O
  O14      1.0000 0.34050  0.51300  0.24509  Biso   1.000  O
  O15      1.0000 0.84050  0.98700  0.74509  Biso   1.000  O
  O16      1.0000 0.65950  0.48700  0.75491  Biso   1.000  O
  O17      1.0000 0.92390  0.45310  0.14523  Biso   1.000  O
  O18      1.0000 0.57610  0.95310  0.35477  Biso   1.000  O
  O19      1.0000 0.07610  0.54690  0.85477  Biso   1.000  O
  O20      1.0000 0.42390  0.04690  0.64523  Biso   1.000  O
  H1       1.0000 0.92200  0.40980  0.17840  Biso   1.000  H
  H2       1.0000 0.57800  0.90980  0.32160  Biso   1.000  H
  H3       1.0000 0.07800  0.59020  0.82160  Biso   1.000  H
  H4       1.0000 0.42200  0.09020  0.67840  Biso   1.000  H
  O21      1.0000 0.94370  0.24280  0.10106  Biso   1.000  O
  O22      1.0000 0.55630  0.74280  0.39894  Biso   1.000  O
  O23      1.0000 0.05630  0.75720  0.89894  Biso   1.000  O
  O24      1.0000 0.44370  0.25720  0.60106  Biso   1.000  O
  O25      1.0000 0.15350  0.89150  0.05918  Biso   1.000  O
  O26      1.0000 0.34650  0.39150  0.44082  Biso   1.000  O
  O27      1.0000 0.84650  0.10850  0.94082  Biso   1.000  O
  O28      1.0000 0.65350  0.60850  0.55918  Biso   1.000  O
  O29      1.0000 0.30770  0.81760  0.02263  Biso   1.000  O
  O30      1.0000 0.19230  0.31760  0.47737  Biso   1.000  O
  O31      1.0000 0.69230  0.18240  0.97737  Biso   1.000  O
  O32      1.0000 0.80770  0.68240  0.52263  Biso   1.000  O
  H5       1.0000 0.35730  0.80850  0.05010  Biso   1.000  H
  H6       1.0000 0.14270  0.30850  0.44990  Biso   1.000  H
  H7       1.0000 0.64270  0.19150  0.94990  Biso   1.000  H
  H8       1.0000 0.85730  0.69150  0.55010  Biso   1.000  H
  O33      1.0000 0.16730  0.18540  0.93563  Biso   1.000  O
  O34      1.0000 0.33270  0.68540  0.56437  Biso   1.000  O
  O35      1.0000 0.83270  0.81460  0.06437  Biso   1.000  O
  O36      1.0000 0.66730  0.31460  0.43563  Biso   1.000  O
  O37      1.0000 0.27750  0.36290  0.90809  Biso   1.000  O
  O38      1.0000 0.22250  0.86290  0.59191  Biso   1.000  O
  O39      1.0000 0.72250  0.63710  0.09191  Biso   1.000  O
  O40      1.0000 0.77750  0.13710  0.40809  Biso   1.000  O
  H9       1.0000 0.24520  0.40580  0.87880  Biso   1.000  H
  H10      1.0000 0.25480  0.90580  0.62120  Biso   1.000  H
  H11      1.0000 0.75480  0.59420  0.12120  Biso   1.000  H
  H12      1.0000 0.74520  0.09420  0.37880  Biso   1.000  H
  N1       1.0000 0.99700  0.53380  0.28895  Biso   1.000  N
  N2       1.0000 0.50300  0.03380  0.21105  Biso   1.000  N
  N3       1.0000 0.00300  0.46620  0.71105  Biso   1.000  N
  N4       1.0000 0.49700  0.96620  0.78895  Biso   1.000  N
  N5       1.0000 0.95530  0.77600  0.22708  Biso   1.000  N
  N6       1.0000 0.54470  0.27600  0.27292  Biso   1.000  N
  N7       1.0000 0.04470  0.22400  0.77292  Biso   1.000  N
  N8       1.0000 0.45530  0.72400  0.72708  Biso   1.000  N
  C1       1.0000 0.02240  0.40390  0.31688  Biso   1.000  C
  C2       1.0000 0.47760  0.90390  0.18312  Biso   1.000  C
  C3       1.0000 0.97760  0.59610  0.68312  Biso   1.000  C
  C4       1.0000 0.52240  0.09610  0.81688  Biso   1.000  C
  H13      1.0000 0.07370  0.33670  0.29930  Biso   1.000  H
  H14      1.0000 0.42630  0.83670  0.20070  Biso   1.000  H
  H15      1.0000 0.92630  0.66330  0.70070  Biso   1.000  H
  H16      1.0000 0.57370  0.16330  0.79930  Biso   1.000  H
  C5       1.0000 0.97660  0.36440  0.37010  Biso   1.000  C
  C6       1.0000 0.52340  0.86440  0.12990  Biso   1.000  C
  C7       1.0000 0.02340  0.63560  0.62990  Biso   1.000  C
  C8       1.0000 0.47660  0.13560  0.87010  Biso   1.000  C
  H17      1.0000 0.99650  0.27200  0.38910  Biso   1.000  H
  H18      1.0000 0.50350  0.77200  0.11090  Biso   1.000  H
  H19      1.0000 0.00350  0.72800  0.61090  Biso   1.000  H
  H20      1.0000 0.49650  0.22800  0.88910  Biso   1.000  H
  C9       1.0000 0.90130  0.46150  0.39524  Biso   1.000  C
  C10      1.0000 0.59870  0.96150  0.10476  Biso   1.000  C
  C11      1.0000 0.09870  0.53850  0.60476  Biso   1.000  C
  C12      1.0000 0.40130  0.03850  0.89524  Biso   1.000  C
  H21      1.0000 0.86870  0.43680  0.43190  Biso   1.000  H
  H22      1.0000 0.63130  0.93680  0.06810  Biso   1.000  H
  H23      1.0000 0.13130  0.56320  0.56810  Biso   1.000  H
  H24      1.0000 0.36870  0.06320  0.93190  Biso   1.000  H
  C13      1.0000 0.87370  0.59450  0.36677  Biso   1.000  C
  C14      1.0000 0.62630  0.09450  0.13323  Biso   1.000  C
  C15      1.0000 0.12630  0.40550  0.63323  Biso   1.000  C
  C16      1.0000 0.37370  0.90550  0.86677  Biso   1.000  C
  H25      1.0000 0.82150  0.66220  0.38350  Biso   1.000  H
  H26      1.0000 0.67850  0.16220  0.11650  Biso   1.000  H
  H27      1.0000 0.17850  0.33780  0.61650  Biso   1.000  H
  H28      1.0000 0.32150  0.83780  0.88350  Biso   1.000  H
  C17      1.0000 0.92300  0.62890  0.31322  Biso   1.000  C
  C18      1.0000 0.57700  0.12890  0.18678  Biso   1.000  C
  C19      1.0000 0.07700  0.37110  0.68678  Biso   1.000  C
  C20      1.0000 0.42300  0.87110  0.81322  Biso   1.000  C
  C21      1.0000 0.90140  0.76860  0.27918  Biso   1.000  C
  C22      1.0000 0.59860  0.26860  0.22082  Biso   1.000  C
  C23      1.0000 0.09860  0.23140  0.72082  Biso   1.000  C
  C24      1.0000 0.40140  0.73140  0.77918  Biso   1.000  C
  C25      1.0000 0.83470  0.88500  0.29812  Biso   1.000  C
  C26      1.0000 0.66530  0.38500  0.20188  Biso   1.000  C
  C27      1.0000 0.16530  0.11500  0.70188  Biso   1.000  C
  C28      1.0000 0.33470  0.61500  0.79812  Biso   1.000  C
  H29      1.0000 0.79620  0.87710  0.33430  Biso   1.000  H
  H30      1.0000 0.70380  0.37710  0.16570  Biso   1.000  H
  H31      1.0000 0.20380  0.12290  0.66570  Biso   1.000  H
  H32      1.0000 0.29620  0.62290  0.83430  Biso   1.000  H
  C29      1.0000 0.82490  0.01360  0.26350  Biso   1.000  C
  C30      1.0000 0.67510  0.51360  0.23650  Biso   1.000  C
  C31      1.0000 0.17510  0.98640  0.73650  Biso   1.000  C
  C32      1.0000 0.32490  0.48640  0.76350  Biso   1.000  C
  H33      1.0000 0.77990  0.09550  0.27580  Biso   1.000  H
  H34      1.0000 0.72010  0.59550  0.22420  Biso   1.000  H
  H35      1.0000 0.22010  0.90450  0.72420  Biso   1.000  H
  H36      1.0000 0.27990  0.40450  0.77580  Biso   1.000  H
  C33      1.0000 0.88080  0.02200  0.21110  Biso   1.000  C
  C34      1.0000 0.61920  0.52200  0.28890  Biso   1.000  C
  C35      1.0000 0.11920  0.97800  0.78890  Biso   1.000  C
  C36      1.0000 0.38080  0.47800  0.71110  Biso   1.000  C
  H37      1.0000 0.87540  0.10980  0.18690  Biso   1.000  H
  H38      1.0000 0.62460  0.60980  0.31310  Biso   1.000  H
  H39      1.0000 0.12460  0.89020  0.81310  Biso   1.000  H
  H40      1.0000 0.37540  0.39020  0.68690  Biso   1.000  H
  C37      1.0000 0.94510  0.89970  0.19412  Biso   1.000  C
  C38      1.0000 0.55490  0.39970  0.30588  Biso   1.000  C
  C39      1.0000 0.05490  0.10030  0.80588  Biso   1.000  C
  C40      1.0000 0.44510  0.60030  0.69412  Biso   1.000  C
  H41      1.0000 0.98300  0.90480  0.15770  Biso   1.000  H
  H42      1.0000 0.51700  0.40480  0.34230  Biso   1.000  H
  H43      1.0000 0.01700  0.09520  0.84230  Biso   1.000  H
  H44      1.0000 0.48300  0.59520  0.65770  Biso   1.000  H
  C41      1.0000 0.16210  0.84660  0.35407  Biso   1.000  C
  C42      1.0000 0.33790  0.34660  0.14593  Biso   1.000  C
  C43      1.0000 0.83790  0.15340  0.64593  Biso   1.000  C
  C44      1.0000 0.66210  0.65340  0.85407  Biso   1.000  C
  C45      1.0000 0.08410  0.94700  0.37625  Biso   1.000  C
  C46      1.0000 0.41590  0.44700  0.12375  Biso   1.000  C
  C47      1.0000 0.91590  0.05300  0.62375  Biso   1.000  C
  C48      1.0000 0.58410  0.55300  0.87625  Biso   1.000  C
  H45      1.0000 0.06720  0.03760  0.35520  Biso   1.000  H
  H46      1.0000 0.43280  0.53760  0.14480  Biso   1.000  H
  H47      1.0000 0.93280  0.96240  0.64480  Biso   1.000  H
  H48      1.0000 0.56720  0.46240  0.85520  Biso   1.000  H
  C49      1.0000 0.03050  0.91640  0.42882  Biso   1.000  C
  C50      1.0000 0.46950  0.41640  0.07118  Biso   1.000  C
  C51      1.0000 0.96950  0.08360  0.57118  Biso   1.000  C
  C52      1.0000 0.53050  0.58360  0.92882  Biso   1.000  C
  H49      1.0000 0.97720  0.98570  0.44340  Biso   1.000  H
  H50      1.0000 0.52280  0.48570  0.05660  Biso   1.000  H
  H51      1.0000 0.02280  0.01430  0.55660  Biso   1.000  H
  H52      1.0000 0.47720  0.51430  0.94340  Biso   1.000  H
  C53      1.0000 0.05470  0.78560  0.45975  Biso   1.000  C
  C54      1.0000 0.44530  0.28560  0.04025  Biso   1.000  C
  C55      1.0000 0.94530  0.21440  0.54025  Biso   1.000  C
  C56      1.0000 0.55470  0.71440  0.95975  Biso   1.000  C
  H53      1.0000 0.01790  0.76420  0.49560  Biso   1.000  H
  H54      1.0000 0.48210  0.26420  0.00440  Biso   1.000  H
  H55      1.0000 0.98210  0.23580  0.50440  Biso   1.000  H
  H56      1.0000 0.51790  0.73580  0.99560  Biso   1.000  H
  C57      1.0000 0.13320  0.68490  0.43833  Biso   1.000  C
  C58      1.0000 0.36680  0.18490  0.06167  Biso   1.000  C
  C59      1.0000 0.86680  0.31510  0.56167  Biso   1.000  C
  C60      1.0000 0.63320  0.81510  0.93833  Biso   1.000  C
  H57      1.0000 0.15070  0.59530  0.45990  Biso   1.000  H
  H58      1.0000 0.34930  0.09530  0.04010  Biso   1.000  H
  H59      1.0000 0.84930  0.40470  0.54010  Biso   1.000  H
  H60      1.0000 0.65070  0.90470  0.95990  Biso   1.000  H
  C61      1.0000 0.18600  0.71460  0.38582  Biso   1.000  C
  C62      1.0000 0.31400  0.21460  0.11418  Biso   1.000  C
  C63      1.0000 0.81400  0.28540  0.61418  Biso   1.000  C
  C64      1.0000 0.68600  0.78540  0.88582  Biso   1.000  C
  H61      1.0000 0.23890  0.64470  0.37130  Biso   1.000  H
  H62      1.0000 0.26110  0.14470  0.12870  Biso   1.000  H
  H63      1.0000 0.76110  0.35530  0.62870  Biso   1.000  H
  H64      1.0000 0.73890  0.85530  0.87130  Biso   1.000  H
  C65      1.0000 0.10060  0.58810  0.08556  Biso   1.000  C
  C66      1.0000 0.39940  0.08810  0.41444  Biso   1.000  C
  C67      1.0000 0.89940  0.41190  0.91444  Biso   1.000  C
  C68      1.0000 0.60060  0.91190  0.58556  Biso   1.000  C
  C69      1.0000 0.05890  0.43790  0.07395  Biso   1.000  C
  C70      1.0000 0.44110  0.93790  0.42605  Biso   1.000  C
  C71      1.0000 0.94110  0.56210  0.92605  Biso   1.000  C
  C72      1.0000 0.55890  0.06210  0.57395  Biso   1.000  C
  C73      1.0000 0.09360  0.34860  0.02789  Biso   1.000  C
  C74      1.0000 0.40640  0.84860  0.47211  Biso   1.000  C
  C75      1.0000 0.90640  0.65140  0.97211  Biso   1.000  C
  C76      1.0000 0.59360  0.15140  0.52789  Biso   1.000  C
  H65      1.0000 0.06500  0.24920  0.02310  Biso   1.000  H
  H66      1.0000 0.43500  0.74920  0.47690  Biso   1.000  H
  H67      1.0000 0.93500  0.75080  0.97690  Biso   1.000  H
  H68      1.0000 0.56500  0.25080  0.52310  Biso   1.000  H
  C77      1.0000 0.16980  0.40450  0.98892  Biso   1.000  C
  C78      1.0000 0.33020  0.90450  0.51108  Biso   1.000  C
  C79      1.0000 0.83020  0.59550  0.01108  Biso   1.000  C
  C80      1.0000 0.66980  0.09550  0.48892  Biso   1.000  C
  C81      1.0000 0.21030  0.55070  0.99482  Biso   1.000  C
  C82      1.0000 0.28970  0.05070  0.50518  Biso   1.000  C
  C83      1.0000 0.78970  0.44930  0.00518  Biso   1.000  C
  C84      1.0000 0.71030  0.94930  0.49482  Biso   1.000  C
  H69      1.0000 0.26240  0.58900  0.96760  Biso   1.000  H
  H70      1.0000 0.23760  0.08900  0.53240  Biso   1.000  H
  H71      1.0000 0.73760  0.41100  0.03240  Biso   1.000  H
  H72      1.0000 0.76240  0.91100  0.46760  Biso   1.000  H
  C85      1.0000 0.17430  0.63920  0.04026  Biso   1.000  C
  C86      1.0000 0.32570  0.13920  0.45974  Biso   1.000  C
  C87      1.0000 0.82570  0.36080  0.95974  Biso   1.000  C
  C88      1.0000 0.67430  0.86080  0.54026  Biso   1.000  C
  C89      1.0000 0.97140  0.37260  0.11023  Biso   1.000  C
  C90      1.0000 0.52860  0.87260  0.38977  Biso   1.000  C
  C91      1.0000 0.02860  0.62740  0.88977  Biso   1.000  C
  C92      1.0000 0.47140  0.12740  0.61023  Biso   1.000  C
  C93      1.0000 0.20650  0.31200  0.94071  Biso   1.000  C
  C94      1.0000 0.29350  0.81200  0.55929  Biso   1.000  C
  C95      1.0000 0.79350  0.68800  0.05929  Biso   1.000  C
  C96      1.0000 0.70650  0.18800  0.44071  Biso   1.000  C
  C97      1.0000 0.21460  0.79380  0.04235  Biso   1.000  C
  C98      1.0000 0.28540  0.29380  0.45765  Biso   1.000  C
  C99      1.0000 0.78540  0.20620  0.95765  Biso   1.000  C
  C100     1.0000 0.71460  0.70620  0.54235  Biso   1.000  C
  H73      1.0000 0.18900  0.07700  0.25400  Biso   1.000  H
  H74      1.0000 0.31100  0.57700  0.24600  Biso   1.000  H
  H75      1.0000 0.81100  0.92300  0.74600  Biso   1.000  H
  H76      1.0000 0.68900  0.42300  0.75400  Biso   1.000  H
