data_image0
_cell_length_a       10.007
_cell_length_b       15.251
_cell_length_c       11.5785
_cell_angle_alpha    90
_cell_angle_beta     99.599
_cell_angle_gamma    90

_symmetry_space_group_name_H-M    "P 1"
_symmetry_int_tables_number       1

loop_
  _symmetry_equiv_pos_as_xyz
  'x, y, z'

loop_
  _atom_site_label
  _atom_site_occupancy
  _atom_site_fract_x
  _atom_site_fract_y
  _atom_site_fract_z
  _atom_site_thermal_displace_type
  _atom_site_B_iso_or_equiv
  _atom_site_type_symbol
  Cu1      1.0000 0.08407  0.02448  0.74530  Biso   1.000  Cu
  Cu2      1.0000 0.41593  0.52448  0.75470  Biso   1.000  Cu
  Cu3      1.0000 0.91593  0.97552  0.25470  Biso   1.000  Cu
  Cu4      1.0000 0.58407  0.47552  0.24530  Biso   1.000  Cu
  C1       1.0000 0.91338  0.15441  0.77950  Biso   1.000  C
  C2       1.0000 0.58662  0.65441  0.72050  Biso   1.000  C
  C3       1.0000 0.08662  0.84559  0.22050  Biso   1.000  C
  C4       1.0000 0.41338  0.34559  0.27950  Biso   1.000  C
  C5       1.0000 0.83917  0.21309  0.85242  Biso   1.000  C
  C6       1.0000 0.66083  0.71309  0.64758  Biso   1.000  C
  C7       1.0000 0.16083  0.78691  0.14758  Biso   1.000  C
  C8       1.0000 0.33917  0.28691  0.35242  Biso   1.000  C
  C9       1.0000 0.87110  0.21034  0.97398  Biso   1.000  C
  C10      1.0000 0.62890  0.71034  0.52602  Biso   1.000  C
  C11      1.0000 0.12890  0.78966  0.02602  Biso   1.000  C
  C12      1.0000 0.37110  0.28966  0.47398  Biso   1.000  C
  H1       1.0000 0.93440  0.17000  0.00990  Biso   1.000  H
  H2       1.0000 0.56560  0.67000  0.49010  Biso   1.000  H
  H3       1.0000 0.06560  0.83000  0.99010  Biso   1.000  H
  H4       1.0000 0.43440  0.33000  0.50990  Biso   1.000  H
  C13      1.0000 0.80880  0.26779  0.04233  Biso   1.000  C
  C14      1.0000 0.69120  0.76779  0.45767  Biso   1.000  C
  C15      1.0000 0.19120  0.73221  0.95767  Biso   1.000  C
  C16      1.0000 0.30880  0.23221  0.54233  Biso   1.000  C
  C17      1.0000 0.71237  0.32682  0.98867  Biso   1.000  C
  C18      1.0000 0.78763  0.82682  0.51133  Biso   1.000  C
  C19      1.0000 0.28763  0.67318  0.01133  Biso   1.000  C
  C20      1.0000 0.21237  0.17318  0.48867  Biso   1.000  C
  H5       1.0000 0.67160  0.36590  0.03380  Biso   1.000  H
  H6       1.0000 0.82840  0.86590  0.46620  Biso   1.000  H
  H7       1.0000 0.32840  0.63410  0.96620  Biso   1.000  H
  H8       1.0000 0.17160  0.13410  0.53380  Biso   1.000  H
  C21      1.0000 0.67701  0.32739  0.86757  Biso   1.000  C
  C22      1.0000 0.82299  0.82739  0.63243  Biso   1.000  C
  C23      1.0000 0.32299  0.67261  0.13243  Biso   1.000  C
  C24      1.0000 0.17701  0.17261  0.36757  Biso   1.000  C
  C25      1.0000 0.74075  0.27096  0.79922  Biso   1.000  C
  C26      1.0000 0.75925  0.77096  0.70078  Biso   1.000  C
  C27      1.0000 0.25925  0.72904  0.20078  Biso   1.000  C
  C28      1.0000 0.24075  0.22904  0.29922  Biso   1.000  C
  H9       1.0000 0.71740  0.27210  0.71810  Biso   1.000  H
  H10      1.0000 0.78260  0.77210  0.78190  Biso   1.000  H
  H11      1.0000 0.28260  0.72790  0.28190  Biso   1.000  H
  H12      1.0000 0.21740  0.22790  0.21810  Biso   1.000  H
  C29      1.0000 0.57229  0.39034  0.80898  Biso   1.000  C
  C30      1.0000 0.92771  0.89034  0.69102  Biso   1.000  C
  C31      1.0000 0.42771  0.60966  0.19102  Biso   1.000  C
  C32      1.0000 0.07229  0.10966  0.30898  Biso   1.000  C
  C33      1.0000 0.21300  0.92271  0.56790  Biso   1.000  C
  C34      1.0000 0.28700  0.42271  0.93210  Biso   1.000  C
  C35      1.0000 0.78700  0.07729  0.43210  Biso   1.000  C
  C36      1.0000 0.71300  0.57729  0.06790  Biso   1.000  C
  H13      1.0000 0.12620  0.90840  0.53040  Biso   1.000  H
  H14      1.0000 0.37380  0.40840  0.96960  Biso   1.000  H
  H15      1.0000 0.87380  0.09160  0.46960  Biso   1.000  H
  H16      1.0000 0.62620  0.59160  0.03040  Biso   1.000  H
  C37      1.0000 0.32440  0.89055  0.52280  Biso   1.000  C
  C38      1.0000 0.17560  0.39055  0.97720  Biso   1.000  C
  C39      1.0000 0.67560  0.10945  0.47720  Biso   1.000  C
  C40      1.0000 0.82440  0.60945  0.02280  Biso   1.000  C
  H17      1.0000 0.31120  0.85490  0.45670  Biso   1.000  H
  H18      1.0000 0.18880  0.35490  0.04330  Biso   1.000  H
  H19      1.0000 0.68880  0.14510  0.54330  Biso   1.000  H
  H20      1.0000 0.81120  0.64510  0.95670  Biso   1.000  H
  C41      1.0000 0.45310  0.91146  0.57590  Biso   1.000  C
  C42      1.0000 0.04690  0.41146  0.92410  Biso   1.000  C
  C43      1.0000 0.54690  0.08854  0.42410  Biso   1.000  C
  C44      1.0000 0.95310  0.58854  0.07590  Biso   1.000  C
  H21      1.0000 0.52750  0.89050  0.54580  Biso   1.000  H
  H22      1.0000 0.97250  0.39050  0.95420  Biso   1.000  H
  H23      1.0000 0.47250  0.10950  0.45420  Biso   1.000  H
  H24      1.0000 0.02750  0.60950  0.04580  Biso   1.000  H
  C45      1.0000 0.47180  0.96478  0.67600  Biso   1.000  C
  C46      1.0000 0.02820  0.46478  0.82400  Biso   1.000  C
  C47      1.0000 0.52820  0.03522  0.32400  Biso   1.000  C
  C48      1.0000 0.97180  0.53522  0.17600  Biso   1.000  C
  C49      1.0000 0.60080  0.99200  0.73770  Biso   1.000  C
  C50      1.0000 0.89920  0.49200  0.76230  Biso   1.000  C
  C51      1.0000 0.39920  0.00800  0.26230  Biso   1.000  C
  C52      1.0000 0.10080  0.50800  0.23770  Biso   1.000  C
  H25      1.0000 0.67910  0.97360  0.71150  Biso   1.000  H
  H26      1.0000 0.82090  0.47360  0.78850  Biso   1.000  H
  H27      1.0000 0.32090  0.02640  0.28850  Biso   1.000  H
  H28      1.0000 0.17910  0.52640  0.21150  Biso   1.000  H
  C53      1.0000 0.61130  0.04390  0.83330  Biso   1.000  C
  C54      1.0000 0.88870  0.54390  0.66670  Biso   1.000  C
  C55      1.0000 0.38870  0.95610  0.16670  Biso   1.000  C
  C56      1.0000 0.11130  0.45610  0.33330  Biso   1.000  C
  H29      1.0000 0.69670  0.05930  0.87290  Biso   1.000  H
  H30      1.0000 0.80330  0.55930  0.62710  Biso   1.000  H
  H31      1.0000 0.30330  0.94070  0.12710  Biso   1.000  H
  H32      1.0000 0.19670  0.44070  0.37290  Biso   1.000  H
  C57      1.0000 0.49370  0.07549  0.87480  Biso   1.000  C
  C58      1.0000 0.00630  0.57549  0.62520  Biso   1.000  C
  C59      1.0000 0.50630  0.92451  0.12520  Biso   1.000  C
  C60      1.0000 0.99370  0.42451  0.37480  Biso   1.000  C
  C61      1.0000 0.49540  0.13224  0.97050  Biso   1.000  C
  C62      1.0000 0.00460  0.63224  0.52950  Biso   1.000  C
  C63      1.0000 0.50460  0.86776  0.02950  Biso   1.000  C
  C64      1.0000 0.99540  0.36776  0.47050  Biso   1.000  C
  H33      1.0000 0.57760  0.15170  0.01220  Biso   1.000  H
  H34      1.0000 0.92240  0.65170  0.48780  Biso   1.000  H
  H35      1.0000 0.42240  0.84830  0.98780  Biso   1.000  H
  H36      1.0000 0.07760  0.34830  0.51220  Biso   1.000  H
  C65      1.0000 0.37690  0.15884  0.00230  Biso   1.000  C
  C66      1.0000 0.12310  0.65884  0.49770  Biso   1.000  C
  C67      1.0000 0.62310  0.84116  0.99770  Biso   1.000  C
  C68      1.0000 0.87690  0.34116  0.50230  Biso   1.000  C
  H37      1.0000 0.37760  0.19670  0.06540  Biso   1.000  H
  H38      1.0000 0.12240  0.69670  0.43460  Biso   1.000  H
  H39      1.0000 0.62240  0.80330  0.93460  Biso   1.000  H
  H40      1.0000 0.87760  0.30330  0.56540  Biso   1.000  H
  C69      1.0000 0.25400  0.12874  0.93940  Biso   1.000  C
  C70      1.0000 0.24600  0.62874  0.56060  Biso   1.000  C
  C71      1.0000 0.74600  0.87126  0.06060  Biso   1.000  C
  C72      1.0000 0.75400  0.37126  0.43940  Biso   1.000  C
  H41      1.0000 0.17360  0.14730  0.96180  Biso   1.000  H
  H42      1.0000 0.32640  0.64730  0.53820  Biso   1.000  H
  H43      1.0000 0.82640  0.85270  0.03820  Biso   1.000  H
  H44      1.0000 0.67360  0.35270  0.46180  Biso   1.000  H
  C73      1.0000 0.36570  0.04922  0.81644  Biso   1.000  C
  C74      1.0000 0.13430  0.54922  0.68356  Biso   1.000  C
  C75      1.0000 0.63430  0.95078  0.18356  Biso   1.000  C
  C76      1.0000 0.86570  0.45078  0.31644  Biso   1.000  C
  C77      1.0000 0.35430  0.99385  0.71579  Biso   1.000  C
  C78      1.0000 0.14570  0.49385  0.78421  Biso   1.000  C
  C79      1.0000 0.64570  0.00615  0.28421  Biso   1.000  C
  C80      1.0000 0.85430  0.50615  0.21579  Biso   1.000  C
  N1       1.0000 0.22717  0.97302  0.66256  Biso   1.000  N
  N2       1.0000 0.27283  0.47302  0.83744  Biso   1.000  N
  N3       1.0000 0.77283  0.02698  0.33744  Biso   1.000  N
  N4       1.0000 0.72717  0.52698  0.16256  Biso   1.000  N
  N5       1.0000 0.24789  0.07461  0.84875  Biso   1.000  N
  N6       1.0000 0.25211  0.57461  0.65125  Biso   1.000  N
  N7       1.0000 0.75211  0.92539  0.15125  Biso   1.000  N
  N8       1.0000 0.74789  0.42539  0.34875  Biso   1.000  N
  O1       1.0000 0.92348  0.17430  0.67881  Biso   1.000  O
  O2       1.0000 0.57652  0.67430  0.82119  Biso   1.000  O
  O3       1.0000 0.07652  0.82570  0.32119  Biso   1.000  O
  O4       1.0000 0.42348  0.32570  0.17881  Biso   1.000  O
  O5       1.0000 0.96556  0.08566  0.83212  Biso   1.000  O
  O6       1.0000 0.53444  0.58566  0.66788  Biso   1.000  O
  O7       1.0000 0.03444  0.91434  0.16788  Biso   1.000  O
  O8       1.0000 0.46556  0.41434  0.33212  Biso   1.000  O
  O9       1.0000 0.84020  0.26896  0.16103  Biso   1.000  O
  O10      1.0000 0.65980  0.76896  0.33897  Biso   1.000  O
  O11      1.0000 0.15980  0.73104  0.83897  Biso   1.000  O
  O12      1.0000 0.34020  0.23104  0.66103  Biso   1.000  O
  H45      1.0000 0.88950  0.22720  0.18330  Biso   1.000  H
  H46      1.0000 0.61050  0.72720  0.31670  Biso   1.000  H
  H47      1.0000 0.11050  0.77280  0.81670  Biso   1.000  H
  H48      1.0000 0.38950  0.27280  0.68330  Biso   1.000  H
  O13      1.0000 0.56195  0.46356  0.85927  Biso   1.000  O
  O14      1.0000 0.93805  0.96356  0.64073  Biso   1.000  O
  O15      1.0000 0.43805  0.53644  0.14073  Biso   1.000  O
  O16      1.0000 0.06195  0.03644  0.35927  Biso   1.000  O
  O17      1.0000 0.49993  0.37104  0.71426  Biso   1.000  O
  O18      1.0000 0.00007  0.87104  0.78574  Biso   1.000  O
  O19      1.0000 0.50007  0.62896  0.28574  Biso   1.000  O
  O20      1.0000 0.99993  0.12896  0.21426  Biso   1.000  O
