data_image0
_cell_length_a       22.268
_cell_length_b       14.855
_cell_length_c       5.67
_cell_angle_alpha    90
_cell_angle_beta     90
_cell_angle_gamma    90

_symmetry_space_group_name_H-M    "P 1"
_symmetry_int_tables_number       1

loop_
  _symmetry_equiv_pos_as_xyz
  'x, y, z'

loop_
  _atom_site_label
  _atom_site_occupancy
  _atom_site_fract_x
  _atom_site_fract_y
  _atom_site_fract_z
  _atom_site_thermal_displace_type
  _atom_site_B_iso_or_equiv
  _atom_site_type_symbol
  Cu1      1.0000 0.15440  0.12400  0.25000  Biso   1.000  Cu
  Cu2      1.0000 0.34560  0.62400  0.75000  Biso   1.000  Cu
  Cu3      1.0000 0.65440  0.37600  0.25000  Biso   1.000  Cu
  Cu4      1.0000 0.84560  0.87600  0.75000  Biso   1.000  Cu
  S1       1.0000 0.38650  0.14180  0.54730  Biso   1.000  S
  S2       1.0000 0.11350  0.64180  0.04730  Biso   1.000  S
  S3       1.0000 0.88650  0.35820  0.54730  Biso   1.000  S
  S4       1.0000 0.61350  0.85820  0.04730  Biso   1.000  S
  S5       1.0000 0.42260  0.14750  0.22470  Biso   1.000  S
  S6       1.0000 0.07740  0.64750  0.72470  Biso   1.000  S
  S7       1.0000 0.92260  0.35250  0.22470  Biso   1.000  S
  S8       1.0000 0.57740  0.85250  0.72470  Biso   1.000  S
  O1       1.0000 0.22380  0.04370  0.23970  Biso   1.000  O
  O2       1.0000 0.27620  0.54370  0.73970  Biso   1.000  O
  O3       1.0000 0.72380  0.45630  0.23970  Biso   1.000  O
  O4       1.0000 0.77620  0.95630  0.73970  Biso   1.000  O
  O5       1.0000 0.23950  0.07810  0.60640  Biso   1.000  O
  O6       1.0000 0.26050  0.57810  0.10640  Biso   1.000  O
  O7       1.0000 0.73950  0.42190  0.60640  Biso   1.000  O
  O8       1.0000 0.76050  0.92190  0.10640  Biso   1.000  O
  O9       1.0000 0.59250  0.29650  0.37680  Biso   1.000  O
  O10      1.0000 0.90750  0.79650  0.87680  Biso   1.000  O
  O11      1.0000 0.09250  0.20350  0.37680  Biso   1.000  O
  O12      1.0000 0.40750  0.70350  0.87680  Biso   1.000  O
  O13      1.0000 0.57450  0.22290  0.05000  Biso   1.000  O
  O14      1.0000 0.92550  0.72290  0.55000  Biso   1.000  O
  O15      1.0000 0.07450  0.27710  0.05000  Biso   1.000  O
  O16      1.0000 0.42550  0.77710  0.55000  Biso   1.000  O
  O17      1.0000 0.13650  0.12590  0.86520  Biso   1.000  O
  O18      1.0000 0.36350  0.62590  0.36520  Biso   1.000  O
  O19      1.0000 0.63650  0.37410  0.86520  Biso   1.000  O
  O20      1.0000 0.86350  0.87410  0.36520  Biso   1.000  O
  N1       1.0000 0.10100  0.01520  0.29580  Biso   1.000  N
  N2       1.0000 0.39900  0.51520  0.79580  Biso   1.000  N
  N3       1.0000 0.60100  0.48480  0.29580  Biso   1.000  N
  N4       1.0000 0.89900  0.98480  0.79580  Biso   1.000  N
  N5       1.0000 0.21460  0.22860  0.22280  Biso   1.000  N
  N6       1.0000 0.28540  0.72860  0.72280  Biso   1.000  N
  N7       1.0000 0.71460  0.27140  0.22280  Biso   1.000  N
  N8       1.0000 0.78540  0.77140  0.72280  Biso   1.000  N
  C1       1.0000 0.25370  0.04420  0.42600  Biso   1.000  C
  C2       1.0000 0.24630  0.54420  0.92600  Biso   1.000  C
  C3       1.0000 0.75370  0.45580  0.42600  Biso   1.000  C
  C4       1.0000 0.74630  0.95580  0.92600  Biso   1.000  C
  C5       1.0000 0.31490  0.99690  0.39730  Biso   1.000  C
  C6       1.0000 0.18510  0.49690  0.89730  Biso   1.000  C
  C7       1.0000 0.81490  0.50310  0.39730  Biso   1.000  C
  C8       1.0000 0.68510  0.00310  0.89730  Biso   1.000  C
  C9       1.0000 0.36050  0.02540  0.57830  Biso   1.000  C
  C10      1.0000 0.13950  0.52540  0.07830  Biso   1.000  C
  C11      1.0000 0.86050  0.47460  0.57830  Biso   1.000  C
  C12      1.0000 0.63950  0.97460  0.07830  Biso   1.000  C
  C13      1.0000 0.49670  0.10090  0.27580  Biso   1.000  C
  C14      1.0000 0.00330  0.60090  0.77580  Biso   1.000  C
  C15      1.0000 0.99670  0.39910  0.27580  Biso   1.000  C
  C16      1.0000 0.50330  0.89910  0.77580  Biso   1.000  C
  C17      1.0000 0.54160  0.15920  0.40610  Biso   1.000  C
  C18      1.0000 0.95840  0.65920  0.90610  Biso   1.000  C
  C19      1.0000 0.04160  0.34080  0.40610  Biso   1.000  C
  C20      1.0000 0.45840  0.84080  0.90610  Biso   1.000  C
  C21      1.0000 0.57110  0.23100  0.25980  Biso   1.000  C
  C22      1.0000 0.92890  0.73100  0.75980  Biso   1.000  C
  C23      1.0000 0.07110  0.26900  0.25980  Biso   1.000  C
  C24      1.0000 0.42890  0.76900  0.75980  Biso   1.000  C
  C25      1.0000 0.06570  0.99920  0.48370  Biso   1.000  C
  C26      1.0000 0.43430  0.49920  0.98370  Biso   1.000  C
  C27      1.0000 0.56570  0.50080  0.48370  Biso   1.000  C
  C28      1.0000 0.93430  0.00080  0.98370  Biso   1.000  C
  C29      1.0000 0.03150  0.92120  0.50740  Biso   1.000  C
  C30      1.0000 0.46850  0.42120  0.00740  Biso   1.000  C
  C31      1.0000 0.53150  0.57880  0.50740  Biso   1.000  C
  C32      1.0000 0.96850  0.07880  0.00740  Biso   1.000  C
  C33      1.0000 0.03560  0.85520  0.33110  Biso   1.000  C
  C34      1.0000 0.46440  0.35520  0.83110  Biso   1.000  C
  C35      1.0000 0.53560  0.64480  0.33110  Biso   1.000  C
  C36      1.0000 0.96440  0.14480  0.83110  Biso   1.000  C
  C37      1.0000 0.07200  0.87400  0.14430  Biso   1.000  C
  C38      1.0000 0.42800  0.37400  0.64430  Biso   1.000  C
  C39      1.0000 0.57200  0.62600  0.14430  Biso   1.000  C
  C40      1.0000 0.92800  0.12600  0.64430  Biso   1.000  C
  C41      1.0000 0.10500  0.95160  0.13490  Biso   1.000  C
  C42      1.0000 0.39500  0.45160  0.63490  Biso   1.000  C
  C43      1.0000 0.60500  0.54840  0.13490  Biso   1.000  C
  C44      1.0000 0.89500  0.04840  0.63490  Biso   1.000  C
  C45      1.0000 0.21660  0.29700  0.37380  Biso   1.000  C
  C46      1.0000 0.28340  0.79700  0.87380  Biso   1.000  C
  C47      1.0000 0.71660  0.20300  0.37380  Biso   1.000  C
  C48      1.0000 0.78340  0.70300  0.87380  Biso   1.000  C
  C49      1.0000 0.25880  0.36500  0.35370  Biso   1.000  C
  C50      1.0000 0.24120  0.86500  0.85370  Biso   1.000  C
  C51      1.0000 0.75880  0.13500  0.35370  Biso   1.000  C
  C52      1.0000 0.74120  0.63500  0.85370  Biso   1.000  C
  C53      1.0000 0.29770  0.36250  0.17720  Biso   1.000  C
  C54      1.0000 0.20230  0.86250  0.67720  Biso   1.000  C
  C55      1.0000 0.79770  0.13750  0.17720  Biso   1.000  C
  C56      1.0000 0.70230  0.63750  0.67720  Biso   1.000  C
  C57      1.0000 0.29910  0.28920  0.02260  Biso   1.000  C
  C58      1.0000 0.20090  0.78920  0.52260  Biso   1.000  C
  C59      1.0000 0.79910  0.21080  0.02260  Biso   1.000  C
  C60      1.0000 0.70090  0.71080  0.52260  Biso   1.000  C
  C61      1.0000 0.25450  0.22520  0.05210  Biso   1.000  C
  C62      1.0000 0.24550  0.72520  0.55210  Biso   1.000  C
  C63      1.0000 0.75450  0.27480  0.05210  Biso   1.000  C
  C64      1.0000 0.74550  0.77480  0.55210  Biso   1.000  C
  H1       1.0000 0.33300  0.01200  0.22380  Biso   1.000  H
  H2       1.0000 0.16700  0.51200  0.72380  Biso   1.000  H
  H3       1.0000 0.83300  0.48800  0.22380  Biso   1.000  H
  H4       1.0000 0.66700  0.98800  0.72380  Biso   1.000  H
  H5       1.0000 0.30940  0.92530  0.40430  Biso   1.000  H
  H6       1.0000 0.19060  0.42530  0.90430  Biso   1.000  H
  H7       1.0000 0.80940  0.57470  0.40430  Biso   1.000  H
  H8       1.0000 0.69060  0.07470  0.90430  Biso   1.000  H
  H9       1.0000 0.39820  0.97970  0.56370  Biso   1.000  H
  H10      1.0000 0.10180  0.47970  0.06370  Biso   1.000  H
  H11      1.0000 0.89820  0.52030  0.56370  Biso   1.000  H
  H12      1.0000 0.60180  0.02030  0.06370  Biso   1.000  H
  H13      1.0000 0.34120  0.01500  0.74650  Biso   1.000  H
  H14      1.0000 0.15880  0.51500  0.24650  Biso   1.000  H
  H15      1.0000 0.84120  0.48500  0.74650  Biso   1.000  H
  H16      1.0000 0.65880  0.98500  0.24650  Biso   1.000  H
  H17      1.0000 0.51680  0.07740  0.12140  Biso   1.000  H
  H18      1.0000 0.98320  0.57740  0.62140  Biso   1.000  H
  H19      1.0000 0.01680  0.42260  0.12140  Biso   1.000  H
  H20      1.0000 0.48320  0.92260  0.62140  Biso   1.000  H
  H21      1.0000 0.49220  0.03880  0.38340  Biso   1.000  H
  H22      1.0000 0.00780  0.53880  0.88340  Biso   1.000  H
  H23      1.0000 0.99220  0.46120  0.38340  Biso   1.000  H
  H24      1.0000 0.50780  0.96120  0.88340  Biso   1.000  H
  H25      1.0000 0.51800  0.19180  0.54980  Biso   1.000  H
  H26      1.0000 0.98200  0.69180  0.04980  Biso   1.000  H
  H27      1.0000 0.01800  0.30820  0.54980  Biso   1.000  H
  H28      1.0000 0.48200  0.80820  0.04980  Biso   1.000  H
  H29      1.0000 0.57400  0.11800  0.48810  Biso   1.000  H
  H30      1.0000 0.92600  0.61800  0.98810  Biso   1.000  H
  H31      1.0000 0.07400  0.38200  0.48810  Biso   1.000  H
  H32      1.0000 0.42600  0.88200  0.98810  Biso   1.000  H
  H33      1.0000 0.06360  0.04920  0.62260  Biso   1.000  H
  H34      1.0000 0.43640  0.54920  0.12260  Biso   1.000  H
  H35      1.0000 0.56360  0.45080  0.62260  Biso   1.000  H
  H36      1.0000 0.93640  0.95080  0.12260  Biso   1.000  H
  H37      1.0000 0.00150  0.91130  0.65340  Biso   1.000  H
  H38      1.0000 0.49850  0.41130  0.15340  Biso   1.000  H
  H39      1.0000 0.50150  0.58870  0.65340  Biso   1.000  H
  H40      1.0000 0.99850  0.08870  0.15340  Biso   1.000  H
  H41      1.0000 0.01010  0.79250  0.34320  Biso   1.000  H
  H42      1.0000 0.48990  0.29250  0.84320  Biso   1.000  H
  H43      1.0000 0.51010  0.70750  0.34320  Biso   1.000  H
  H44      1.0000 0.98990  0.20750  0.84320  Biso   1.000  H
  H45      1.0000 0.07470  0.82530  0.00020  Biso   1.000  H
  H46      1.0000 0.42530  0.32530  0.50020  Biso   1.000  H
  H47      1.0000 0.57470  0.67470  0.00020  Biso   1.000  H
  H48      1.0000 0.92530  0.17470  0.50020  Biso   1.000  H
  H49      1.0000 0.13600  0.96130  0.98830  Biso   1.000  H
  H50      1.0000 0.36400  0.46130  0.48830  Biso   1.000  H
  H51      1.0000 0.63600  0.53870  0.98830  Biso   1.000  H
  H52      1.0000 0.86400  0.03870  0.48830  Biso   1.000  H
  H53      1.0000 0.18430  0.29900  0.51970  Biso   1.000  H
  H54      1.0000 0.31570  0.79900  0.01970  Biso   1.000  H
  H55      1.0000 0.68430  0.20100  0.51970  Biso   1.000  H
  H56      1.0000 0.81570  0.70100  0.01970  Biso   1.000  H
  H57      1.0000 0.25980  0.42100  0.47700  Biso   1.000  H
  H58      1.0000 0.24020  0.92100  0.97700  Biso   1.000  H
  H59      1.0000 0.75980  0.07900  0.47700  Biso   1.000  H
  H60      1.0000 0.74020  0.57900  0.97700  Biso   1.000  H
  H61      1.0000 0.32950  0.41740  0.15220  Biso   1.000  H
  H62      1.0000 0.17050  0.91740  0.65220  Biso   1.000  H
  H63      1.0000 0.82950  0.08260  0.15220  Biso   1.000  H
  H64      1.0000 0.67050  0.58260  0.65220  Biso   1.000  H
  H65      1.0000 0.33320  0.28260  0.88780  Biso   1.000  H
  H66      1.0000 0.16680  0.78260  0.38780  Biso   1.000  H
  H67      1.0000 0.83320  0.21740  0.88780  Biso   1.000  H
  H68      1.0000 0.66680  0.71740  0.38780  Biso   1.000  H
  H69      1.0000 0.25280  0.16830  0.93510  Biso   1.000  H
  H70      1.0000 0.24720  0.66830  0.43510  Biso   1.000  H
  H71      1.0000 0.75280  0.33170  0.93510  Biso   1.000  H
  H72      1.0000 0.74720  0.83170  0.43510  Biso   1.000  H
