data_image0
_cell_length_a       7.3837
_cell_length_b       12.0051
_cell_length_c       16.1522
_cell_angle_alpha    70.316
_cell_angle_beta     78.843
_cell_angle_gamma    85.92

_symmetry_space_group_name_H-M    "P 1"
_symmetry_int_tables_number       1

loop_
  _symmetry_equiv_pos_as_xyz
  'x, y, z'

loop_
  _atom_site_label
  _atom_site_occupancy
  _atom_site_fract_x
  _atom_site_fract_y
  _atom_site_fract_z
  _atom_site_thermal_displace_type
  _atom_site_B_iso_or_equiv
  _atom_site_type_symbol
  U1       1.0000 0.50000  0.50000  0.50000  Biso   1.000  U
  U2       1.0000 0.50000  0.00000  0.00000  Biso   1.000  U
  Cu1      1.0000 0.07448  0.24991  0.28445  Biso   1.000  Cu
  Cu2      1.0000 0.92552  0.75009  0.71555  Biso   1.000  Cu
  Cl1      1.0000 0.74849  0.22756  0.31849  Biso   1.000  Cl
  Cl2      1.0000 0.25151  0.77244  0.68151  Biso   1.000  Cl
  N1       1.0000 0.08510  0.22710  0.41112  Biso   1.000  N
  N2       1.0000 0.91490  0.77290  0.58888  Biso   1.000  N
  C1       1.0000 0.12200  0.32190  0.87890  Biso   1.000  C
  C2       1.0000 0.87800  0.67810  0.12110  Biso   1.000  C
  N3       1.0000 0.22100  0.09050  0.31870  Biso   1.000  N
  N4       1.0000 0.77900  0.90950  0.68130  Biso   1.000  N
  C3       1.0000 0.32190  0.93810  0.44069  Biso   1.000  C
  C4       1.0000 0.67810  0.06190  0.55931  Biso   1.000  C
  H1       1.0000 0.33482  0.90985  0.50040  Biso   1.000  H
  H2       1.0000 0.66518  0.09015  0.49960  Biso   1.000  H
  C5       1.0000 0.15720  0.36970  0.09626  Biso   1.000  C
  C6       1.0000 0.84280  0.63030  0.90374  Biso   1.000  C
  C7       1.0000 0.11210  0.16220  0.68550  Biso   1.000  C
  C8       1.0000 0.88790  0.83780  0.31450  Biso   1.000  C
  C9       1.0000 0.45390  0.74750  0.42210  Biso   1.000  C
  C10      1.0000 0.54610  0.25250  0.57790  Biso   1.000  C
  C11      1.0000 0.00200  0.19380  0.13050  Biso   1.000  C
  C12      1.0000 0.99800  0.80620  0.86950  Biso   1.000  C
  H3       1.0000 0.94147  0.12796  0.17326  Biso   1.000  H
  H4       1.0000 0.05853  0.87204  0.82674  Biso   1.000  H
  C13      1.0000 0.17500  0.10210  0.54725  Biso   1.000  C
  C14      1.0000 0.82500  0.89790  0.45275  Biso   1.000  C
  H5       1.0000 0.22941  0.03245  0.57883  Biso   1.000  H
  H6       1.0000 0.77059  0.96755  0.42117  Biso   1.000  H
  C15      1.0000 0.29760  0.56070  0.08410  Biso   1.000  C
  C16      1.0000 0.70240  0.43930  0.91590  Biso   1.000  C
  H7       1.0000 0.30837  0.58721  0.02228  Biso   1.000  H
  H8       1.0000 0.69163  0.41279  0.97772  Biso   1.000  H
  C17      1.0000 0.42370  0.75370  0.07670  Biso   1.000  C
  C18      1.0000 0.57630  0.24630  0.92330  Biso   1.000  C
  C19      1.0000 0.36550  0.91590  0.29530  Biso   1.000  C
  C20      1.0000 0.63450  0.08410  0.70470  Biso   1.000  C
  C21      1.0000 0.16740  0.12720  0.45753  Biso   1.000  C
  C22      1.0000 0.83260  0.87280  0.54247  Biso   1.000  C
  C23      1.0000 0.01470  0.28490  0.54102  Biso   1.000  C
  C24      1.0000 0.98530  0.71510  0.45898  Biso   1.000  C
  H9       1.0000 0.96263  0.33985  0.56799  Biso   1.000  H
  H10      1.0000 0.03737  0.66015  0.43201  Biso   1.000  H
  C25      1.0000 0.28430  0.02630  0.26580  Biso   1.000  C
  C26      1.0000 0.71570  0.97370  0.73420  Biso   1.000  C
  H11      1.0000 0.27331  0.05741  0.20594  Biso   1.000  H
  H12      1.0000 0.72669  0.94259  0.79406  Biso   1.000  H
  C27      1.0000 0.38200  0.87120  0.38500  Biso   1.000  C
  C28      1.0000 0.61800  0.12880  0.61500  Biso   1.000  C
  C29      1.0000 0.10140  0.30680  0.97754  Biso   1.000  C
  C30      1.0000 0.89860  0.69320  0.02246  Biso   1.000  C
  C31      1.0000 0.26630  0.47750  0.26550  Biso   1.000  C
  C32      1.0000 0.73370  0.52250  0.73450  Biso   1.000  C
  H13      1.0000 0.25709  0.44841  0.32724  Biso   1.000  H
  H14      1.0000 0.74291  0.55159  0.67276  Biso   1.000  H
  C33      1.0000 0.00880  0.30310  0.45260  Biso   1.000  C
  C34      1.0000 0.99120  0.69690  0.54740  Biso   1.000  C
  H15      1.0000 0.94976  0.37046  0.42072  Biso   1.000  H
  H16      1.0000 0.05024  0.62954  0.57928  Biso   1.000  H
  C35      1.0000 0.35470  0.63100  0.12720  Biso   1.000  C
  C36      1.0000 0.64530  0.36900  0.87280  Biso   1.000  C
  C37      1.0000 0.09940  0.18360  0.58895  Biso   1.000  C
  C38      1.0000 0.90060  0.81640  0.41105  Biso   1.000  C
  C39      1.0000 0.24190  0.04820  0.40516  Biso   1.000  C
  C40      1.0000 0.75810  0.95180  0.59484  Biso   1.000  C
  C41      1.0000 0.17240  0.39020  0.00514  Biso   1.000  C
  C42      1.0000 0.82760  0.60980  0.99486  Biso   1.000  C
  H17      1.0000 0.22892  0.45828  0.96343  Biso   1.000  H
  H18      1.0000 0.77108  0.54172  0.03657  Biso   1.000  H
  C43      1.0000 0.22480  0.45090  0.13499  Biso   1.000  C
  C44      1.0000 0.77520  0.54910  0.86501  Biso   1.000  C
  C45      1.0000 0.34180  0.58790  0.21900  Biso   1.000  C
  C46      1.0000 0.65820  0.41210  0.78100  Biso   1.000  C
  H19      1.0000 0.38310  0.63241  0.24883  Biso   1.000  H
  H20      1.0000 0.61690  0.36759  0.75117  Biso   1.000  H
  C47      1.0000 0.01250  0.20860  0.04140  Biso   1.000  C
  C48      1.0000 0.98750  0.79140  0.95860  Biso   1.000  C
  H21      1.0000 0.96050  0.15322  0.02433  Biso   1.000  H
  H22      1.0000 0.03950  0.84678  0.97567  Biso   1.000  H
  O1       1.0000 0.50190  0.80580  0.11579  Biso   1.000  O
  O2       1.0000 0.49810  0.19420  0.88421  Biso   1.000  O
  O3       1.0000 0.51400  0.68868  0.37132  Biso   1.000  O
  O4       1.0000 0.48600  0.31132  0.62868  Biso   1.000  O
  O5       1.0000 0.44390  0.70175  0.50502  Biso   1.000  O
  O6       1.0000 0.55610  0.29825  0.49498  Biso   1.000  O
  O7       1.0000 0.39890  0.80553  0.99786  Biso   1.000  O
  O8       1.0000 0.60110  0.19447  0.00214  Biso   1.000  O
  O9       1.0000 0.06950  0.23200  0.86470  Biso   1.000  O
  O10      1.0000 0.93050  0.76800  0.13530  Biso   1.000  O
  N5       1.0000 0.20600  0.41070  0.22485  Biso   1.000  N
  N6       1.0000 0.79400  0.58930  0.77515  Biso   1.000  N
  N7       1.0000 0.07610  0.27110  0.15767  Biso   1.000  N
  N8       1.0000 0.92390  0.72890  0.84233  Biso   1.000  N
  O11      1.0000 0.18650  0.07350  0.72815  Biso   1.000  O
  O12      1.0000 0.81350  0.92650  0.27185  Biso   1.000  O
  O13      1.0000 0.03890  0.24700  0.71295  Biso   1.000  O
  O14      1.0000 0.96110  0.75300  0.28705  Biso   1.000  O
  O15      1.0000 0.18300  0.41460  0.82288  Biso   1.000  O
  O16      1.0000 0.81700  0.58540  0.17712  Biso   1.000  O
  O17      1.0000 0.72330  0.50950  0.52022  Biso   1.000  O
  O18      1.0000 0.27670  0.49050  0.47978  Biso   1.000  O
  O19      1.0000 0.69960  0.97800  0.92813  Biso   1.000  O
  O20      1.0000 0.30040  0.02200  0.07187  Biso   1.000  O
  O21      1.0000 0.72940  0.97790  0.09949  Biso   1.000  O
  O22      1.0000 0.27060  0.02210  0.90051  Biso   1.000  O
  H23      1.0000 0.66433  0.00630  0.12998  Biso   1.000  H
  H24      1.0000 0.33567  0.99370  0.87002  Biso   1.000  H
  H25      1.0000 0.79368  0.91139  0.11013  Biso   1.000  H
  H26      1.0000 0.20632  0.08861  0.88987  Biso   1.000  H
  O23      1.0000 0.34720  0.51880  0.64620  Biso   1.000  O
  O24      1.0000 0.65280  0.48120  0.35380  Biso   1.000  O
  H27      1.0000 0.36710  0.58734  0.64704  Biso   1.000  H
  H28      1.0000 0.63290  0.41266  0.35296  Biso   1.000  H
  H29      1.0000 0.39084  0.46682  0.68817  Biso   1.000  H
  H30      1.0000 0.60916  0.53318  0.31183  Biso   1.000  H
  H31      1.0000 0.04800  0.24100  0.77600  Biso   1.000  H
  H32      1.0000 0.95200  0.75900  0.22400  Biso   1.000  H
  O25      1.0000 0.42210  0.69100  0.86210  Biso   1.000  O
  O26      1.0000 0.57790  0.30900  0.13790  Biso   1.000  O
