data_image0
_cell_length_a       5.7108
_cell_length_b       21.8212
_cell_length_c       13.4418
_cell_angle_alpha    90
_cell_angle_beta     101.527
_cell_angle_gamma    90

_symmetry_space_group_name_H-M    "P 1"
_symmetry_int_tables_number       1

loop_
  _symmetry_equiv_pos_as_xyz
  'x, y, z'

loop_
  _atom_site_label
  _atom_site_occupancy
  _atom_site_fract_x
  _atom_site_fract_y
  _atom_site_fract_z
  _atom_site_thermal_displace_type
  _atom_site_B_iso_or_equiv
  _atom_site_type_symbol
  O1       1.0000 0.27720  0.98221  0.03910  Biso   1.000  O
  O2       1.0000 0.72280  0.48221  0.46090  Biso   1.000  O
  O3       1.0000 0.72280  0.01779  0.96090  Biso   1.000  O
  O4       1.0000 0.27720  0.51779  0.53910  Biso   1.000  O
  H1       1.0000 0.30090  0.98530  0.10340  Biso   1.000  H
  H2       1.0000 0.69910  0.48530  0.39660  Biso   1.000  H
  H3       1.0000 0.69910  0.01470  0.89660  Biso   1.000  H
  H4       1.0000 0.30090  0.51470  0.60340  Biso   1.000  H
  H5       1.0000 0.13250  0.99160  0.01500  Biso   1.000  H
  H6       1.0000 0.86750  0.49160  0.48500  Biso   1.000  H
  H7       1.0000 0.86750  0.00840  0.98500  Biso   1.000  H
  H8       1.0000 0.13250  0.50840  0.51500  Biso   1.000  H
  Cu1      1.0000 0.00000  0.50000  0.00000  Biso   1.000  Cu
  Cu2      1.0000 0.00000  0.00000  0.50000  Biso   1.000  Cu
  F1       1.0000 0.28000  0.24733  0.81838  Biso   1.000  F
  F2       1.0000 0.72000  0.74733  0.68162  Biso   1.000  F
  F3       1.0000 0.72000  0.75267  0.18162  Biso   1.000  F
  F4       1.0000 0.28000  0.25267  0.31838  Biso   1.000  F
  O5       1.0000 0.20720  0.50596  0.89700  Biso   1.000  O
  O6       1.0000 0.79280  0.00596  0.60300  Biso   1.000  O
  O7       1.0000 0.79280  0.49404  0.10300  Biso   1.000  O
  O8       1.0000 0.20720  0.99404  0.39700  Biso   1.000  O
  O9       1.0000 0.32330  0.50601  0.75049  Biso   1.000  O
  O10      1.0000 0.67670  0.00601  0.74951  Biso   1.000  O
  O11      1.0000 0.67670  0.49399  0.24951  Biso   1.000  O
  O12      1.0000 0.32330  0.99399  0.25049  Biso   1.000  O
  O13      1.0000 0.79160  0.42968  0.89401  Biso   1.000  O
  O14      1.0000 0.20840  0.92968  0.60599  Biso   1.000  O
  O15      1.0000 0.20840  0.57032  0.10599  Biso   1.000  O
  O16      1.0000 0.79160  0.07032  0.39401  Biso   1.000  O
  N1       1.0000 0.98770  0.34870  0.64769  Biso   1.000  N
  N2       1.0000 0.01230  0.84870  0.85231  Biso   1.000  N
  N3       1.0000 0.01230  0.65130  0.35231  Biso   1.000  N
  N4       1.0000 0.98770  0.15130  0.14769  Biso   1.000  N
  N5       1.0000 0.41530  0.18433  0.65909  Biso   1.000  N
  N6       1.0000 0.58470  0.68433  0.84091  Biso   1.000  N
  N7       1.0000 0.58470  0.81567  0.34091  Biso   1.000  N
  N8       1.0000 0.41530  0.31567  0.15909  Biso   1.000  N
  N9       1.0000 0.24500  0.06394  0.58009  Biso   1.000  N
  N10      1.0000 0.75500  0.56394  0.91991  Biso   1.000  N
  N11      1.0000 0.75500  0.93606  0.41991  Biso   1.000  N
  N12      1.0000 0.24500  0.43606  0.08009  Biso   1.000  N
  C1       1.0000 0.20000  0.48489  0.80850  Biso   1.000  C
  C2       1.0000 0.80000  0.98489  0.69150  Biso   1.000  C
  C3       1.0000 0.80000  0.51511  0.19150  Biso   1.000  C
  C4       1.0000 0.20000  0.01511  0.30850  Biso   1.000  C
  C5       1.0000 0.04390  0.43024  0.77158  Biso   1.000  C
  C6       1.0000 0.95610  0.93024  0.72842  Biso   1.000  C
  C7       1.0000 0.95610  0.56976  0.22842  Biso   1.000  C
  C8       1.0000 0.04390  0.06976  0.27158  Biso   1.000  C
  C9       1.0000 0.85720  0.40699  0.81890  Biso   1.000  C
  C10      1.0000 0.14280  0.90699  0.68110  Biso   1.000  C
  C11      1.0000 0.14280  0.59301  0.18110  Biso   1.000  C
  C12      1.0000 0.85720  0.09301  0.31890  Biso   1.000  C
  C13      1.0000 0.74450  0.35050  0.77407  Biso   1.000  C
  C14      1.0000 0.25550  0.85050  0.72593  Biso   1.000  C
  C15      1.0000 0.25550  0.64950  0.22593  Biso   1.000  C
  C16      1.0000 0.74450  0.14950  0.27407  Biso   1.000  C
  C17      1.0000 0.56510  0.32313  0.81550  Biso   1.000  C
  C18      1.0000 0.43490  0.82313  0.68450  Biso   1.000  C
  C19      1.0000 0.43490  0.67687  0.18450  Biso   1.000  C
  C20      1.0000 0.56510  0.17687  0.31550  Biso   1.000  C
  H9       1.0000 0.51370  0.34210  0.86930  Biso   1.000  H
  H10      1.0000 0.48630  0.84210  0.63070  Biso   1.000  H
  H11      1.0000 0.48630  0.65790  0.13070  Biso   1.000  H
  H12      1.0000 0.51370  0.15790  0.36930  Biso   1.000  H
  C21      1.0000 0.46460  0.26947  0.77870  Biso   1.000  C
  C22      1.0000 0.53540  0.76947  0.72130  Biso   1.000  C
  C23      1.0000 0.53540  0.73053  0.22130  Biso   1.000  C
  C24      1.0000 0.46460  0.23053  0.27870  Biso   1.000  C
  C25      1.0000 0.53400  0.23737  0.69832  Biso   1.000  C
  C26      1.0000 0.46600  0.73737  0.80168  Biso   1.000  C
  C27      1.0000 0.46600  0.76263  0.30168  Biso   1.000  C
  C28      1.0000 0.53400  0.26263  0.19832  Biso   1.000  C
  C29      1.0000 0.70970  0.26520  0.65610  Biso   1.000  C
  C30      1.0000 0.29030  0.76520  0.84390  Biso   1.000  C
  C31      1.0000 0.29030  0.73480  0.34390  Biso   1.000  C
  C32      1.0000 0.70970  0.23480  0.15610  Biso   1.000  C
  H13      1.0000 0.76090  0.24590  0.60260  Biso   1.000  H
  H14      1.0000 0.23910  0.74590  0.89740  Biso   1.000  H
  H15      1.0000 0.23910  0.75410  0.39740  Biso   1.000  H
  H16      1.0000 0.76090  0.25410  0.10260  Biso   1.000  H
  C33      1.0000 0.81240  0.32127  0.69130  Biso   1.000  C
  C34      1.0000 0.18760  0.82127  0.80870  Biso   1.000  C
  C35      1.0000 0.18760  0.67873  0.30870  Biso   1.000  C
  C36      1.0000 0.81240  0.17873  0.19130  Biso   1.000  C
  C37      1.0000 0.09510  0.39989  0.68910  Biso   1.000  C
  C38      1.0000 0.90490  0.89989  0.81090  Biso   1.000  C
  C39      1.0000 0.90490  0.60011  0.31090  Biso   1.000  C
  C40      1.0000 0.09510  0.10011  0.18910  Biso   1.000  C
  H17      1.0000 0.21480  0.41630  0.65930  Biso   1.000  H
  H18      1.0000 0.78520  0.91630  0.84070  Biso   1.000  H
  H19      1.0000 0.78520  0.58370  0.34070  Biso   1.000  H
  H20      1.0000 0.21480  0.08370  0.15930  Biso   1.000  H
  C41      1.0000 0.06560  0.31826  0.56340  Biso   1.000  C
  C42      1.0000 0.93440  0.81826  0.93660  Biso   1.000  C
  C43      1.0000 0.93440  0.68174  0.43660  Biso   1.000  C
  C44      1.0000 0.06560  0.18174  0.06340  Biso   1.000  C
  H21      1.0000 0.14430  0.27860  0.57990  Biso   1.000  H
  H22      1.0000 0.85570  0.77860  0.92010  Biso   1.000  H
  H23      1.0000 0.85570  0.72140  0.42010  Biso   1.000  H
  H24      1.0000 0.14430  0.22140  0.07990  Biso   1.000  H
  C45      1.0000 0.15540  0.35440  0.48630  Biso   1.000  C
  C46      1.0000 0.84460  0.85440  0.01370  Biso   1.000  C
  C47      1.0000 0.84460  0.64560  0.51370  Biso   1.000  C
  C48      1.0000 0.15540  0.14560  0.98630  Biso   1.000  C
  H25      1.0000 0.15620  0.39870  0.49280  Biso   1.000  H
  H26      1.0000 0.84380  0.89870  0.00720  Biso   1.000  H
  H27      1.0000 0.84380  0.60130  0.50720  Biso   1.000  H
  H28      1.0000 0.15620  0.10130  0.99280  Biso   1.000  H
  H29      1.0000 0.28690  0.33760  0.45920  Biso   1.000  H
  H30      1.0000 0.71310  0.83760  0.04080  Biso   1.000  H
  H31      1.0000 0.71310  0.66240  0.54080  Biso   1.000  H
  H32      1.0000 0.28690  0.16240  0.95920  Biso   1.000  H
  C49      1.0000 0.91970  0.32316  0.45940  Biso   1.000  C
  C50      1.0000 0.08030  0.82316  0.04060  Biso   1.000  C
  C51      1.0000 0.08030  0.67684  0.54060  Biso   1.000  C
  C52      1.0000 0.91970  0.17684  0.95940  Biso   1.000  C
  H33      1.0000 0.90790  0.28730  0.41610  Biso   1.000  H
  H34      1.0000 0.09210  0.78730  0.08390  Biso   1.000  H
  H35      1.0000 0.09210  0.71270  0.58390  Biso   1.000  H
  H36      1.0000 0.90790  0.21270  0.91610  Biso   1.000  H
  H37      1.0000 0.77710  0.34840  0.44970  Biso   1.000  H
  H38      1.0000 0.22290  0.84840  0.05030  Biso   1.000  H
  H39      1.0000 0.22290  0.65160  0.55030  Biso   1.000  H
  H40      1.0000 0.77710  0.15160  0.94970  Biso   1.000  H
  C53      1.0000 0.46840  0.16140  0.56480  Biso   1.000  C
  C54      1.0000 0.53160  0.66140  0.93520  Biso   1.000  C
  C55      1.0000 0.53160  0.83860  0.43520  Biso   1.000  C
  C56      1.0000 0.46840  0.33860  0.06480  Biso   1.000  C
  H41      1.0000 0.47580  0.19530  0.51890  Biso   1.000  H
  H42      1.0000 0.52420  0.69530  0.98110  Biso   1.000  H
  H43      1.0000 0.52420  0.80470  0.48110  Biso   1.000  H
  H44      1.0000 0.47580  0.30470  0.01890  Biso   1.000  H
  H45      1.0000 0.62280  0.14120  0.57820  Biso   1.000  H
  H46      1.0000 0.37720  0.64120  0.92180  Biso   1.000  H
  H47      1.0000 0.37720  0.85880  0.42180  Biso   1.000  H
  H48      1.0000 0.62280  0.35880  0.07820  Biso   1.000  H
  C57      1.0000 0.27740  0.11657  0.51590  Biso   1.000  C
  C58      1.0000 0.72260  0.61657  0.98410  Biso   1.000  C
  C59      1.0000 0.72260  0.88343  0.48410  Biso   1.000  C
  C60      1.0000 0.27740  0.38343  0.01590  Biso   1.000  C
  H49      1.0000 0.31800  0.10140  0.45360  Biso   1.000  H
  H50      1.0000 0.68200  0.60140  0.04640  Biso   1.000  H
  H51      1.0000 0.68200  0.89860  0.54640  Biso   1.000  H
  H52      1.0000 0.31800  0.39860  0.95360  Biso   1.000  H
  H53      1.0000 0.12670  0.13830  0.49770  Biso   1.000  H
  H54      1.0000 0.87330  0.63830  0.00230  Biso   1.000  H
  H55      1.0000 0.87330  0.86170  0.50230  Biso   1.000  H
  H56      1.0000 0.12670  0.36170  0.99770  Biso   1.000  H
  C61      1.0000 0.20760  0.08727  0.67840  Biso   1.000  C
  C62      1.0000 0.79240  0.58727  0.82160  Biso   1.000  C
  C63      1.0000 0.79240  0.91273  0.32160  Biso   1.000  C
  C64      1.0000 0.20760  0.41273  0.17840  Biso   1.000  C
  H57      1.0000 0.05220  0.10690  0.66860  Biso   1.000  H
  H58      1.0000 0.94780  0.60690  0.83140  Biso   1.000  H
  H59      1.0000 0.94780  0.89310  0.33140  Biso   1.000  H
  H60      1.0000 0.05220  0.39310  0.16860  Biso   1.000  H
  H61      1.0000 0.20620  0.05290  0.72410  Biso   1.000  H
  H62      1.0000 0.79380  0.55290  0.77590  Biso   1.000  H
  H63      1.0000 0.79380  0.94710  0.27590  Biso   1.000  H
  H64      1.0000 0.20620  0.44710  0.22410  Biso   1.000  H
  C65      1.0000 0.39720  0.13288  0.72810  Biso   1.000  C
  C66      1.0000 0.60280  0.63288  0.77190  Biso   1.000  C
  C67      1.0000 0.60280  0.86712  0.27190  Biso   1.000  C
  C68      1.0000 0.39720  0.36712  0.22810  Biso   1.000  C
  H65      1.0000 0.55050  0.11230  0.74580  Biso   1.000  H
  H66      1.0000 0.44950  0.61230  0.75420  Biso   1.000  H
  H67      1.0000 0.44950  0.88770  0.25420  Biso   1.000  H
  H68      1.0000 0.55050  0.38770  0.24580  Biso   1.000  H
  H69      1.0000 0.35640  0.14840  0.79010  Biso   1.000  H
  H70      1.0000 0.64360  0.64840  0.70990  Biso   1.000  H
  H71      1.0000 0.64360  0.85160  0.20990  Biso   1.000  H
  H72      1.0000 0.35640  0.35160  0.29010  Biso   1.000  H
  H73      1.0000 0.37800  0.04360  0.59100  Biso   1.000  H
  H74      1.0000 0.62200  0.54360  0.90900  Biso   1.000  H
  H75      1.0000 0.62200  0.95640  0.40900  Biso   1.000  H
  H76      1.0000 0.37800  0.45640  0.09100  Biso   1.000  H
