data_image0
_cell_length_a       10.0755
_cell_length_b       8.9512
_cell_length_c       15.978
_cell_angle_alpha    90
_cell_angle_beta     90
_cell_angle_gamma    90

_symmetry_space_group_name_H-M    "P 1"
_symmetry_int_tables_number       1

loop_
  _symmetry_equiv_pos_as_xyz
  'x, y, z'

loop_
  _atom_site_label
  _atom_site_occupancy
  _atom_site_fract_x
  _atom_site_fract_y
  _atom_site_fract_z
  _atom_site_thermal_displace_type
  _atom_site_B_iso_or_equiv
  _atom_site_type_symbol
  C1       1.0000 0.22580  0.00900  0.67019  Biso   1.000  C
  C2       1.0000 0.77420  0.99100  0.17019  Biso   1.000  C
  C3       1.0000 0.77420  0.50900  0.82981  Biso   1.000  C
  C4       1.0000 0.22580  0.49100  0.32981  Biso   1.000  C
  C5       1.0000 0.77420  0.99100  0.32981  Biso   1.000  C
  C6       1.0000 0.22580  0.00900  0.82981  Biso   1.000  C
  C7       1.0000 0.22580  0.49100  0.17019  Biso   1.000  C
  C8       1.0000 0.77420  0.50900  0.67019  Biso   1.000  C
  H1       1.0000 0.18000  0.96540  0.62270  Biso   1.000  H
  H2       1.0000 0.82000  0.03460  0.12270  Biso   1.000  H
  H3       1.0000 0.82000  0.46540  0.87730  Biso   1.000  H
  H4       1.0000 0.18000  0.53460  0.37730  Biso   1.000  H
  H5       1.0000 0.82000  0.03460  0.37730  Biso   1.000  H
  H6       1.0000 0.18000  0.96540  0.87730  Biso   1.000  H
  H7       1.0000 0.18000  0.53460  0.12270  Biso   1.000  H
  H8       1.0000 0.82000  0.46540  0.62270  Biso   1.000  H
  H9       1.0000 0.20600  0.11510  0.67110  Biso   1.000  H
  H10      1.0000 0.79400  0.88490  0.17110  Biso   1.000  H
  H11      1.0000 0.79400  0.61510  0.82890  Biso   1.000  H
  H12      1.0000 0.20600  0.38490  0.32890  Biso   1.000  H
  H13      1.0000 0.79400  0.88490  0.32890  Biso   1.000  H
  H14      1.0000 0.20600  0.11510  0.82890  Biso   1.000  H
  H15      1.0000 0.20600  0.38490  0.17110  Biso   1.000  H
  H16      1.0000 0.79400  0.61510  0.67110  Biso   1.000  H
  C9       1.0000 0.17570  0.93780  0.75000  Biso   1.000  C
  C10      1.0000 0.82430  0.06220  0.25000  Biso   1.000  C
  C11      1.0000 0.82430  0.43780  0.75000  Biso   1.000  C
  C12      1.0000 0.17570  0.56220  0.25000  Biso   1.000  C
  H17      1.0000 0.07950  0.94180  0.75000  Biso   1.000  H
  H18      1.0000 0.92050  0.05820  0.25000  Biso   1.000  H
  H19      1.0000 0.92050  0.44180  0.75000  Biso   1.000  H
  H20      1.0000 0.07950  0.55820  0.25000  Biso   1.000  H
  H21      1.0000 0.20130  0.83330  0.75000  Biso   1.000  H
  H22      1.0000 0.79870  0.16670  0.25000  Biso   1.000  H
  H23      1.0000 0.79870  0.33330  0.75000  Biso   1.000  H
  H24      1.0000 0.20130  0.66670  0.25000  Biso   1.000  H
  C13      1.0000 0.70100  0.06920  0.61951  Biso   1.000  C
  C14      1.0000 0.29900  0.93080  0.11951  Biso   1.000  C
  C15      1.0000 0.29900  0.56920  0.88049  Biso   1.000  C
  C16      1.0000 0.70100  0.43080  0.38049  Biso   1.000  C
  C17      1.0000 0.29900  0.93080  0.38049  Biso   1.000  C
  C18      1.0000 0.70100  0.06920  0.88049  Biso   1.000  C
  C19      1.0000 0.70100  0.43080  0.11951  Biso   1.000  C
  C20      1.0000 0.29900  0.56920  0.61951  Biso   1.000  C
  C21      1.0000 0.77500  0.16060  0.55636  Biso   1.000  C
  C22      1.0000 0.22500  0.83940  0.05636  Biso   1.000  C
  C23      1.0000 0.22500  0.66060  0.94364  Biso   1.000  C
  C24      1.0000 0.77500  0.33940  0.44364  Biso   1.000  C
  C25      1.0000 0.22500  0.83940  0.44364  Biso   1.000  C
  C26      1.0000 0.77500  0.16060  0.94364  Biso   1.000  C
  C27      1.0000 0.77500  0.33940  0.05636  Biso   1.000  C
  C28      1.0000 0.22500  0.66060  0.55636  Biso   1.000  C
  C29      1.0000 0.70690  0.25000  0.50000  Biso   1.000  C
  C30      1.0000 0.29310  0.75000  0.00000  Biso   1.000  C
  C31      1.0000 0.29310  0.75000  0.50000  Biso   1.000  C
  C32      1.0000 0.70690  0.25000  0.00000  Biso   1.000  C
  H25      1.0000 0.61460  0.25000  0.50000  Biso   1.000  H
  H26      1.0000 0.38540  0.75000  0.00000  Biso   1.000  H
  H27      1.0000 0.38540  0.75000  0.50000  Biso   1.000  H
  H28      1.0000 0.61460  0.25000  0.00000  Biso   1.000  H
  C33      1.0000 0.91250  0.15820  0.55432  Biso   1.000  C
  C34      1.0000 0.08750  0.84180  0.05432  Biso   1.000  C
  C35      1.0000 0.08750  0.65820  0.94568  Biso   1.000  C
  C36      1.0000 0.91250  0.34180  0.44568  Biso   1.000  C
  C37      1.0000 0.08750  0.84180  0.44568  Biso   1.000  C
  C38      1.0000 0.91250  0.15820  0.94568  Biso   1.000  C
  C39      1.0000 0.91250  0.34180  0.05432  Biso   1.000  C
  C40      1.0000 0.08750  0.65820  0.55432  Biso   1.000  C
  H29      1.0000 0.95900  0.09440  0.58970  Biso   1.000  H
  H30      1.0000 0.04100  0.90560  0.08970  Biso   1.000  H
  H31      1.0000 0.04100  0.59440  0.91030  Biso   1.000  H
  H32      1.0000 0.95900  0.40560  0.41030  Biso   1.000  H
  H33      1.0000 0.04100  0.90560  0.41030  Biso   1.000  H
  H34      1.0000 0.95900  0.09440  0.91030  Biso   1.000  H
  H35      1.0000 0.95900  0.40560  0.08970  Biso   1.000  H
  H36      1.0000 0.04100  0.59440  0.58970  Biso   1.000  H
  C41      1.0000 0.98060  0.25000  0.50000  Biso   1.000  C
  C42      1.0000 0.01940  0.75000  0.00000  Biso   1.000  C
  C43      1.0000 0.01940  0.75000  0.50000  Biso   1.000  C
  C44      1.0000 0.98060  0.25000  0.00000  Biso   1.000  C
  H37      1.0000 0.07300  0.25000  0.50000  Biso   1.000  H
  H38      1.0000 0.92700  0.75000  0.00000  Biso   1.000  H
  H39      1.0000 0.92700  0.75000  0.50000  Biso   1.000  H
  H40      1.0000 0.07300  0.25000  0.00000  Biso   1.000  H
  N1       1.0000 0.37032  0.98760  0.66011  Biso   1.000  N
  N2       1.0000 0.62968  0.01240  0.16011  Biso   1.000  N
  N3       1.0000 0.62968  0.48760  0.83989  Biso   1.000  N
  N4       1.0000 0.37032  0.51240  0.33989  Biso   1.000  N
  N5       1.0000 0.62968  0.01240  0.33989  Biso   1.000  N
  N6       1.0000 0.37032  0.98760  0.83989  Biso   1.000  N
  N7       1.0000 0.37032  0.51240  0.16011  Biso   1.000  N
  N8       1.0000 0.62968  0.48760  0.66011  Biso   1.000  N
  O1       1.0000 0.61481  0.13749  0.66156  Biso   1.000  O
  O2       1.0000 0.38519  0.86251  0.16156  Biso   1.000  O
  O3       1.0000 0.38519  0.63749  0.83844  Biso   1.000  O
  O4       1.0000 0.61481  0.36251  0.33844  Biso   1.000  O
  O5       1.0000 0.38519  0.86251  0.33844  Biso   1.000  O
  O6       1.0000 0.61481  0.13749  0.83844  Biso   1.000  O
  O7       1.0000 0.61481  0.36251  0.16156  Biso   1.000  O
  O8       1.0000 0.38519  0.63749  0.66156  Biso   1.000  O
  O9       1.0000 0.73030  0.93507  0.62660  Biso   1.000  O
  O10      1.0000 0.26970  0.06493  0.12660  Biso   1.000  O
  O11      1.0000 0.26970  0.43507  0.87340  Biso   1.000  O
  O12      1.0000 0.73030  0.56493  0.37340  Biso   1.000  O
  O13      1.0000 0.26970  0.06493  0.37340  Biso   1.000  O
  O14      1.0000 0.73030  0.93507  0.87340  Biso   1.000  O
  O15      1.0000 0.73030  0.56493  0.12660  Biso   1.000  O
  O16      1.0000 0.26970  0.43507  0.62660  Biso   1.000  O
  O17      1.0000 0.40000  0.29950  0.75000  Biso   1.000  O
  O18      1.0000 0.60000  0.70050  0.25000  Biso   1.000  O
  O19      1.0000 0.60000  0.79950  0.75000  Biso   1.000  O
  O20      1.0000 0.40000  0.20050  0.25000  Biso   1.000  O
  O21      1.0000 0.62680  0.75000  0.50000  Biso   1.000  O
  O22      1.0000 0.37320  0.25000  0.00000  Biso   1.000  O
  O23      1.0000 0.37320  0.25000  0.50000  Biso   1.000  O
  O24      1.0000 0.62680  0.75000  0.00000  Biso   1.000  O
  Cu1      1.0000 0.49092  0.06471  0.75000  Biso   1.000  Cu
  Cu2      1.0000 0.50908  0.93529  0.25000  Biso   1.000  Cu
  Cu3      1.0000 0.50908  0.56471  0.75000  Biso   1.000  Cu
  Cu4      1.0000 0.49092  0.43529  0.25000  Biso   1.000  Cu
  H41      1.0000 0.39200  0.03100  0.61480  Biso   1.000  H
  H42      1.0000 0.60800  0.96900  0.11480  Biso   1.000  H
  H43      1.0000 0.60800  0.53100  0.88520  Biso   1.000  H
  H44      1.0000 0.39200  0.46900  0.38520  Biso   1.000  H
  H45      1.0000 0.60800  0.96900  0.38520  Biso   1.000  H
  H46      1.0000 0.39200  0.03100  0.88520  Biso   1.000  H
  H47      1.0000 0.39200  0.46900  0.11480  Biso   1.000  H
  H48      1.0000 0.60800  0.53100  0.61480  Biso   1.000  H
  H49      1.0000 0.38600  0.89300  0.65520  Biso   1.000  H
  H50      1.0000 0.61400  0.10700  0.15520  Biso   1.000  H
  H51      1.0000 0.61400  0.39300  0.84480  Biso   1.000  H
  H52      1.0000 0.38600  0.60700  0.34480  Biso   1.000  H
  H53      1.0000 0.61400  0.10700  0.34480  Biso   1.000  H
  H54      1.0000 0.38600  0.89300  0.84480  Biso   1.000  H
  H55      1.0000 0.38600  0.60700  0.15520  Biso   1.000  H
  H56      1.0000 0.61400  0.39300  0.65520  Biso   1.000  H
  H57      1.0000 0.35500  0.33000  0.79060  Biso   1.000  H
  H58      1.0000 0.64500  0.67000  0.29060  Biso   1.000  H
  H59      1.0000 0.64500  0.83000  0.70940  Biso   1.000  H
  H60      1.0000 0.35500  0.17000  0.20940  Biso   1.000  H
  H61      1.0000 0.64500  0.67000  0.20940  Biso   1.000  H
  H62      1.0000 0.35500  0.33000  0.70940  Biso   1.000  H
  H63      1.0000 0.35500  0.17000  0.29060  Biso   1.000  H
  H64      1.0000 0.64500  0.83000  0.79060  Biso   1.000  H
  H65      1.0000 0.67200  0.80100  0.53400  Biso   1.000  H
  H66      1.0000 0.32800  0.19900  0.03400  Biso   1.000  H
  H67      1.0000 0.32800  0.30100  0.96600  Biso   1.000  H
  H68      1.0000 0.67200  0.69900  0.46600  Biso   1.000  H
  H69      1.0000 0.32800  0.19900  0.46600  Biso   1.000  H
  H70      1.0000 0.67200  0.80100  0.96600  Biso   1.000  H
  H71      1.0000 0.67200  0.69900  0.03400  Biso   1.000  H
  H72      1.0000 0.32800  0.30100  0.53400  Biso   1.000  H
