data_image0
_cell_length_a       12.1647
_cell_length_b       11.1768
_cell_length_c       18.229
_cell_angle_alpha    90
_cell_angle_beta     102.787
_cell_angle_gamma    90

_symmetry_space_group_name_H-M    "P 1"
_symmetry_int_tables_number       1

loop_
  _symmetry_equiv_pos_as_xyz
  'x, y, z'

loop_
  _atom_site_label
  _atom_site_occupancy
  _atom_site_fract_x
  _atom_site_fract_y
  _atom_site_fract_z
  _atom_site_thermal_displace_type
  _atom_site_B_iso_or_equiv
  _atom_site_type_symbol
  Cu1      1.0000 0.50000  0.29116  0.25000  Biso   1.000  Cu
  Cu2      1.0000 0.00000  0.79116  0.25000  Biso   1.000  Cu
  Cu3      1.0000 0.50000  0.70884  0.75000  Biso   1.000  Cu
  Cu4      1.0000 0.00000  0.20884  0.75000  Biso   1.000  Cu
  Cl1      1.0000 0.82910  0.47040  0.95492  Biso   1.000  Cl
  Cl2      1.0000 0.32910  0.97040  0.95492  Biso   1.000  Cl
  Cl3      1.0000 0.17090  0.47040  0.54508  Biso   1.000  Cl
  Cl4      1.0000 0.67090  0.97040  0.54508  Biso   1.000  Cl
  Cl5      1.0000 0.17090  0.52960  0.04508  Biso   1.000  Cl
  Cl6      1.0000 0.67090  0.02960  0.04508  Biso   1.000  Cl
  Cl7      1.0000 0.82910  0.52960  0.45492  Biso   1.000  Cl
  Cl8      1.0000 0.32910  0.02960  0.45492  Biso   1.000  Cl
  N1       1.0000 0.50000  0.10730  0.25000  Biso   1.000  N
  N2       1.0000 0.00000  0.60730  0.25000  Biso   1.000  N
  N3       1.0000 0.50000  0.89270  0.75000  Biso   1.000  N
  N4       1.0000 0.00000  0.39270  0.75000  Biso   1.000  N
  N5       1.0000 0.50000  0.47380  0.25000  Biso   1.000  N
  N6       1.0000 0.00000  0.97380  0.25000  Biso   1.000  N
  N7       1.0000 0.50000  0.52620  0.75000  Biso   1.000  N
  N8       1.0000 0.00000  0.02620  0.75000  Biso   1.000  N
  O1       1.0000 0.34128  0.28594  0.20325  Biso   1.000  O
  O2       1.0000 0.84128  0.78594  0.20325  Biso   1.000  O
  O3       1.0000 0.65872  0.28594  0.29675  Biso   1.000  O
  O4       1.0000 0.15872  0.78594  0.29675  Biso   1.000  O
  O5       1.0000 0.65872  0.71406  0.79675  Biso   1.000  O
  O6       1.0000 0.15872  0.21406  0.79675  Biso   1.000  O
  O7       1.0000 0.34128  0.71406  0.70325  Biso   1.000  O
  O8       1.0000 0.84128  0.21406  0.70325  Biso   1.000  O
  O9       1.0000 0.20704  0.22780  0.10777  Biso   1.000  O
  O10      1.0000 0.70704  0.72780  0.10777  Biso   1.000  O
  O11      1.0000 0.79296  0.22780  0.39223  Biso   1.000  O
  O12      1.0000 0.29296  0.72780  0.39223  Biso   1.000  O
  O13      1.0000 0.79296  0.77220  0.89223  Biso   1.000  O
  O14      1.0000 0.29296  0.27220  0.89223  Biso   1.000  O
  O15      1.0000 0.20704  0.77220  0.60777  Biso   1.000  O
  O16      1.0000 0.70704  0.27220  0.60777  Biso   1.000  O
  O17      1.0000 0.49590  0.28753  0.11648  Biso   1.000  O
  O18      1.0000 0.99590  0.78753  0.11648  Biso   1.000  O
  O19      1.0000 0.50410  0.28753  0.38352  Biso   1.000  O
  O20      1.0000 0.00410  0.78753  0.38352  Biso   1.000  O
  O21      1.0000 0.50410  0.71247  0.88352  Biso   1.000  O
  O22      1.0000 0.00410  0.21247  0.88352  Biso   1.000  O
  O23      1.0000 0.49590  0.71247  0.61648  Biso   1.000  O
  O24      1.0000 0.99590  0.21247  0.61648  Biso   1.000  O
  C1       1.0000 0.30410  0.25810  0.13393  Biso   1.000  C
  C2       1.0000 0.80410  0.75810  0.13393  Biso   1.000  C
  C3       1.0000 0.69590  0.25810  0.36607  Biso   1.000  C
  C4       1.0000 0.19590  0.75810  0.36607  Biso   1.000  C
  C5       1.0000 0.69590  0.74190  0.86607  Biso   1.000  C
  C6       1.0000 0.19590  0.24190  0.86607  Biso   1.000  C
  C7       1.0000 0.30410  0.74190  0.63393  Biso   1.000  C
  C8       1.0000 0.80410  0.24190  0.63393  Biso   1.000  C
  C9       1.0000 0.38150  0.26490  0.07897  Biso   1.000  C
  C10      1.0000 0.88150  0.76490  0.07897  Biso   1.000  C
  C11      1.0000 0.61850  0.26490  0.42103  Biso   1.000  C
  C12      1.0000 0.11850  0.76490  0.42103  Biso   1.000  C
  C13      1.0000 0.61850  0.73510  0.92103  Biso   1.000  C
  C14      1.0000 0.11850  0.23510  0.92103  Biso   1.000  C
  C15      1.0000 0.38150  0.73510  0.57897  Biso   1.000  C
  C16      1.0000 0.88150  0.23510  0.57897  Biso   1.000  C
  H1       1.0000 0.37770  0.19000  0.05160  Biso   1.000  H
  H2       1.0000 0.87770  0.69000  0.05160  Biso   1.000  H
  H3       1.0000 0.62230  0.19000  0.44840  Biso   1.000  H
  H4       1.0000 0.12230  0.69000  0.44840  Biso   1.000  H
  H5       1.0000 0.62230  0.81000  0.94840  Biso   1.000  H
  H6       1.0000 0.12230  0.31000  0.94840  Biso   1.000  H
  H7       1.0000 0.37770  0.81000  0.55160  Biso   1.000  H
  H8       1.0000 0.87770  0.31000  0.55160  Biso   1.000  H
  H9       1.0000 0.35570  0.32810  0.04280  Biso   1.000  H
  H10      1.0000 0.85570  0.82810  0.04280  Biso   1.000  H
  H11      1.0000 0.64430  0.32810  0.45720  Biso   1.000  H
  H12      1.0000 0.14430  0.82810  0.45720  Biso   1.000  H
  H13      1.0000 0.64430  0.67190  0.95720  Biso   1.000  H
  H14      1.0000 0.14430  0.17190  0.95720  Biso   1.000  H
  H15      1.0000 0.35570  0.67190  0.54280  Biso   1.000  H
  H16      1.0000 0.85570  0.17190  0.54280  Biso   1.000  H
  C17      1.0000 0.57010  0.32770  0.07416  Biso   1.000  C
  C18      1.0000 0.07010  0.82770  0.07416  Biso   1.000  C
  C19      1.0000 0.42990  0.32770  0.42584  Biso   1.000  C
  C20      1.0000 0.92990  0.82770  0.42584  Biso   1.000  C
  C21      1.0000 0.42990  0.67230  0.92584  Biso   1.000  C
  C22      1.0000 0.92990  0.17230  0.92584  Biso   1.000  C
  C23      1.0000 0.57010  0.67230  0.57416  Biso   1.000  C
  C24      1.0000 0.07010  0.17230  0.57416  Biso   1.000  C
  C25      1.0000 0.54110  0.34580  0.99707  Biso   1.000  C
  C26      1.0000 0.04110  0.84580  0.99707  Biso   1.000  C
  C27      1.0000 0.45890  0.34580  0.50293  Biso   1.000  C
  C28      1.0000 0.95890  0.84580  0.50293  Biso   1.000  C
  C29      1.0000 0.45890  0.65420  0.00293  Biso   1.000  C
  C30      1.0000 0.95890  0.15420  0.00293  Biso   1.000  C
  C31      1.0000 0.54110  0.65420  0.49707  Biso   1.000  C
  C32      1.0000 0.04110  0.15420  0.49707  Biso   1.000  C
  H17      1.0000 0.46870  0.32870  0.97000  Biso   1.000  H
  H18      1.0000 0.96870  0.82870  0.97000  Biso   1.000  H
  H19      1.0000 0.53130  0.32870  0.53000  Biso   1.000  H
  H20      1.0000 0.03130  0.82870  0.53000  Biso   1.000  H
  H21      1.0000 0.53130  0.67130  0.03000  Biso   1.000  H
  H22      1.0000 0.03130  0.17130  0.03000  Biso   1.000  H
  H23      1.0000 0.46870  0.67130  0.47000  Biso   1.000  H
  H24      1.0000 0.96870  0.17130  0.47000  Biso   1.000  H
  C33      1.0000 0.62160  0.38980  0.96093  Biso   1.000  C
  C34      1.0000 0.12160  0.88980  0.96093  Biso   1.000  C
  C35      1.0000 0.37840  0.38980  0.53907  Biso   1.000  C
  C36      1.0000 0.87840  0.88980  0.53907  Biso   1.000  C
  C37      1.0000 0.37840  0.61020  0.03907  Biso   1.000  C
  C38      1.0000 0.87840  0.11020  0.03907  Biso   1.000  C
  C39      1.0000 0.62160  0.61020  0.46093  Biso   1.000  C
  C40      1.0000 0.12160  0.11020  0.46093  Biso   1.000  C
  H25      1.0000 0.60280  0.40380  0.90940  Biso   1.000  H
  H26      1.0000 0.10280  0.90380  0.90940  Biso   1.000  H
  H27      1.0000 0.39720  0.40380  0.59060  Biso   1.000  H
  H28      1.0000 0.89720  0.90380  0.59060  Biso   1.000  H
  H29      1.0000 0.39720  0.59620  0.09060  Biso   1.000  H
  H30      1.0000 0.89720  0.09620  0.09060  Biso   1.000  H
  H31      1.0000 0.60280  0.59620  0.40940  Biso   1.000  H
  H32      1.0000 0.10280  0.09620  0.40940  Biso   1.000  H
  C41      1.0000 0.72840  0.41270  0.00080  Biso   1.000  C
  C42      1.0000 0.22840  0.91270  0.00080  Biso   1.000  C
  C43      1.0000 0.27160  0.41270  0.49920  Biso   1.000  C
  C44      1.0000 0.77160  0.91270  0.49920  Biso   1.000  C
  C45      1.0000 0.27160  0.58730  0.99920  Biso   1.000  C
  C46      1.0000 0.77160  0.08730  0.99920  Biso   1.000  C
  C47      1.0000 0.72840  0.58730  0.50080  Biso   1.000  C
  C48      1.0000 0.22840  0.08730  0.50080  Biso   1.000  C
  C49      1.0000 0.75880  0.39210  0.07696  Biso   1.000  C
  C50      1.0000 0.25880  0.89210  0.07696  Biso   1.000  C
  C51      1.0000 0.24120  0.39210  0.42304  Biso   1.000  C
  C52      1.0000 0.74120  0.89210  0.42304  Biso   1.000  C
  C53      1.0000 0.24120  0.60790  0.92304  Biso   1.000  C
  C54      1.0000 0.74120  0.10790  0.92304  Biso   1.000  C
  C55      1.0000 0.75880  0.60790  0.57696  Biso   1.000  C
  C56      1.0000 0.25880  0.10790  0.57696  Biso   1.000  C
  H33      1.0000 0.83190  0.40730  0.10350  Biso   1.000  H
  H34      1.0000 0.33190  0.90730  0.10350  Biso   1.000  H
  H35      1.0000 0.16810  0.40730  0.39650  Biso   1.000  H
  H36      1.0000 0.66810  0.90730  0.39650  Biso   1.000  H
  H37      1.0000 0.16810  0.59270  0.89650  Biso   1.000  H
  H38      1.0000 0.66810  0.09270  0.89650  Biso   1.000  H
  H39      1.0000 0.83190  0.59270  0.60350  Biso   1.000  H
  H40      1.0000 0.33190  0.09270  0.60350  Biso   1.000  H
  C57      1.0000 0.67910  0.34830  0.11347  Biso   1.000  C
  C58      1.0000 0.17910  0.84830  0.11347  Biso   1.000  C
  C59      1.0000 0.32090  0.34830  0.38653  Biso   1.000  C
  C60      1.0000 0.82090  0.84830  0.38653  Biso   1.000  C
  C61      1.0000 0.32090  0.65170  0.88653  Biso   1.000  C
  C62      1.0000 0.82090  0.15170  0.88653  Biso   1.000  C
  C63      1.0000 0.67910  0.65170  0.61347  Biso   1.000  C
  C64      1.0000 0.17910  0.15170  0.61347  Biso   1.000  C
  H41      1.0000 0.69900  0.33270  0.16480  Biso   1.000  H
  H42      1.0000 0.19900  0.83270  0.16480  Biso   1.000  H
  H43      1.0000 0.30100  0.33270  0.33520  Biso   1.000  H
  H44      1.0000 0.80100  0.83270  0.33520  Biso   1.000  H
  H45      1.0000 0.30100  0.66730  0.83520  Biso   1.000  H
  H46      1.0000 0.80100  0.16730  0.83520  Biso   1.000  H
  H47      1.0000 0.69900  0.66730  0.66480  Biso   1.000  H
  H48      1.0000 0.19900  0.16730  0.66480  Biso   1.000  H
  C65      1.0000 0.43210  0.04520  0.28469  Biso   1.000  C
  C66      1.0000 0.93210  0.54520  0.28469  Biso   1.000  C
  C67      1.0000 0.56790  0.04520  0.21531  Biso   1.000  C
  C68      1.0000 0.06790  0.54520  0.21531  Biso   1.000  C
  C69      1.0000 0.56790  0.95480  0.71531  Biso   1.000  C
  C70      1.0000 0.06790  0.45480  0.71531  Biso   1.000  C
  C71      1.0000 0.43210  0.95480  0.78469  Biso   1.000  C
  C72      1.0000 0.93210  0.45480  0.78469  Biso   1.000  C
  H49      1.0000 0.38390  0.08710  0.30860  Biso   1.000  H
  H50      1.0000 0.88390  0.58710  0.30860  Biso   1.000  H
  H51      1.0000 0.61610  0.08710  0.19140  Biso   1.000  H
  H52      1.0000 0.11610  0.58710  0.19140  Biso   1.000  H
  H53      1.0000 0.61610  0.91290  0.69140  Biso   1.000  H
  H54      1.0000 0.11610  0.41290  0.69140  Biso   1.000  H
  H55      1.0000 0.38390  0.91290  0.80860  Biso   1.000  H
  H56      1.0000 0.88390  0.41290  0.80860  Biso   1.000  H
  C73      1.0000 0.43040  0.92140  0.28652  Biso   1.000  C
  C74      1.0000 0.93040  0.42140  0.28652  Biso   1.000  C
  C75      1.0000 0.56960  0.92140  0.21348  Biso   1.000  C
  C76      1.0000 0.06960  0.42140  0.21348  Biso   1.000  C
  C77      1.0000 0.56960  0.07860  0.71348  Biso   1.000  C
  C78      1.0000 0.06960  0.57860  0.71348  Biso   1.000  C
  C79      1.0000 0.43040  0.07860  0.78652  Biso   1.000  C
  C80      1.0000 0.93040  0.57860  0.78652  Biso   1.000  C
  H57      1.0000 0.38300  0.88170  0.31200  Biso   1.000  H
  H58      1.0000 0.88300  0.38170  0.31200  Biso   1.000  H
  H59      1.0000 0.61700  0.88170  0.18800  Biso   1.000  H
  H60      1.0000 0.11700  0.38170  0.18800  Biso   1.000  H
  H61      1.0000 0.61700  0.11830  0.68800  Biso   1.000  H
  H62      1.0000 0.11700  0.61830  0.68800  Biso   1.000  H
  H63      1.0000 0.38300  0.11830  0.81200  Biso   1.000  H
  H64      1.0000 0.88300  0.61830  0.81200  Biso   1.000  H
  C81      1.0000 0.50000  0.85690  0.25000  Biso   1.000  C
  C82      1.0000 0.00000  0.35690  0.25000  Biso   1.000  C
  C83      1.0000 0.50000  0.14310  0.75000  Biso   1.000  C
  C84      1.0000 0.00000  0.64310  0.75000  Biso   1.000  C
  C85      1.0000 0.50000  0.72420  0.25000  Biso   1.000  C
  C86      1.0000 0.00000  0.22420  0.25000  Biso   1.000  C
  C87      1.0000 0.50000  0.27580  0.75000  Biso   1.000  C
  C88      1.0000 0.00000  0.77580  0.75000  Biso   1.000  C
  C89      1.0000 0.40410  0.65950  0.25487  Biso   1.000  C
  C90      1.0000 0.90410  0.15950  0.25487  Biso   1.000  C
  C91      1.0000 0.59590  0.65950  0.24513  Biso   1.000  C
  C92      1.0000 0.09590  0.15950  0.24513  Biso   1.000  C
  C93      1.0000 0.59590  0.34050  0.74513  Biso   1.000  C
  C94      1.0000 0.09590  0.84050  0.74513  Biso   1.000  C
  C95      1.0000 0.40410  0.34050  0.75487  Biso   1.000  C
  C96      1.0000 0.90410  0.84050  0.75487  Biso   1.000  C
  H65      1.0000 0.33840  0.69900  0.25890  Biso   1.000  H
  H66      1.0000 0.83840  0.19900  0.25890  Biso   1.000  H
  H67      1.0000 0.66160  0.69900  0.24110  Biso   1.000  H
  H68      1.0000 0.16160  0.19900  0.24110  Biso   1.000  H
  H69      1.0000 0.66160  0.30100  0.74110  Biso   1.000  H
  H70      1.0000 0.16160  0.80100  0.74110  Biso   1.000  H
  H71      1.0000 0.33840  0.30100  0.75890  Biso   1.000  H
  H72      1.0000 0.83840  0.80100  0.75890  Biso   1.000  H
  C97      1.0000 0.40730  0.53650  0.25369  Biso   1.000  C
  C98      1.0000 0.90730  0.03650  0.25369  Biso   1.000  C
  C99      1.0000 0.59270  0.53650  0.24631  Biso   1.000  C
  C100     1.0000 0.09270  0.03650  0.24631  Biso   1.000  C
  C101     1.0000 0.59270  0.46350  0.74631  Biso   1.000  C
  C102     1.0000 0.09270  0.96350  0.74631  Biso   1.000  C
  C103     1.0000 0.40730  0.46350  0.75369  Biso   1.000  C
  C104     1.0000 0.90730  0.96350  0.75369  Biso   1.000  C
  H73      1.0000 0.34190  0.49470  0.25550  Biso   1.000  H
  H74      1.0000 0.84190  0.99470  0.25550  Biso   1.000  H
  H75      1.0000 0.65810  0.49470  0.24450  Biso   1.000  H
  H76      1.0000 0.15810  0.99470  0.24450  Biso   1.000  H
  H77      1.0000 0.65810  0.50530  0.74450  Biso   1.000  H
  H78      1.0000 0.15810  0.00530  0.74450  Biso   1.000  H
  H79      1.0000 0.34190  0.50530  0.75550  Biso   1.000  H
  H80      1.0000 0.84190  0.00530  0.75550  Biso   1.000  H
