data_image0
_cell_length_a       12.5363
_cell_length_b       6.5036
_cell_length_c       6.9356
_cell_angle_alpha    90
_cell_angle_beta     90
_cell_angle_gamma    90

_symmetry_space_group_name_H-M    "P 1"
_symmetry_int_tables_number       1

loop_
  _symmetry_equiv_pos_as_xyz
  'x, y, z'

loop_
  _atom_site_label
  _atom_site_occupancy
  _atom_site_fract_x
  _atom_site_fract_y
  _atom_site_fract_z
  _atom_site_thermal_displace_type
  _atom_site_B_iso_or_equiv
  _atom_site_type_symbol
  Cu1      1.0000 0.00000  0.00000  0.50000  Biso   1.000  Cu
  Cu2      1.0000 0.50000  0.50000  0.50000  Biso   1.000  Cu
  Cl1      1.0000 0.85254  0.18400  0.50000  Biso   1.000  Cl
  Cl2      1.0000 0.14746  0.81600  0.50000  Biso   1.000  Cl
  Cl3      1.0000 0.64746  0.68400  0.50000  Biso   1.000  Cl
  Cl4      1.0000 0.35254  0.31600  0.50000  Biso   1.000  Cl
  N1       1.0000 0.00000  0.00000  0.20190  Biso   1.000  N
  N2       1.0000 0.50000  0.50000  0.79810  Biso   1.000  N
  N3       1.0000 0.00000  0.00000  0.79810  Biso   1.000  N
  N4       1.0000 0.50000  0.50000  0.20190  Biso   1.000  N
  C1       1.0000 0.05160  0.14820  0.10350  Biso   1.000  C
  C2       1.0000 0.94840  0.85180  0.10350  Biso   1.000  C
  C3       1.0000 0.44840  0.64820  0.89650  Biso   1.000  C
  C4       1.0000 0.55160  0.35180  0.89650  Biso   1.000  C
  C5       1.0000 0.94840  0.85180  0.89650  Biso   1.000  C
  C6       1.0000 0.05160  0.14820  0.89650  Biso   1.000  C
  C7       1.0000 0.55160  0.35180  0.10350  Biso   1.000  C
  C8       1.0000 0.44840  0.64820  0.10350  Biso   1.000  C
  C9       1.0000 0.10610  0.30800  0.20050  Biso   1.000  C
  C10      1.0000 0.89390  0.69200  0.20050  Biso   1.000  C
  C11      1.0000 0.39390  0.80800  0.79950  Biso   1.000  C
  C12      1.0000 0.60610  0.19200  0.79950  Biso   1.000  C
  C13      1.0000 0.89390  0.69200  0.79950  Biso   1.000  C
  C14      1.0000 0.10610  0.30800  0.79950  Biso   1.000  C
  C15      1.0000 0.60610  0.19200  0.20050  Biso   1.000  C
  C16      1.0000 0.39390  0.80800  0.20050  Biso   1.000  C
  H1       1.0000 0.10680  0.31040  0.33460  Biso   1.000  H
  H2       1.0000 0.89320  0.68960  0.33460  Biso   1.000  H
  H3       1.0000 0.39320  0.81040  0.66540  Biso   1.000  H
  H4       1.0000 0.60680  0.18960  0.66540  Biso   1.000  H
  H5       1.0000 0.89320  0.68960  0.66540  Biso   1.000  H
  H6       1.0000 0.10680  0.31040  0.66540  Biso   1.000  H
  H7       1.0000 0.60680  0.18960  0.33460  Biso   1.000  H
  H8       1.0000 0.39320  0.81040  0.33460  Biso   1.000  H
  C17      1.0000 0.15720  0.45700  0.10150  Biso   1.000  C
  C18      1.0000 0.84280  0.54300  0.10150  Biso   1.000  C
  C19      1.0000 0.34280  0.95700  0.89850  Biso   1.000  C
  C20      1.0000 0.65720  0.04300  0.89850  Biso   1.000  C
  C21      1.0000 0.84280  0.54300  0.89850  Biso   1.000  C
  C22      1.0000 0.15720  0.45700  0.89850  Biso   1.000  C
  C23      1.0000 0.65720  0.04300  0.10150  Biso   1.000  C
  C24      1.0000 0.34280  0.95700  0.10150  Biso   1.000  C
  H9       1.0000 0.19270  0.56070  0.16790  Biso   1.000  H
  H10      1.0000 0.80730  0.43930  0.16790  Biso   1.000  H
  H11      1.0000 0.30730  0.06070  0.83210  Biso   1.000  H
  H12      1.0000 0.69270  0.93930  0.83210  Biso   1.000  H
  H13      1.0000 0.80730  0.43930  0.83210  Biso   1.000  H
  H14      1.0000 0.19270  0.56070  0.83210  Biso   1.000  H
  H15      1.0000 0.69270  0.93930  0.16790  Biso   1.000  H
  H16      1.0000 0.30730  0.06070  0.16790  Biso   1.000  H
