data_image0
_cell_length_a       17.953
_cell_length_b       8.6761
_cell_length_c       16.628
_cell_angle_alpha    90
_cell_angle_beta     116.78
_cell_angle_gamma    90

_symmetry_space_group_name_H-M    "P 1"
_symmetry_int_tables_number       1

loop_
  _symmetry_equiv_pos_as_xyz
  'x, y, z'

loop_
  _atom_site_label
  _atom_site_occupancy
  _atom_site_fract_x
  _atom_site_fract_y
  _atom_site_fract_z
  _atom_site_thermal_displace_type
  _atom_site_B_iso_or_equiv
  _atom_site_type_symbol
  Cu1      1.0000 0.57309  0.41560  0.21452  Biso   1.000  Cu
  Cu2      1.0000 0.42691  0.41560  0.28548  Biso   1.000  Cu
  Cu3      1.0000 0.07309  0.91560  0.21452  Biso   1.000  Cu
  Cu4      1.0000 0.92691  0.91560  0.28548  Biso   1.000  Cu
  Cu5      1.0000 0.42691  0.58440  0.78548  Biso   1.000  Cu
  Cu6      1.0000 0.57309  0.58440  0.71452  Biso   1.000  Cu
  Cu7      1.0000 0.92691  0.08440  0.78548  Biso   1.000  Cu
  Cu8      1.0000 0.07309  0.08440  0.71452  Biso   1.000  Cu
  Cl1      1.0000 0.65994  0.35760  0.14241  Biso   1.000  Cl
  Cl2      1.0000 0.34006  0.35760  0.35759  Biso   1.000  Cl
  Cl3      1.0000 0.15994  0.85760  0.14241  Biso   1.000  Cl
  Cl4      1.0000 0.84006  0.85760  0.35759  Biso   1.000  Cl
  Cl5      1.0000 0.34006  0.64240  0.85759  Biso   1.000  Cl
  Cl6      1.0000 0.65994  0.64240  0.64241  Biso   1.000  Cl
  Cl7      1.0000 0.84006  0.14240  0.85759  Biso   1.000  Cl
  Cl8      1.0000 0.15994  0.14240  0.64241  Biso   1.000  Cl
  N1       1.0000 0.53900  0.63150  0.16750  Biso   1.000  N
  N2       1.0000 0.46100  0.63150  0.33250  Biso   1.000  N
  N3       1.0000 0.03900  0.13150  0.16750  Biso   1.000  N
  N4       1.0000 0.96100  0.13150  0.33250  Biso   1.000  N
  N5       1.0000 0.46100  0.36850  0.83250  Biso   1.000  N
  N6       1.0000 0.53900  0.36850  0.66750  Biso   1.000  N
  N7       1.0000 0.96100  0.86850  0.83250  Biso   1.000  N
  N8       1.0000 0.03900  0.86850  0.66750  Biso   1.000  N
  C1       1.0000 0.58800  0.74510  0.22200  Biso   1.000  C
  C2       1.0000 0.41200  0.74510  0.27800  Biso   1.000  C
  C3       1.0000 0.08800  0.24510  0.22200  Biso   1.000  C
  C4       1.0000 0.91200  0.24510  0.27800  Biso   1.000  C
  C5       1.0000 0.41200  0.25490  0.77800  Biso   1.000  C
  C6       1.0000 0.58800  0.25490  0.72200  Biso   1.000  C
  C7       1.0000 0.91200  0.75490  0.77800  Biso   1.000  C
  C8       1.0000 0.08800  0.75490  0.72200  Biso   1.000  C
  C9       1.0000 0.65620  0.68700  0.30620  Biso   1.000  C
  C10      1.0000 0.34380  0.68700  0.19380  Biso   1.000  C
  C11      1.0000 0.15620  0.18700  0.30620  Biso   1.000  C
  C12      1.0000 0.84380  0.18700  0.19380  Biso   1.000  C
  C13      1.0000 0.34380  0.31300  0.69380  Biso   1.000  C
  C14      1.0000 0.65620  0.31300  0.80620  Biso   1.000  C
  C15      1.0000 0.84380  0.81300  0.69380  Biso   1.000  C
  C16      1.0000 0.15620  0.81300  0.80620  Biso   1.000  C
  H1       1.0000 0.69340  0.75590  0.35050  Biso   1.000  H
  H2       1.0000 0.30660  0.75590  0.14950  Biso   1.000  H
  H3       1.0000 0.19340  0.25590  0.35050  Biso   1.000  H
  H4       1.0000 0.80660  0.25590  0.14950  Biso   1.000  H
  H5       1.0000 0.30660  0.24410  0.64950  Biso   1.000  H
  H6       1.0000 0.69340  0.24410  0.85050  Biso   1.000  H
  H7       1.0000 0.80660  0.74410  0.64950  Biso   1.000  H
  H8       1.0000 0.19340  0.74410  0.85050  Biso   1.000  H
  N9       1.0000 0.66390  0.54140  0.31800  Biso   1.000  N
  N10      1.0000 0.33610  0.54140  0.18200  Biso   1.000  N
  N11      1.0000 0.16390  0.04140  0.31800  Biso   1.000  N
  N12      1.0000 0.83610  0.04140  0.18200  Biso   1.000  N
  N13      1.0000 0.33610  0.45860  0.68200  Biso   1.000  N
  N14      1.0000 0.66390  0.45860  0.81800  Biso   1.000  N
  N15      1.0000 0.83610  0.95860  0.68200  Biso   1.000  N
  N16      1.0000 0.16390  0.95860  0.81800  Biso   1.000  N
  C17      1.0000 0.73040  0.47910  0.39690  Biso   1.000  C
  C18      1.0000 0.26960  0.47910  0.10310  Biso   1.000  C
  C19      1.0000 0.23040  0.97910  0.39690  Biso   1.000  C
  C20      1.0000 0.76960  0.97910  0.10310  Biso   1.000  C
  C21      1.0000 0.26960  0.52090  0.60310  Biso   1.000  C
  C22      1.0000 0.73040  0.52090  0.89690  Biso   1.000  C
  C23      1.0000 0.76960  0.02090  0.60310  Biso   1.000  C
  C24      1.0000 0.23040  0.02090  0.89690  Biso   1.000  C
  C25      1.0000 0.78070  0.36770  0.38820  Biso   1.000  C
  C26      1.0000 0.21930  0.36770  0.11180  Biso   1.000  C
  C27      1.0000 0.28070  0.86770  0.38820  Biso   1.000  C
  C28      1.0000 0.71930  0.86770  0.11180  Biso   1.000  C
  C29      1.0000 0.21930  0.63230  0.61180  Biso   1.000  C
  C30      1.0000 0.78070  0.63230  0.88820  Biso   1.000  C
  C31      1.0000 0.71930  0.13230  0.61180  Biso   1.000  C
  C32      1.0000 0.28070  0.13230  0.88820  Biso   1.000  C
  H9       1.0000 0.77300  0.33790  0.33000  Biso   1.000  H
  H10      1.0000 0.22700  0.33790  0.17000  Biso   1.000  H
  H11      1.0000 0.27300  0.83790  0.33000  Biso   1.000  H
  H12      1.0000 0.72700  0.83790  0.17000  Biso   1.000  H
  H13      1.0000 0.22700  0.66210  0.67000  Biso   1.000  H
  H14      1.0000 0.77300  0.66210  0.83000  Biso   1.000  H
  H15      1.0000 0.72700  0.16210  0.67000  Biso   1.000  H
  H16      1.0000 0.27300  0.16210  0.83000  Biso   1.000  H
  C33      1.0000 0.84320  0.29790  0.46490  Biso   1.000  C
  C34      1.0000 0.15680  0.29790  0.03510  Biso   1.000  C
  C35      1.0000 0.34320  0.79790  0.46490  Biso   1.000  C
  C36      1.0000 0.65680  0.79790  0.03510  Biso   1.000  C
  C37      1.0000 0.15680  0.70210  0.53510  Biso   1.000  C
  C38      1.0000 0.84320  0.70210  0.96490  Biso   1.000  C
  C39      1.0000 0.65680  0.20210  0.53510  Biso   1.000  C
  C40      1.0000 0.34320  0.20210  0.96490  Biso   1.000  C
  H17      1.0000 0.87980  0.22470  0.45900  Biso   1.000  H
  H18      1.0000 0.12020  0.22470  0.04100  Biso   1.000  H
  H19      1.0000 0.37980  0.72470  0.45900  Biso   1.000  H
  H20      1.0000 0.62020  0.72470  0.04100  Biso   1.000  H
  H21      1.0000 0.12020  0.77530  0.54100  Biso   1.000  H
  H22      1.0000 0.87980  0.77530  0.95900  Biso   1.000  H
  H23      1.0000 0.62020  0.27530  0.54100  Biso   1.000  H
  H24      1.0000 0.37980  0.27530  0.95900  Biso   1.000  H
  C41      1.0000 0.85150  0.33570  0.54870  Biso   1.000  C
  C42      1.0000 0.14850  0.33570  0.95130  Biso   1.000  C
  C43      1.0000 0.35150  0.83570  0.54870  Biso   1.000  C
  C44      1.0000 0.64850  0.83570  0.95130  Biso   1.000  C
  C45      1.0000 0.14850  0.66430  0.45130  Biso   1.000  C
  C46      1.0000 0.85150  0.66430  0.04870  Biso   1.000  C
  C47      1.0000 0.64850  0.16430  0.45130  Biso   1.000  C
  C48      1.0000 0.35150  0.16430  0.04870  Biso   1.000  C
  C49      1.0000 0.79900  0.44800  0.55770  Biso   1.000  C
  C50      1.0000 0.20100  0.44800  0.94230  Biso   1.000  C
  C51      1.0000 0.29900  0.94800  0.55770  Biso   1.000  C
  C52      1.0000 0.70100  0.94800  0.94230  Biso   1.000  C
  C53      1.0000 0.20100  0.55200  0.44230  Biso   1.000  C
  C54      1.0000 0.79900  0.55200  0.05770  Biso   1.000  C
  C55      1.0000 0.70100  0.05200  0.44230  Biso   1.000  C
  C56      1.0000 0.29900  0.05200  0.05770  Biso   1.000  C
  H25      1.0000 0.80440  0.47320  0.61570  Biso   1.000  H
  H26      1.0000 0.19560  0.47320  0.88430  Biso   1.000  H
  H27      1.0000 0.30440  0.97320  0.61570  Biso   1.000  H
  H28      1.0000 0.69560  0.97320  0.88430  Biso   1.000  H
  H29      1.0000 0.19560  0.52680  0.38430  Biso   1.000  H
  H30      1.0000 0.80440  0.52680  0.11570  Biso   1.000  H
  H31      1.0000 0.69560  0.02680  0.38430  Biso   1.000  H
  H32      1.0000 0.30440  0.02680  0.11570  Biso   1.000  H
  C57      1.0000 0.73980  0.52140  0.48260  Biso   1.000  C
  C58      1.0000 0.26020  0.52140  0.01740  Biso   1.000  C
  C59      1.0000 0.23980  0.02140  0.48260  Biso   1.000  C
  C60      1.0000 0.76020  0.02140  0.01740  Biso   1.000  C
  C61      1.0000 0.26020  0.47860  0.51740  Biso   1.000  C
  C62      1.0000 0.73980  0.47860  0.98260  Biso   1.000  C
  C63      1.0000 0.76020  0.97860  0.51740  Biso   1.000  C
  C64      1.0000 0.23980  0.97860  0.98260  Biso   1.000  C
  H33      1.0000 0.70560  0.59970  0.48860  Biso   1.000  H
  H34      1.0000 0.29440  0.59970  0.01140  Biso   1.000  H
  H35      1.0000 0.20560  0.09970  0.48860  Biso   1.000  H
  H36      1.0000 0.79440  0.09970  0.01140  Biso   1.000  H
  H37      1.0000 0.29440  0.40030  0.51140  Biso   1.000  H
  H38      1.0000 0.70560  0.40030  0.98860  Biso   1.000  H
  H39      1.0000 0.79440  0.90030  0.51140  Biso   1.000  H
  H40      1.0000 0.20560  0.90030  0.98860  Biso   1.000  H
  C65      1.0000 0.91250  0.24980  0.63110  Biso   1.000  C
  C66      1.0000 0.08750  0.24980  0.86890  Biso   1.000  C
  C67      1.0000 0.41250  0.74980  0.63110  Biso   1.000  C
  C68      1.0000 0.58750  0.74980  0.86890  Biso   1.000  C
  C69      1.0000 0.08750  0.75020  0.36890  Biso   1.000  C
  C70      1.0000 0.91250  0.75020  0.13110  Biso   1.000  C
  C71      1.0000 0.58750  0.25020  0.36890  Biso   1.000  C
  C72      1.0000 0.41250  0.25020  0.13110  Biso   1.000  C
  O1       1.0000 0.96650  0.16850  0.62180  Biso   1.000  O
  O2       1.0000 0.03350  0.16850  0.87820  Biso   1.000  O
  O3       1.0000 0.46650  0.66850  0.62180  Biso   1.000  O
  O4       1.0000 0.53350  0.66850  0.87820  Biso   1.000  O
  O5       1.0000 0.03350  0.83150  0.37820  Biso   1.000  O
  O6       1.0000 0.96650  0.83150  0.12180  Biso   1.000  O
  O7       1.0000 0.53350  0.33150  0.37820  Biso   1.000  O
  O8       1.0000 0.46650  0.33150  0.12180  Biso   1.000  O
  O9       1.0000 0.90380  0.26110  0.70220  Biso   1.000  O
  O10      1.0000 0.09620  0.26110  0.79780  Biso   1.000  O
  O11      1.0000 0.40380  0.76110  0.70220  Biso   1.000  O
  O12      1.0000 0.59620  0.76110  0.79780  Biso   1.000  O
  O13      1.0000 0.09620  0.73890  0.29780  Biso   1.000  O
  O14      1.0000 0.90380  0.73890  0.20220  Biso   1.000  O
  O15      1.0000 0.59620  0.23890  0.29780  Biso   1.000  O
  O16      1.0000 0.40380  0.23890  0.20220  Biso   1.000  O
  C73      1.0000 0.57860  0.89940  0.19830  Biso   1.000  C
  C74      1.0000 0.42140  0.89940  0.30170  Biso   1.000  C
  C75      1.0000 0.07860  0.39940  0.19830  Biso   1.000  C
  C76      1.0000 0.92140  0.39940  0.30170  Biso   1.000  C
  C77      1.0000 0.42140  0.10060  0.80170  Biso   1.000  C
  C78      1.0000 0.57860  0.10060  0.69830  Biso   1.000  C
  C79      1.0000 0.92140  0.60060  0.80170  Biso   1.000  C
  C80      1.0000 0.07860  0.60060  0.69830  Biso   1.000  C
  H41      1.0000 0.61420  0.97550  0.23820  Biso   1.000  H
  H42      1.0000 0.38580  0.97550  0.26180  Biso   1.000  H
  H43      1.0000 0.11420  0.47550  0.23820  Biso   1.000  H
  H44      1.0000 0.88580  0.47550  0.26180  Biso   1.000  H
  H45      1.0000 0.38580  0.02450  0.76180  Biso   1.000  H
  H46      1.0000 0.61420  0.02450  0.73820  Biso   1.000  H
  H47      1.0000 0.88580  0.52450  0.76180  Biso   1.000  H
  H48      1.0000 0.11420  0.52450  0.73820  Biso   1.000  H
  C81      1.0000 0.51590  0.93930  0.11490  Biso   1.000  C
  C82      1.0000 0.48410  0.93930  0.38510  Biso   1.000  C
  C83      1.0000 0.01590  0.43930  0.11490  Biso   1.000  C
  C84      1.0000 0.98410  0.43930  0.38510  Biso   1.000  C
  C85      1.0000 0.48410  0.06070  0.88510  Biso   1.000  C
  C86      1.0000 0.51590  0.06070  0.61490  Biso   1.000  C
  C87      1.0000 0.98410  0.56070  0.88510  Biso   1.000  C
  C88      1.0000 0.01590  0.56070  0.61490  Biso   1.000  C
  H49      1.0000 0.50790  0.04390  0.09610  Biso   1.000  H
  H50      1.0000 0.49210  0.04390  0.40390  Biso   1.000  H
  H51      1.0000 0.00790  0.54390  0.09610  Biso   1.000  H
  H52      1.0000 0.99210  0.54390  0.40390  Biso   1.000  H
  H53      1.0000 0.49210  0.95610  0.90390  Biso   1.000  H
  H54      1.0000 0.50790  0.95610  0.59610  Biso   1.000  H
  H55      1.0000 0.99210  0.45610  0.90390  Biso   1.000  H
  H56      1.0000 0.00790  0.45610  0.59610  Biso   1.000  H
  C89      1.0000 0.46460  0.82450  0.05850  Biso   1.000  C
  C90      1.0000 0.53540  0.82450  0.44150  Biso   1.000  C
  C91      1.0000 0.96460  0.32450  0.05850  Biso   1.000  C
  C92      1.0000 0.03540  0.32450  0.44150  Biso   1.000  C
  C93      1.0000 0.53540  0.17550  0.94150  Biso   1.000  C
  C94      1.0000 0.46460  0.17550  0.55850  Biso   1.000  C
  C95      1.0000 0.03540  0.67550  0.94150  Biso   1.000  C
  C96      1.0000 0.96460  0.67550  0.55850  Biso   1.000  C
  H57      1.0000 0.42060  0.84990  0.00120  Biso   1.000  H
  H58      1.0000 0.57940  0.84990  0.49880  Biso   1.000  H
  H59      1.0000 0.92060  0.34990  0.00120  Biso   1.000  H
  H60      1.0000 0.07940  0.34990  0.49880  Biso   1.000  H
  H61      1.0000 0.57940  0.15010  0.99880  Biso   1.000  H
  H62      1.0000 0.42060  0.15010  0.50120  Biso   1.000  H
  H63      1.0000 0.07940  0.65010  0.99880  Biso   1.000  H
  H64      1.0000 0.92060  0.65010  0.50120  Biso   1.000  H
  C97      1.0000 0.47850  0.67440  0.08710  Biso   1.000  C
  C98      1.0000 0.52150  0.67440  0.41290  Biso   1.000  C
  C99      1.0000 0.97850  0.17440  0.08710  Biso   1.000  C
  C100     1.0000 0.02150  0.17440  0.41290  Biso   1.000  C
  C101     1.0000 0.52150  0.32560  0.91290  Biso   1.000  C
  C102     1.0000 0.47850  0.32560  0.58710  Biso   1.000  C
  C103     1.0000 0.02150  0.82560  0.91290  Biso   1.000  C
  C104     1.0000 0.97850  0.82560  0.58710  Biso   1.000  C
  H65      1.0000 0.44350  0.59680  0.04800  Biso   1.000  H
  H66      1.0000 0.55650  0.59680  0.45200  Biso   1.000  H
  H67      1.0000 0.94350  0.09680  0.04800  Biso   1.000  H
  H68      1.0000 0.05650  0.09680  0.45200  Biso   1.000  H
  H69      1.0000 0.55650  0.40320  0.95200  Biso   1.000  H
  H70      1.0000 0.44350  0.40320  0.54800  Biso   1.000  H
  H71      1.0000 0.05650  0.90320  0.95200  Biso   1.000  H
  H72      1.0000 0.94350  0.90320  0.54800  Biso   1.000  H
