data_image0
_cell_length_a       10.8424
_cell_length_b       14.3465
_cell_length_c       11.1929
_cell_angle_alpha    90
_cell_angle_beta     108.741
_cell_angle_gamma    90

_symmetry_space_group_name_H-M    "P 1"
_symmetry_int_tables_number       1

loop_
  _symmetry_equiv_pos_as_xyz
  'x, y, z'

loop_
  _atom_site_label
  _atom_site_occupancy
  _atom_site_fract_x
  _atom_site_fract_y
  _atom_site_fract_z
  _atom_site_thermal_displace_type
  _atom_site_B_iso_or_equiv
  _atom_site_type_symbol
  Cu1      1.0000 0.53837  0.37118  0.64815  Biso   1.000  Cu
  Cu2      1.0000 0.96163  0.87118  0.85185  Biso   1.000  Cu
  Cu3      1.0000 0.46163  0.62882  0.35185  Biso   1.000  Cu
  Cu4      1.0000 0.03837  0.12882  0.14815  Biso   1.000  Cu
  O1       1.0000 0.35686  0.37764  0.64009  Biso   1.000  O
  O2       1.0000 0.14314  0.87764  0.85991  Biso   1.000  O
  O3       1.0000 0.64314  0.62236  0.35991  Biso   1.000  O
  O4       1.0000 0.85686  0.12236  0.14009  Biso   1.000  O
  O5       1.0000 0.27817  0.40992  0.43389  Biso   1.000  O
  O6       1.0000 0.22183  0.90992  0.06611  Biso   1.000  O
  O7       1.0000 0.72183  0.59008  0.56611  Biso   1.000  O
  O8       1.0000 0.77817  0.09008  0.93389  Biso   1.000  O
  O9       1.0000 0.64830  0.37559  0.45053  Biso   1.000  O
  O10      1.0000 0.85170  0.87559  0.04947  Biso   1.000  O
  O11      1.0000 0.35170  0.62441  0.54947  Biso   1.000  O
  O12      1.0000 0.14830  0.12441  0.95053  Biso   1.000  O
  O13      1.0000 0.72150  0.36803  0.66048  Biso   1.000  O
  O14      1.0000 0.77850  0.86803  0.83952  Biso   1.000  O
  O15      1.0000 0.27850  0.63197  0.33952  Biso   1.000  O
  O16      1.0000 0.22150  0.13197  0.16048  Biso   1.000  O
  O17      1.0000 0.59539  0.34997  0.86385  Biso   1.000  O
  O18      1.0000 0.90461  0.84997  0.63615  Biso   1.000  O
  O19      1.0000 0.40461  0.65003  0.13615  Biso   1.000  O
  O20      1.0000 0.09539  0.15003  0.36385  Biso   1.000  O
  O21      1.0000 0.55072  0.50852  0.65718  Biso   1.000  O
  O22      1.0000 0.94928  0.00852  0.84282  Biso   1.000  O
  O23      1.0000 0.44928  0.49148  0.34282  Biso   1.000  O
  O24      1.0000 0.05072  0.99148  0.15718  Biso   1.000  O
  H1       1.0000 0.60640  0.53130  0.62900  Biso   1.000  H
  H2       1.0000 0.89360  0.03130  0.87100  Biso   1.000  H
  H3       1.0000 0.39360  0.46870  0.37100  Biso   1.000  H
  H4       1.0000 0.10640  0.96870  0.12900  Biso   1.000  H
  H5       1.0000 0.48120  0.53890  0.62500  Biso   1.000  H
  H6       1.0000 0.01880  0.03890  0.87500  Biso   1.000  H
  H7       1.0000 0.51880  0.46110  0.37500  Biso   1.000  H
  H8       1.0000 0.98120  0.96110  0.12500  Biso   1.000  H
  N1       1.0000 0.52007  0.23600  0.59914  Biso   1.000  N
  N2       1.0000 0.97993  0.73600  0.90086  Biso   1.000  N
  N3       1.0000 0.47993  0.76400  0.40086  Biso   1.000  N
  N4       1.0000 0.02007  0.26400  0.09914  Biso   1.000  N
  N5       1.0000 0.51390  0.37178  0.02550  Biso   1.000  N
  N6       1.0000 0.98610  0.87178  0.47450  Biso   1.000  N
  N7       1.0000 0.48610  0.62822  0.97450  Biso   1.000  N
  N8       1.0000 0.01390  0.12822  0.52550  Biso   1.000  N
  C1       1.0000 0.60800  0.17317  0.66171  Biso   1.000  C
  C2       1.0000 0.89200  0.67317  0.83829  Biso   1.000  C
  C3       1.0000 0.39200  0.82683  0.33829  Biso   1.000  C
  C4       1.0000 0.10800  0.32683  0.16171  Biso   1.000  C
  H9       1.0000 0.67700  0.19310  0.73360  Biso   1.000  H
  H10      1.0000 0.82300  0.69310  0.76640  Biso   1.000  H
  H11      1.0000 0.32300  0.80690  0.26640  Biso   1.000  H
  H12      1.0000 0.17700  0.30690  0.23360  Biso   1.000  H
  C5       1.0000 0.60310  0.08068  0.62679  Biso   1.000  C
  C6       1.0000 0.89690  0.58068  0.87321  Biso   1.000  C
  C7       1.0000 0.39690  0.91932  0.37321  Biso   1.000  C
  C8       1.0000 0.10310  0.41932  0.12679  Biso   1.000  C
  H13      1.0000 0.66760  0.03840  0.67470  Biso   1.000  H
  H14      1.0000 0.83240  0.53840  0.82530  Biso   1.000  H
  H15      1.0000 0.33240  0.96160  0.32530  Biso   1.000  H
  H16      1.0000 0.16760  0.46160  0.17470  Biso   1.000  H
  C9       1.0000 0.50411  0.04921  0.52162  Biso   1.000  C
  C10      1.0000 0.99589  0.54921  0.97838  Biso   1.000  C
  C11      1.0000 0.49589  0.95079  0.47838  Biso   1.000  C
  C12      1.0000 0.00411  0.45079  0.02162  Biso   1.000  C
  C13      1.0000 0.41230  0.11503  0.45831  Biso   1.000  C
  C14      1.0000 0.08770  0.61503  0.04169  Biso   1.000  C
  C15      1.0000 0.58770  0.88497  0.54169  Biso   1.000  C
  C16      1.0000 0.91230  0.38497  0.95831  Biso   1.000  C
  H17      1.0000 0.34160  0.09720  0.38660  Biso   1.000  H
  H18      1.0000 0.15840  0.59720  0.11340  Biso   1.000  H
  H19      1.0000 0.65840  0.90280  0.61340  Biso   1.000  H
  H20      1.0000 0.84160  0.40280  0.88660  Biso   1.000  H
  C17      1.0000 0.42370  0.20588  0.49936  Biso   1.000  C
  C18      1.0000 0.07630  0.70588  0.00064  Biso   1.000  C
  C19      1.0000 0.57630  0.79412  0.50064  Biso   1.000  C
  C20      1.0000 0.92370  0.29412  0.99936  Biso   1.000  C
  H21      1.0000 0.35960  0.24940  0.45430  Biso   1.000  H
  H22      1.0000 0.14040  0.74940  0.04570  Biso   1.000  H
  H23      1.0000 0.64040  0.75060  0.54570  Biso   1.000  H
  H24      1.0000 0.85960  0.25060  0.95430  Biso   1.000  H
  C21      1.0000 0.26399  0.39180  0.53743  Biso   1.000  C
  C22      1.0000 0.23601  0.89180  0.96257  Biso   1.000  C
  C23      1.0000 0.73601  0.60820  0.46257  Biso   1.000  C
  C24      1.0000 0.76399  0.10820  0.03743  Biso   1.000  C
  C25      1.0000 0.12944  0.38330  0.54406  Biso   1.000  C
  C26      1.0000 0.37056  0.88330  0.95594  Biso   1.000  C
  C27      1.0000 0.87056  0.61670  0.45594  Biso   1.000  C
  C28      1.0000 0.62944  0.11670  0.04406  Biso   1.000  C
  C29      1.0000 0.02418  0.39287  0.43468  Biso   1.000  C
  C30      1.0000 0.47582  0.89287  0.06532  Biso   1.000  C
  C31      1.0000 0.97582  0.60713  0.56532  Biso   1.000  C
  C32      1.0000 0.52418  0.10713  0.93468  Biso   1.000  C
  H25      1.0000 0.03870  0.40340  0.35650  Biso   1.000  H
  H26      1.0000 0.46130  0.90340  0.14350  Biso   1.000  H
  H27      1.0000 0.96130  0.59660  0.64350  Biso   1.000  H
  H28      1.0000 0.53870  0.09660  0.85650  Biso   1.000  H
  C33      1.0000 0.89902  0.38726  0.43854  Biso   1.000  C
  C34      1.0000 0.60098  0.88726  0.06146  Biso   1.000  C
  C35      1.0000 0.10098  0.61274  0.56146  Biso   1.000  C
  C36      1.0000 0.39902  0.11274  0.93854  Biso   1.000  C
  H29      1.0000 0.82780  0.39320  0.36280  Biso   1.000  H
  H30      1.0000 0.67220  0.89320  0.13720  Biso   1.000  H
  H31      1.0000 0.17220  0.60680  0.63720  Biso   1.000  H
  H32      1.0000 0.32780  0.10680  0.86280  Biso   1.000  H
  C37      1.0000 0.87567  0.37297  0.55176  Biso   1.000  C
  C38      1.0000 0.62433  0.87297  0.94824  Biso   1.000  C
  C39      1.0000 0.12433  0.62703  0.44824  Biso   1.000  C
  C40      1.0000 0.37567  0.12703  0.05176  Biso   1.000  C
  C41      1.0000 0.98110  0.36227  0.66153  Biso   1.000  C
  C42      1.0000 0.51890  0.86227  0.83847  Biso   1.000  C
  C43      1.0000 0.01890  0.63773  0.33847  Biso   1.000  C
  C44      1.0000 0.48110  0.13773  0.16153  Biso   1.000  C
  H33      1.0000 0.96650  0.35170  0.73970  Biso   1.000  H
  H34      1.0000 0.53350  0.85170  0.76030  Biso   1.000  H
  H35      1.0000 0.03350  0.64830  0.26030  Biso   1.000  H
  H36      1.0000 0.46650  0.14830  0.23970  Biso   1.000  H
  C45      1.0000 0.10590  0.36693  0.65759  Biso   1.000  C
  C46      1.0000 0.39410  0.86693  0.84241  Biso   1.000  C
  C47      1.0000 0.89410  0.63307  0.34241  Biso   1.000  C
  C48      1.0000 0.60590  0.13307  0.15759  Biso   1.000  C
  H37      1.0000 0.17710  0.35890  0.73300  Biso   1.000  H
  H38      1.0000 0.32290  0.85890  0.76700  Biso   1.000  H
  H39      1.0000 0.82290  0.64110  0.26700  Biso   1.000  H
  H40      1.0000 0.67710  0.14110  0.23300  Biso   1.000  H
  C49      1.0000 0.73800  0.37214  0.55229  Biso   1.000  C
  C50      1.0000 0.76200  0.87214  0.94771  Biso   1.000  C
  C51      1.0000 0.26200  0.62786  0.44771  Biso   1.000  C
  C52      1.0000 0.23800  0.12786  0.05229  Biso   1.000  C
  C53      1.0000 0.50480  0.35112  0.90772  Biso   1.000  C
  C54      1.0000 0.99520  0.85112  0.59228  Biso   1.000  C
  C55      1.0000 0.49520  0.64888  0.09228  Biso   1.000  C
  C56      1.0000 0.00480  0.14888  0.40772  Biso   1.000  C
  H41      1.0000 0.42080  0.33580  0.85200  Biso   1.000  H
  H42      1.0000 0.07920  0.83580  0.64800  Biso   1.000  H
  H43      1.0000 0.57920  0.66420  0.14800  Biso   1.000  H
  H44      1.0000 0.92080  0.16420  0.35200  Biso   1.000  H
  C57      1.0000 0.40010  0.37555  0.06600  Biso   1.000  C
  C58      1.0000 0.09990  0.87555  0.43400  Biso   1.000  C
  C59      1.0000 0.59990  0.62445  0.93400  Biso   1.000  C
  C60      1.0000 0.90010  0.12445  0.56600  Biso   1.000  C
  H45      1.0000 0.32440  0.35220  0.99840  Biso   1.000  H
  H46      1.0000 0.17560  0.85220  0.50160  Biso   1.000  H
  H47      1.0000 0.67560  0.64780  0.00160  Biso   1.000  H
  H48      1.0000 0.82440  0.14780  0.49840  Biso   1.000  H
  H49      1.0000 0.38440  0.44010  0.08560  Biso   1.000  H
  H50      1.0000 0.11560  0.94010  0.41440  Biso   1.000  H
  H51      1.0000 0.61560  0.55990  0.91440  Biso   1.000  H
  H52      1.0000 0.88440  0.05990  0.58560  Biso   1.000  H
  H53      1.0000 0.41450  0.33680  0.14140  Biso   1.000  H
  H54      1.0000 0.08550  0.83680  0.35860  Biso   1.000  H
  H55      1.0000 0.58550  0.66320  0.85860  Biso   1.000  H
  H56      1.0000 0.91450  0.16320  0.64140  Biso   1.000  H
  C61      1.0000 0.63830  0.39230  0.11830  Biso   1.000  C
  C62      1.0000 0.86170  0.89230  0.38170  Biso   1.000  C
  C63      1.0000 0.36170  0.60770  0.88170  Biso   1.000  C
  C64      1.0000 0.13830  0.10770  0.61830  Biso   1.000  C
  H57      1.0000 0.70720  0.38670  0.07960  Biso   1.000  H
  H58      1.0000 0.79280  0.88670  0.42040  Biso   1.000  H
  H59      1.0000 0.29280  0.61330  0.92040  Biso   1.000  H
  H60      1.0000 0.20720  0.11330  0.57960  Biso   1.000  H
  H61      1.0000 0.65480  0.34830  0.18870  Biso   1.000  H
  H62      1.0000 0.84520  0.84830  0.31130  Biso   1.000  H
  H63      1.0000 0.34520  0.65170  0.81130  Biso   1.000  H
  H64      1.0000 0.15480  0.15170  0.68870  Biso   1.000  H
  H65      1.0000 0.63730  0.45600  0.14970  Biso   1.000  H
  H66      1.0000 0.86270  0.95600  0.35030  Biso   1.000  H
  H67      1.0000 0.36270  0.54400  0.85030  Biso   1.000  H
  H68      1.0000 0.13730  0.04400  0.64970  Biso   1.000  H
