data_image0
_cell_length_a       13.942
_cell_length_b       10.407
_cell_length_c       15.777
_cell_angle_alpha    90
_cell_angle_beta     108.14
_cell_angle_gamma    90

_symmetry_space_group_name_H-M    "P 1"
_symmetry_int_tables_number       1

loop_
  _symmetry_equiv_pos_as_xyz
  'x, y, z'

loop_
  _atom_site_label
  _atom_site_occupancy
  _atom_site_fract_x
  _atom_site_fract_y
  _atom_site_fract_z
  _atom_site_thermal_displace_type
  _atom_site_B_iso_or_equiv
  _atom_site_type_symbol
  C1       1.0000 0.59480  0.84020  0.32210  Biso   1.000  C
  C2       1.0000 0.90520  0.34020  0.17790  Biso   1.000  C
  C3       1.0000 0.40520  0.15980  0.67790  Biso   1.000  C
  C4       1.0000 0.09480  0.65980  0.82210  Biso   1.000  C
  H1       1.0000 0.61100  0.75900  0.34710  Biso   1.000  H
  H2       1.0000 0.88900  0.25900  0.15290  Biso   1.000  H
  H3       1.0000 0.38900  0.24100  0.65290  Biso   1.000  H
  H4       1.0000 0.11100  0.74100  0.84710  Biso   1.000  H
  Cu1      1.0000 0.33051  0.06293  0.18939  Biso   1.000  Cu
  Cu2      1.0000 0.16949  0.56293  0.31061  Biso   1.000  Cu
  Cu3      1.0000 0.66949  0.93707  0.81061  Biso   1.000  Cu
  Cu4      1.0000 0.83051  0.43707  0.68939  Biso   1.000  Cu
  S1       1.0000 0.32238  0.15721  0.34367  Biso   1.000  S
  S2       1.0000 0.17762  0.65721  0.15633  Biso   1.000  S
  S3       1.0000 0.67762  0.84279  0.65633  Biso   1.000  S
  S4       1.0000 0.82238  0.34279  0.84367  Biso   1.000  S
  N1       1.0000 0.41015  0.19310  0.14319  Biso   1.000  N
  N2       1.0000 0.08985  0.69310  0.35681  Biso   1.000  N
  N3       1.0000 0.58985  0.80690  0.85681  Biso   1.000  N
  N4       1.0000 0.91015  0.30690  0.64319  Biso   1.000  N
  N5       1.0000 0.21450  0.16710  0.11571  Biso   1.000  N
  N6       1.0000 0.28550  0.66710  0.38429  Biso   1.000  N
  N7       1.0000 0.78550  0.83290  0.88429  Biso   1.000  N
  N8       1.0000 0.71450  0.33290  0.61571  Biso   1.000  N
  C5       1.0000 0.50880  0.20780  0.21287  Biso   1.000  C
  C6       1.0000 0.99120  0.70780  0.28713  Biso   1.000  C
  C7       1.0000 0.49120  0.79220  0.78713  Biso   1.000  C
  C8       1.0000 0.00880  0.29220  0.71287  Biso   1.000  C
  H5       1.0000 0.55740  0.24530  0.18740  Biso   1.000  H
  H6       1.0000 0.94260  0.74530  0.31260  Biso   1.000  H
  H7       1.0000 0.44260  0.75470  0.81260  Biso   1.000  H
  H8       1.0000 0.05740  0.25470  0.68740  Biso   1.000  H
  H9       1.0000 0.50220  0.26450  0.25960  Biso   1.000  H
  H10      1.0000 0.99780  0.76450  0.24040  Biso   1.000  H
  H11      1.0000 0.49780  0.73550  0.74040  Biso   1.000  H
  H12      1.0000 0.00220  0.23550  0.75960  Biso   1.000  H
  C9       1.0000 0.35110  0.31320  0.12638  Biso   1.000  C
  C10      1.0000 0.14890  0.81320  0.37362  Biso   1.000  C
  C11      1.0000 0.64890  0.68680  0.87362  Biso   1.000  C
  C12      1.0000 0.85110  0.18680  0.62638  Biso   1.000  C
  H13      1.0000 0.37110  0.36600  0.08410  Biso   1.000  H
  H14      1.0000 0.12890  0.86600  0.41590  Biso   1.000  H
  H15      1.0000 0.62890  0.63400  0.91590  Biso   1.000  H
  H16      1.0000 0.87110  0.13400  0.58410  Biso   1.000  H
  H17      1.0000 0.36380  0.36130  0.18150  Biso   1.000  H
  H18      1.0000 0.13620  0.86130  0.31850  Biso   1.000  H
  H19      1.0000 0.63620  0.63870  0.81850  Biso   1.000  H
  H20      1.0000 0.86380  0.13870  0.68150  Biso   1.000  H
  N9       1.0000 0.46980  0.99420  0.24864  Biso   1.000  N
  N10      1.0000 0.03020  0.49420  0.25136  Biso   1.000  N
  N11      1.0000 0.53020  0.00580  0.75136  Biso   1.000  N
  N12      1.0000 0.96980  0.50580  0.74864  Biso   1.000  N
  C13      1.0000 0.57870  0.19240  0.02670  Biso   1.000  C
  C14      1.0000 0.92130  0.69240  0.47330  Biso   1.000  C
  C15      1.0000 0.42130  0.80760  0.97330  Biso   1.000  C
  C16      1.0000 0.07870  0.30760  0.52670  Biso   1.000  C
  H21      1.0000 0.61370  0.13620  0.07140  Biso   1.000  H
  H22      1.0000 0.88630  0.63620  0.42860  Biso   1.000  H
  H23      1.0000 0.38630  0.86380  0.92860  Biso   1.000  H
  H24      1.0000 0.11370  0.36380  0.57140  Biso   1.000  H
  C17      1.0000 0.24090  0.28110  0.08970  Biso   1.000  C
  C18      1.0000 0.25910  0.78110  0.41030  Biso   1.000  C
  C19      1.0000 0.75910  0.71890  0.91030  Biso   1.000  C
  C20      1.0000 0.74090  0.21890  0.58970  Biso   1.000  C
  C21      1.0000 0.47550  0.20910  0.00910  Biso   1.000  C
  C22      1.0000 0.02450  0.70910  0.49090  Biso   1.000  C
  C23      1.0000 0.52450  0.79090  0.99090  Biso   1.000  C
  C24      1.0000 0.97550  0.29090  0.50910  Biso   1.000  C
  C25      1.0000 0.54440  0.07870  0.25080  Biso   1.000  C
  C26      1.0000 0.95560  0.57870  0.24920  Biso   1.000  C
  C27      1.0000 0.45560  0.92130  0.74920  Biso   1.000  C
  C28      1.0000 0.04440  0.42130  0.75080  Biso   1.000  C
  C29      1.0000 0.27550  0.30100  0.32361  Biso   1.000  C
  C30      1.0000 0.22450  0.80100  0.17639  Biso   1.000  C
  C31      1.0000 0.72450  0.69900  0.67639  Biso   1.000  C
  C32      1.0000 0.77550  0.19900  0.82361  Biso   1.000  C
  C33      1.0000 0.62970  0.25920  0.97780  Biso   1.000  C
  C34      1.0000 0.87030  0.75920  0.52220  Biso   1.000  C
  C35      1.0000 0.37030  0.74080  0.02220  Biso   1.000  C
  C36      1.0000 0.12970  0.24080  0.47780  Biso   1.000  C
  H25      1.0000 0.69890  0.24840  0.99020  Biso   1.000  H
  H26      1.0000 0.80110  0.74840  0.50980  Biso   1.000  H
  H27      1.0000 0.30110  0.75160  0.00980  Biso   1.000  H
  H28      1.0000 0.19890  0.25160  0.49020  Biso   1.000  H
  C37      1.0000 0.41830  0.13290  0.05870  Biso   1.000  C
  C38      1.0000 0.08170  0.63290  0.44130  Biso   1.000  C
  C39      1.0000 0.58170  0.86710  0.94130  Biso   1.000  C
  C40      1.0000 0.91830  0.36710  0.55870  Biso   1.000  C
  H29      1.0000 0.45070  0.04980  0.07360  Biso   1.000  H
  H30      1.0000 0.04930  0.54980  0.42640  Biso   1.000  H
  H31      1.0000 0.54930  0.95020  0.92640  Biso   1.000  H
  H32      1.0000 0.95070  0.45020  0.57360  Biso   1.000  H
  H33      1.0000 0.35060  0.11790  0.01880  Biso   1.000  H
  H34      1.0000 0.14940  0.61790  0.48120  Biso   1.000  H
  H35      1.0000 0.64940  0.88210  0.98120  Biso   1.000  H
  H36      1.0000 0.85060  0.38210  0.51880  Biso   1.000  H
  C41      1.0000 0.49500  0.87580  0.28380  Biso   1.000  C
  C42      1.0000 0.00500  0.37580  0.21620  Biso   1.000  C
  C43      1.0000 0.50500  0.12420  0.71620  Biso   1.000  C
  C44      1.0000 0.99500  0.62420  0.78380  Biso   1.000  C
  H37      1.0000 0.44420  0.81710  0.28230  Biso   1.000  H
  H38      1.0000 0.05580  0.31710  0.21770  Biso   1.000  H
  H39      1.0000 0.55580  0.18290  0.71770  Biso   1.000  H
  H40      1.0000 0.94420  0.68290  0.78230  Biso   1.000  H
  C45      1.0000 0.17080  0.36280  0.03550  Biso   1.000  C
  C46      1.0000 0.32920  0.86280  0.46450  Biso   1.000  C
  C47      1.0000 0.82920  0.63720  0.96450  Biso   1.000  C
  C48      1.0000 0.67080  0.13720  0.53550  Biso   1.000  C
  H41      1.0000 0.19050  0.44110  0.01780  Biso   1.000  H
  H42      1.0000 0.30950  0.94110  0.48220  Biso   1.000  H
  H43      1.0000 0.80950  0.55890  0.98220  Biso   1.000  H
  H44      1.0000 0.69050  0.05890  0.51780  Biso   1.000  H
  C49      1.0000 0.42410  0.29030  0.94070  Biso   1.000  C
  C50      1.0000 0.07590  0.79030  0.55930  Biso   1.000  C
  C51      1.0000 0.57590  0.70970  0.05930  Biso   1.000  C
  C52      1.0000 0.92410  0.20970  0.44070  Biso   1.000  C
  H45      1.0000 0.35450  0.29970  0.92660  Biso   1.000  H
  H46      1.0000 0.14550  0.79970  0.57340  Biso   1.000  H
  H47      1.0000 0.64550  0.70030  0.07340  Biso   1.000  H
  H48      1.0000 0.85450  0.20030  0.42660  Biso   1.000  H
  C53      1.0000 0.64450  0.04700  0.28660  Biso   1.000  C
  C54      1.0000 0.85550  0.54700  0.21340  Biso   1.000  C
  C55      1.0000 0.35550  0.95300  0.71340  Biso   1.000  C
  C56      1.0000 0.14450  0.45300  0.78660  Biso   1.000  C
  H49      1.0000 0.69450  0.10600  0.28650  Biso   1.000  H
  H50      1.0000 0.80550  0.60600  0.21350  Biso   1.000  H
  H51      1.0000 0.30550  0.89400  0.71350  Biso   1.000  H
  H52      1.0000 0.19450  0.39400  0.78650  Biso   1.000  H
  C57      1.0000 0.66980  0.92640  0.32270  Biso   1.000  C
  C58      1.0000 0.83020  0.42640  0.17730  Biso   1.000  C
  C59      1.0000 0.33020  0.07360  0.67730  Biso   1.000  C
  C60      1.0000 0.16980  0.57360  0.82270  Biso   1.000  C
  H53      1.0000 0.73720  0.90340  0.34730  Biso   1.000  H
  H54      1.0000 0.76280  0.40340  0.15270  Biso   1.000  H
  H55      1.0000 0.26280  0.09660  0.65270  Biso   1.000  H
  H56      1.0000 0.23720  0.59660  0.84730  Biso   1.000  H
  C61      1.0000 0.11710  0.13240  0.08860  Biso   1.000  C
  C62      1.0000 0.38290  0.63240  0.41140  Biso   1.000  C
  C63      1.0000 0.88290  0.86760  0.91140  Biso   1.000  C
  C64      1.0000 0.61710  0.36760  0.58860  Biso   1.000  C
  H57      1.0000 0.09850  0.05370  0.10660  Biso   1.000  H
  H58      1.0000 0.40150  0.55370  0.39340  Biso   1.000  H
  H59      1.0000 0.90150  0.94630  0.89340  Biso   1.000  H
  H60      1.0000 0.59850  0.44630  0.60660  Biso   1.000  H
  C65      1.0000 0.04420  0.21110  0.03450  Biso   1.000  C
  C66      1.0000 0.45580  0.71110  0.46550  Biso   1.000  C
  C67      1.0000 0.95580  0.78890  0.96550  Biso   1.000  C
  C68      1.0000 0.54420  0.28890  0.53450  Biso   1.000  C
  H61      1.0000 0.97690  0.18550  0.01620  Biso   1.000  H
  H62      1.0000 0.52310  0.68550  0.48380  Biso   1.000  H
  H63      1.0000 0.02310  0.81450  0.98380  Biso   1.000  H
  H64      1.0000 0.47690  0.31450  0.51620  Biso   1.000  H
  C69      1.0000 0.07060  0.32620  0.00800  Biso   1.000  C
  C70      1.0000 0.42940  0.82620  0.49200  Biso   1.000  C
  C71      1.0000 0.92940  0.67380  0.99200  Biso   1.000  C
  C72      1.0000 0.57060  0.17380  0.50800  Biso   1.000  C
  H65      1.0000 0.02170  0.38000  0.97150  Biso   1.000  H
  H66      1.0000 0.47830  0.88000  0.52850  Biso   1.000  H
  H67      1.0000 0.97830  0.62000  0.02850  Biso   1.000  H
  H68      1.0000 0.52170  0.12000  0.47150  Biso   1.000  H
  C73      1.0000 0.57800  0.34150  0.91090  Biso   1.000  C
  C74      1.0000 0.92200  0.84150  0.58910  Biso   1.000  C
  C75      1.0000 0.42200  0.65850  0.08910  Biso   1.000  C
  C76      1.0000 0.07800  0.15850  0.41090  Biso   1.000  C
  H69      1.0000 0.61260  0.38560  0.87810  Biso   1.000  H
  H70      1.0000 0.88740  0.88560  0.62190  Biso   1.000  H
  H71      1.0000 0.38740  0.61440  0.12190  Biso   1.000  H
  H72      1.0000 0.11260  0.11440  0.37810  Biso   1.000  H
  C77      1.0000 0.47700  0.35910  0.89230  Biso   1.000  C
  C78      1.0000 0.02300  0.85910  0.60770  Biso   1.000  C
  C79      1.0000 0.52300  0.64090  0.10770  Biso   1.000  C
  C80      1.0000 0.97700  0.14090  0.39230  Biso   1.000  C
  H73      1.0000 0.44280  0.41620  0.84770  Biso   1.000  H
  H74      1.0000 0.05720  0.91620  0.65230  Biso   1.000  H
  H75      1.0000 0.55720  0.58380  0.15230  Biso   1.000  H
  H76      1.0000 0.94280  0.08380  0.34770  Biso   1.000  H
  N13      1.0000 0.24130  0.40260  0.30950  Biso   1.000  N
  N14      1.0000 0.25870  0.90260  0.19050  Biso   1.000  N
  N15      1.0000 0.75870  0.59740  0.69050  Biso   1.000  N
  N16      1.0000 0.74130  0.09740  0.80950  Biso   1.000  N
  Cl1      1.0000 0.64836  0.47390  0.36392  Biso   1.000  Cl
  Cl2      1.0000 0.85164  0.97390  0.13608  Biso   1.000  Cl
  Cl3      1.0000 0.35164  0.52610  0.63608  Biso   1.000  Cl
  Cl4      1.0000 0.14836  0.02610  0.86392  Biso   1.000  Cl
  O1       1.0000 0.69640  0.53870  0.31040  Biso   1.000  O
  O2       1.0000 0.80360  0.03870  0.18960  Biso   1.000  O
  O3       1.0000 0.30360  0.46130  0.68960  Biso   1.000  O
  O4       1.0000 0.19640  0.96130  0.81040  Biso   1.000  O
  O5       1.0000 0.67670  0.54130  0.44710  Biso   1.000  O
  O6       1.0000 0.82330  0.04130  0.05290  Biso   1.000  O
  O7       1.0000 0.32330  0.45870  0.55290  Biso   1.000  O
  O8       1.0000 0.17670  0.95870  0.94710  Biso   1.000  O
  O9       1.0000 0.67680  0.34450  0.37980  Biso   1.000  O
  O10      1.0000 0.82320  0.84450  0.12020  Biso   1.000  O
  O11      1.0000 0.32320  0.65550  0.62020  Biso   1.000  O
  O12      1.0000 0.17680  0.15550  0.87980  Biso   1.000  O
  O13      1.0000 0.54310  0.48530  0.32500  Biso   1.000  O
  O14      1.0000 0.95690  0.98530  0.17500  Biso   1.000  O
  O15      1.0000 0.45690  0.51470  0.67500  Biso   1.000  O
  O16      1.0000 0.04310  0.01470  0.82500  Biso   1.000  O
