data_image0
_cell_length_a       15.262
_cell_length_b       13.046
_cell_length_c       13.058
_cell_angle_alpha    90
_cell_angle_beta     102.54
_cell_angle_gamma    90

_symmetry_space_group_name_H-M    "P 1"
_symmetry_int_tables_number       1

loop_
  _symmetry_equiv_pos_as_xyz
  'x, y, z'

loop_
  _atom_site_label
  _atom_site_occupancy
  _atom_site_fract_x
  _atom_site_fract_y
  _atom_site_fract_z
  _atom_site_thermal_displace_type
  _atom_site_B_iso_or_equiv
  _atom_site_type_symbol
  Cu1      1.0000 0.25159  0.35937  0.00713  Biso   1.000  Cu
  Cu2      1.0000 0.74841  0.85937  0.99287  Biso   1.000  Cu
  O1       1.0000 0.27660  0.35430  0.65840  Biso   1.000  O
  O2       1.0000 0.72340  0.85430  0.34160  Biso   1.000  O
  O3       1.0000 0.16640  0.23900  0.63520  Biso   1.000  O
  O4       1.0000 0.83360  0.73900  0.36480  Biso   1.000  O
  H1       1.0000 0.16700  0.24910  0.69730  Biso   1.000  H
  H2       1.0000 0.83300  0.74910  0.30270  Biso   1.000  H
  O5       1.0000 0.25970  0.28530  0.17500  Biso   1.000  O
  O6       1.0000 0.74030  0.78530  0.82500  Biso   1.000  O
  O7       1.0000 0.13440  0.20220  0.18720  Biso   1.000  O
  O8       1.0000 0.86560  0.70220  0.81280  Biso   1.000  O
  H3       1.0000 0.12120  0.20990  0.12330  Biso   1.000  H
  H4       1.0000 0.87880  0.70990  0.87670  Biso   1.000  H
  N1       1.0000 0.10270  0.21240  0.98120  Biso   1.000  N
  N2       1.0000 0.89730  0.71240  0.01880  Biso   1.000  N
  N3       1.0000 0.15240  0.26680  0.93020  Biso   1.000  N
  N4       1.0000 0.84760  0.76680  0.06980  Biso   1.000  N
  N5       1.0000 0.12080  0.25470  0.82780  Biso   1.000  N
  N6       1.0000 0.87920  0.75470  0.17220  Biso   1.000  N
  N7       1.0000 0.05110  0.19280  0.81130  Biso   1.000  N
  N8       1.0000 0.94890  0.69280  0.18870  Biso   1.000  N
  N9       1.0000 0.84340  0.95710  0.96780  Biso   1.000  N
  N10      1.0000 0.15660  0.45710  0.03220  Biso   1.000  N
  N11      1.0000 0.39390  0.51060  0.01620  Biso   1.000  N
  N12      1.0000 0.60610  0.01060  0.98380  Biso   1.000  N
  N13      1.0000 0.35040  0.45330  0.07520  Biso   1.000  N
  N14      1.0000 0.64960  0.95330  0.92480  Biso   1.000  N
  N15      1.0000 0.38560  0.46560  0.17530  Biso   1.000  N
  N16      1.0000 0.61440  0.96560  0.82470  Biso   1.000  N
  N17      1.0000 0.45330  0.53190  0.18570  Biso   1.000  N
  N18      1.0000 0.54670  0.03190  0.81430  Biso   1.000  N
  N19      1.0000 0.65410  0.75950  0.01740  Biso   1.000  N
  N20      1.0000 0.34590  0.25950  0.98260  Biso   1.000  N
  C1       1.0000 0.26620  0.22450  0.52160  Biso   1.000  C
  C2       1.0000 0.73380  0.72450  0.47840  Biso   1.000  C
  C3       1.0000 0.20370  0.24720  0.41370  Biso   1.000  C
  C4       1.0000 0.79630  0.74720  0.58630  Biso   1.000  C
  C5       1.0000 0.25770  0.20340  0.34040  Biso   1.000  C
  C6       1.0000 0.74230  0.70340  0.65960  Biso   1.000  C
  H5       1.0000 0.25760  0.12850  0.34650  Biso   1.000  H
  H6       1.0000 0.74240  0.62850  0.65350  Biso   1.000  H
  C7       1.0000 0.35220  0.24130  0.38100  Biso   1.000  C
  C8       1.0000 0.64780  0.74130  0.61900  Biso   1.000  C
  H7       1.0000 0.36250  0.30460  0.34660  Biso   1.000  H
  H8       1.0000 0.63750  0.80460  0.65340  Biso   1.000  H
  H9       1.0000 0.39560  0.19060  0.36960  Biso   1.000  H
  H10      1.0000 0.60440  0.69060  0.63040  Biso   1.000  H
  C9       1.0000 0.35890  0.25900  0.50070  Biso   1.000  C
  C10      1.0000 0.64110  0.75900  0.49930  Biso   1.000  C
  H11      1.0000 0.36990  0.33070  0.51840  Biso   1.000  H
  H12      1.0000 0.63010  0.83070  0.48160  Biso   1.000  H
  H13      1.0000 0.40720  0.21840  0.54200  Biso   1.000  H
  H14      1.0000 0.59280  0.71840  0.45800  Biso   1.000  H
  C11      1.0000 0.23780  0.28000  0.61180  Biso   1.000  C
  C12      1.0000 0.76220  0.78000  0.38820  Biso   1.000  C
  C13      1.0000 0.22260  0.23200  0.22490  Biso   1.000  C
  C14      1.0000 0.77740  0.73200  0.77510  Biso   1.000  C
  C15      1.0000 0.27200  0.11000  0.54890  Biso   1.000  C
  C16      1.0000 0.72800  0.61000  0.45110  Biso   1.000  C
  H15      1.0000 0.21760  0.08870  0.56820  Biso   1.000  H
  H16      1.0000 0.78240  0.58870  0.43180  Biso   1.000  H
  H17      1.0000 0.32200  0.09820  0.60650  Biso   1.000  H
  H18      1.0000 0.67800  0.59820  0.39350  Biso   1.000  H
  H19      1.0000 0.28010  0.07130  0.48910  Biso   1.000  H
  H20      1.0000 0.71990  0.57130  0.51090  Biso   1.000  H
  C17      1.0000 0.11280  0.19100  0.40140  Biso   1.000  C
  C18      1.0000 0.88720  0.69100  0.59860  Biso   1.000  C
  H21      1.0000 0.07360  0.21140  0.33680  Biso   1.000  H
  H22      1.0000 0.92640  0.71140  0.66320  Biso   1.000  H
  H23      1.0000 0.08590  0.20850  0.45910  Biso   1.000  H
  H24      1.0000 0.91410  0.70850  0.54090  Biso   1.000  H
  H25      1.0000 0.12240  0.11830  0.40090  Biso   1.000  H
  H26      1.0000 0.87760  0.61830  0.59910  Biso   1.000  H
  C19      1.0000 0.18920  0.36070  0.39760  Biso   1.000  C
  C20      1.0000 0.81080  0.86070  0.60240  Biso   1.000  C
  H27      1.0000 0.24450  0.39260  0.39140  Biso   1.000  H
  H28      1.0000 0.75550  0.89260  0.60860  Biso   1.000  H
  H29      1.0000 0.16950  0.38930  0.45650  Biso   1.000  H
  H30      1.0000 0.83050  0.88930  0.54350  Biso   1.000  H
  H31      1.0000 0.14440  0.37250  0.33480  Biso   1.000  H
  H32      1.0000 0.85560  0.87250  0.66520  Biso   1.000  H
  C21      1.0000 0.04070  0.16690  0.90790  Biso   1.000  C
  C22      1.0000 0.95930  0.66690  0.09210  Biso   1.000  C
  C23      1.0000 0.83400  0.00230  0.87460  Biso   1.000  C
  C24      1.0000 0.16600  0.50230  0.12540  Biso   1.000  C
  H33      1.0000 0.78290  0.98810  0.82320  Biso   1.000  H
  H34      1.0000 0.21710  0.48810  0.17680  Biso   1.000  H
  C25      1.0000 0.89700  0.06980  0.85050  Biso   1.000  C
  C26      1.0000 0.10300  0.56980  0.14950  Biso   1.000  C
  H35      1.0000 0.88940  0.09750  0.78350  Biso   1.000  H
  H36      1.0000 0.11060  0.59750  0.21650  Biso   1.000  H
  C27      1.0000 0.97270  0.09560  0.92900  Biso   1.000  C
  C28      1.0000 0.02730  0.59560  0.07100  Biso   1.000  C
  C29      1.0000 0.97980  0.04930  0.02760  Biso   1.000  C
  C30      1.0000 0.02020  0.54930  0.97240  Biso   1.000  C
  H37      1.0000 0.02820  0.06420  0.08240  Biso   1.000  H
  H38      1.0000 0.97180  0.56420  0.91760  Biso   1.000  H
  C31      1.0000 0.91580  0.98310  0.04190  Biso   1.000  C
  C32      1.0000 0.08420  0.48310  0.95810  Biso   1.000  C
  H39      1.0000 0.92210  0.95320  0.10780  Biso   1.000  H
  H40      1.0000 0.07790  0.45320  0.89220  Biso   1.000  H
  C33      1.0000 0.45620  0.55690  0.08460  Biso   1.000  C
  C34      1.0000 0.54380  0.05690  0.91540  Biso   1.000  C
  C35      1.0000 0.64730  0.73770  0.11610  Biso   1.000  C
  C36      1.0000 0.35270  0.23770  0.88390  Biso   1.000  C
  H41      1.0000 0.69040  0.76440  0.17120  Biso   1.000  H
  H42      1.0000 0.30960  0.26440  0.82880  Biso   1.000  H
  C37      1.0000 0.58100  0.67910  0.13940  Biso   1.000  C
  C38      1.0000 0.41900  0.17910  0.86060  Biso   1.000  C
  H43      1.0000 0.57440  0.67410  0.20840  Biso   1.000  H
  H44      1.0000 0.42560  0.17410  0.79160  Biso   1.000  H
  C39      1.0000 0.52390  0.62730  0.06120  Biso   1.000  C
  C40      1.0000 0.47610  0.12730  0.93880  Biso   1.000  C
  C41      1.0000 0.52930  0.64840  0.96030  Biso   1.000  C
  C42      1.0000 0.47070  0.14840  0.03970  Biso   1.000  C
  H45      1.0000 0.48950  0.61800  0.90450  Biso   1.000  H
  H46      1.0000 0.51050  0.11800  0.09550  Biso   1.000  H
  C43      1.0000 0.59510  0.71590  0.94170  Biso   1.000  C
  C44      1.0000 0.40490  0.21590  0.05830  Biso   1.000  C
  H47      1.0000 0.59720  0.73080  0.87260  Biso   1.000  H
  H48      1.0000 0.40280  0.23080  0.12740  Biso   1.000  H
  O9       1.0000 0.25630  0.45830  0.84430  Biso   1.000  O
  O10      1.0000 0.74370  0.95830  0.15570  Biso   1.000  O
  H49      1.0000 0.27610  0.42770  0.79340  Biso   1.000  H
  H50      1.0000 0.72390  0.92770  0.20660  Biso   1.000  H
  H51      1.0000 0.30620  0.48140  0.88250  Biso   1.000  H
  H52      1.0000 0.69380  0.98140  0.11750  Biso   1.000  H
  Cu3      1.0000 0.25040  0.73783  0.50383  Biso   1.000  Cu
  Cu4      1.0000 0.74960  0.23783  0.49617  Biso   1.000  Cu
  O11      1.0000 0.25720  0.81710  0.66920  Biso   1.000  O
  O12      1.0000 0.74280  0.31710  0.33080  Biso   1.000  O
  O13      1.0000 0.12620  0.87460  0.68720  Biso   1.000  O
  O14      1.0000 0.87380  0.37460  0.31280  Biso   1.000  O
  H53      1.0000 0.11310  0.86320  0.62390  Biso   1.000  H
  H54      1.0000 0.88690  0.36320  0.37610  Biso   1.000  H
  O15      1.0000 0.25700  0.64350  0.34390  Biso   1.000  O
  O16      1.0000 0.74300  0.14350  0.65610  Biso   1.000  O
  H55      1.0000 0.30520  0.60860  0.36380  Biso   1.000  H
  H56      1.0000 0.69480  0.10860  0.63620  Biso   1.000  H
  H57      1.0000 0.26750  0.66210  0.28460  Biso   1.000  H
  H58      1.0000 0.73250  0.16210  0.71540  Biso   1.000  H
  N21      1.0000 0.09690  0.87950  0.47970  Biso   1.000  N
  N22      1.0000 0.90310  0.37950  0.52030  Biso   1.000  N
  N23      1.0000 0.14810  0.82740  0.42570  Biso   1.000  N
  N24      1.0000 0.85190  0.32740  0.57430  Biso   1.000  N
  N25      1.0000 0.11990  0.84320  0.32520  Biso   1.000  N
  N26      1.0000 0.88010  0.34320  0.67480  Biso   1.000  N
  N27      1.0000 0.04940  0.90820  0.31010  Biso   1.000  N
  N28      1.0000 0.95060  0.40820  0.68990  Biso   1.000  N
  N29      1.0000 0.84170  0.13530  0.46890  Biso   1.000  N
  N30      1.0000 0.15830  0.63530  0.53110  Biso   1.000  N
  N31      1.0000 0.39360  0.58860  0.51630  Biso   1.000  N
  N32      1.0000 0.60640  0.08860  0.48370  Biso   1.000  N
  N33      1.0000 0.34980  0.64510  0.57290  Biso   1.000  N
  N34      1.0000 0.65020  0.14510  0.42710  Biso   1.000  N
  N35      1.0000 0.38720  0.63550  0.67530  Biso   1.000  N
  N36      1.0000 0.61280  0.13550  0.32470  Biso   1.000  N
  N37      1.0000 0.45680  0.57180  0.68480  Biso   1.000  N
  N38      1.0000 0.54320  0.07180  0.31520  Biso   1.000  N
  N39      1.0000 0.65660  0.34020  0.52000  Biso   1.000  N
  N40      1.0000 0.34340  0.84020  0.48000  Biso   1.000  N
  C45      1.0000 0.25120  0.88910  0.83440  Biso   1.000  C
  C46      1.0000 0.74880  0.38910  0.16560  Biso   1.000  C
  C47      1.0000 0.21290  0.85680  0.72320  Biso   1.000  C
  C48      1.0000 0.78710  0.35680  0.27680  Biso   1.000  C
  C49      1.0000 0.03680  0.92760  0.40520  Biso   1.000  C
  C50      1.0000 0.96320  0.42760  0.59480  Biso   1.000  C
  C51      1.0000 0.91270  0.11030  0.54530  Biso   1.000  C
  C52      1.0000 0.08730  0.61030  0.45470  Biso   1.000  C
  H59      1.0000 0.91900  0.14010  0.61120  Biso   1.000  H
  H60      1.0000 0.08100  0.64010  0.38880  Biso   1.000  H
  C53      1.0000 0.97710  0.04070  0.52770  Biso   1.000  C
  C54      1.0000 0.02290  0.54070  0.47230  Biso   1.000  C
  H61      1.0000 0.02490  0.02280  0.58210  Biso   1.000  H
  H62      1.0000 0.97510  0.52280  0.41790  Biso   1.000  H
  C55      1.0000 0.96970  0.99810  0.42890  Biso   1.000  C
  C56      1.0000 0.03030  0.49810  0.57110  Biso   1.000  C
  C57      1.0000 0.89720  0.02660  0.35200  Biso   1.000  C
  C58      1.0000 0.10280  0.52660  0.64800  Biso   1.000  C
  H63      1.0000 0.89050  0.99970  0.28480  Biso   1.000  H
  H64      1.0000 0.10950  0.49970  0.71520  Biso   1.000  H
  C59      1.0000 0.83480  0.09400  0.37310  Biso   1.000  C
  C60      1.0000 0.16520  0.59400  0.62690  Biso   1.000  C
  H65      1.0000 0.78620  0.11170  0.31970  Biso   1.000  H
  H66      1.0000 0.21380  0.61170  0.68030  Biso   1.000  H
  C61      1.0000 0.45970  0.54320  0.58870  Biso   1.000  C
  C62      1.0000 0.54030  0.04320  0.41130  Biso   1.000  C
  C63      1.0000 0.59240  0.37990  0.44050  Biso   1.000  C
  C64      1.0000 0.40760  0.87990  0.55950  Biso   1.000  C
  H67      1.0000 0.59250  0.36130  0.37180  Biso   1.000  H
  H68      1.0000 0.40750  0.86130  0.62820  Biso   1.000  H
  C65      1.0000 0.52800  0.44590  0.45860  Biso   1.000  C
  C66      1.0000 0.47200  0.94590  0.54140  Biso   1.000  C
  H69      1.0000 0.48590  0.47260  0.40250  Biso   1.000  H
  H70      1.0000 0.51410  0.97260  0.59750  Biso   1.000  H
  C67      1.0000 0.52530  0.47340  0.56120  Biso   1.000  C
  C68      1.0000 0.47470  0.97340  0.43880  Biso   1.000  C
  C69      1.0000 0.59230  0.43520  0.64150  Biso   1.000  C
  C70      1.0000 0.40770  0.93520  0.35850  Biso   1.000  C
  H71      1.0000 0.59530  0.45470  0.71070  Biso   1.000  H
  H72      1.0000 0.40470  0.95470  0.28930  Biso   1.000  H
  C71      1.0000 0.65490  0.36730  0.61670  Biso   1.000  C
  C72      1.0000 0.34510  0.86730  0.38330  Biso   1.000  C
  H73      1.0000 0.69770  0.33960  0.67130  Biso   1.000  H
  H74      1.0000 0.30230  0.83960  0.32870  Biso   1.000  H
  O17      1.0000 0.27390  0.74540  0.15470  Biso   1.000  O
  O18      1.0000 0.72610  0.24540  0.84530  Biso   1.000  O
  O19      1.0000 0.17150  0.86820  0.14050  Biso   1.000  O
  O20      1.0000 0.82850  0.36820  0.85950  Biso   1.000  O
  H75      1.0000 0.16050  0.84000  0.19240  Biso   1.000  H
  H76      1.0000 0.83950  0.34000  0.80760  Biso   1.000  H
  C73      1.0000 0.26570  0.87030  0.01930  Biso   1.000  C
  C74      1.0000 0.73430  0.37030  0.98070  Biso   1.000  C
  C75      1.0000 0.24050  0.81900  0.11090  Biso   1.000  C
  C76      1.0000 0.75950  0.31900  0.88910  Biso   1.000  C
  C77      1.0000 0.23640  0.81400  0.91980  Biso   1.000  C
  C78      1.0000 0.76360  0.31400  0.08020  Biso   1.000  C
  C79      1.0000 0.22580  0.99790  0.87300  Biso   1.000  C
  C80      1.0000 0.77420  0.49790  0.12700  Biso   1.000  C
  H77      1.0000 0.26520  0.05040  0.85580  Biso   1.000  H
  H78      1.0000 0.73480  0.55040  0.14420  Biso   1.000  H
  H79      1.0000 0.16430  0.01540  0.84030  Biso   1.000  H
  H80      1.0000 0.83570  0.51540  0.15970  Biso   1.000  H
  C81      1.0000 0.23730  0.98850  0.99230  Biso   1.000  C
  C82      1.0000 0.76270  0.48850  0.00770  Biso   1.000  C
  H81      1.0000 0.18150  0.00450  0.01310  Biso   1.000  H
  H82      1.0000 0.81850  0.50450  0.98690  Biso   1.000  H
  H83      1.0000 0.28360  0.03470  0.02830  Biso   1.000  H
  H84      1.0000 0.71640  0.53470  0.97170  Biso   1.000  H
  C83      1.0000 0.37680  0.88000  0.05520  Biso   1.000  C
  C84      1.0000 0.62320  0.38000  0.94480  Biso   1.000  C
  H85      1.0000 0.39950  0.91200  0.00030  Biso   1.000  H
  H86      1.0000 0.60050  0.41200  0.99970  Biso   1.000  H
  H87      1.0000 0.40230  0.81220  0.06780  Biso   1.000  H
  H88      1.0000 0.59770  0.31220  0.93220  Biso   1.000  H
  H89      1.0000 0.39270  0.91960  0.11820  Biso   1.000  H
  H90      1.0000 0.60730  0.41960  0.88180  Biso   1.000  H
  C85      1.0000 0.27840  0.71060  0.91580  Biso   1.000  C
  C86      1.0000 0.72160  0.21060  0.08420  Biso   1.000  C
  H91      1.0000 0.26160  0.66650  0.96720  Biso   1.000  H
  H92      1.0000 0.73840  0.16650  0.03280  Biso   1.000  H
  H93      1.0000 0.34250  0.71750  0.93040  Biso   1.000  H
  H94      1.0000 0.65750  0.21750  0.06960  Biso   1.000  H
  H95      1.0000 0.25800  0.68150  0.84720  Biso   1.000  H
  H96      1.0000 0.74200  0.18150  0.15280  Biso   1.000  H
  C87      1.0000 0.13250  0.80500  0.90410  Biso   1.000  C
  C88      1.0000 0.86750  0.30500  0.09590  Biso   1.000  C
  H97      1.0000 0.10690  0.87220  0.90380  Biso   1.000  H
  H98      1.0000 0.89310  0.37220  0.09620  Biso   1.000  H
  H99      1.0000 0.11830  0.76550  0.96030  Biso   1.000  H
  H100     1.0000 0.88170  0.26550  0.03970  Biso   1.000  H
  H101     1.0000 0.10840  0.77160  0.83850  Biso   1.000  H
  H102     1.0000 0.89160  0.27160  0.16150  Biso   1.000  H
  O21      1.0000 0.16620  0.15990  0.18350  Biso   1.000  O
  O22      1.0000 0.83380  0.65990  0.81650  Biso   1.000  O
  H103     1.0000 0.31640  0.89120  0.84070  Biso   1.000  H
  H104     1.0000 0.68360  0.39120  0.15930  Biso   1.000  H
  C89      1.0000 0.19570  0.84200  0.91330  Biso   1.000  C
  C90      1.0000 0.80430  0.34200  0.08670  Biso   1.000  C
  C91      1.0000 0.35370  0.84170  0.99800  Biso   1.000  C
  C92      1.0000 0.64630  0.34170  0.00200  Biso   1.000  C
  H105     1.0000 0.36790  0.77110  0.01820  Biso   1.000  H
  H106     1.0000 0.63210  0.27110  0.98180  Biso   1.000  H
  H107     1.0000 0.40050  0.88540  0.03740  Biso   1.000  H
  H108     1.0000 0.59950  0.38540  0.96260  Biso   1.000  H
  C93      1.0000 0.34660  0.85570  0.87750  Biso   1.000  C
  C94      1.0000 0.65340  0.35570  0.12250  Biso   1.000  C
  H109     1.0000 0.38860  0.90750  0.86440  Biso   1.000  H
  H110     1.0000 0.61140  0.40750  0.13560  Biso   1.000  H
  H111     1.0000 0.35930  0.79180  0.84560  Biso   1.000  H
  H112     1.0000 0.64070  0.29180  0.15440  Biso   1.000  H
  C95      1.0000 0.23860  0.00610  0.82930  Biso   1.000  C
  C96      1.0000 0.76140  0.50610  0.17070  Biso   1.000  C
  H113     1.0000 0.26070  0.03490  0.89770  Biso   1.000  H
  H114     1.0000 0.73930  0.53490  0.10230  Biso   1.000  H
  H115     1.0000 0.17600  0.02190  0.80620  Biso   1.000  H
  H116     1.0000 0.82400  0.52190  0.19380  Biso   1.000  H
  H117     1.0000 0.27130  0.03450  0.78090  Biso   1.000  H
  H118     1.0000 0.72870  0.53450  0.21910  Biso   1.000  H
  C97      1.0000 0.10060  0.88650  0.90960  Biso   1.000  C
  C98      1.0000 0.89940  0.38650  0.09040  Biso   1.000  C
  H119     1.0000 0.07360  0.85090  0.95930  Biso   1.000  H
  H120     1.0000 0.92640  0.35090  0.04070  Biso   1.000  H
  H121     1.0000 0.06400  0.87800  0.84040  Biso   1.000  H
  H122     1.0000 0.93600  0.37800  0.15960  Biso   1.000  H
  H123     1.0000 0.10540  0.95810  0.92690  Biso   1.000  H
  H124     1.0000 0.89460  0.45810  0.07310  Biso   1.000  H
  C99      1.0000 0.18190  0.72710  0.89940  Biso   1.000  C
  C100     1.0000 0.81810  0.22710  0.10060  Biso   1.000  C
  H125     1.0000 0.14660  0.70260  0.94690  Biso   1.000  H
  H126     1.0000 0.85340  0.20260  0.05310  Biso   1.000  H
  H127     1.0000 0.23920  0.69330  0.91400  Biso   1.000  H
  H128     1.0000 0.76080  0.19330  0.08600  Biso   1.000  H
  H129     1.0000 0.15130  0.71270  0.82860  Biso   1.000  H
  H130     1.0000 0.84870  0.21270  0.17140  Biso   1.000  H
  H131     1.0000 0.26460  0.94470  0.02960  Biso   1.000  H
  H132     1.0000 0.73540  0.44470  0.97040  Biso   1.000  H
