data_image0
_cell_length_a       6.8445
_cell_length_b       15.0636
_cell_length_c       16.1247
_cell_angle_alpha    90
_cell_angle_beta     98.489
_cell_angle_gamma    90

_symmetry_space_group_name_H-M    "P 1"
_symmetry_int_tables_number       1

loop_
  _symmetry_equiv_pos_as_xyz
  'x, y, z'

loop_
  _atom_site_label
  _atom_site_occupancy
  _atom_site_fract_x
  _atom_site_fract_y
  _atom_site_fract_z
  _atom_site_thermal_displace_type
  _atom_site_B_iso_or_equiv
  _atom_site_type_symbol
  Cu1      1.0000 0.09137  0.95297  0.25987  Biso   1.000  Cu
  Cu2      1.0000 0.90863  0.45297  0.24013  Biso   1.000  Cu
  Cu3      1.0000 0.90863  0.04703  0.74013  Biso   1.000  Cu
  Cu4      1.0000 0.09137  0.54703  0.75987  Biso   1.000  Cu
  O1       1.0000 0.20090  0.86785  0.34653  Biso   1.000  O
  O2       1.0000 0.79910  0.36785  0.15347  Biso   1.000  O
  O3       1.0000 0.79910  0.13215  0.65347  Biso   1.000  O
  O4       1.0000 0.20090  0.63215  0.84653  Biso   1.000  O
  O5       1.0000 0.95180  0.81759  0.40832  Biso   1.000  O
  O6       1.0000 0.04820  0.31759  0.09168  Biso   1.000  O
  O7       1.0000 0.04820  0.18241  0.59168  Biso   1.000  O
  O8       1.0000 0.95180  0.68241  0.90832  Biso   1.000  O
  O9       1.0000 0.10890  0.63482  0.66709  Biso   1.000  O
  O10      1.0000 0.89110  0.13482  0.83291  Biso   1.000  O
  O11      1.0000 0.89110  0.36518  0.33291  Biso   1.000  O
  O12      1.0000 0.10890  0.86518  0.16709  Biso   1.000  O
  O13      1.0000 0.41240  0.58384  0.70148  Biso   1.000  O
  O14      1.0000 0.58760  0.08384  0.79852  Biso   1.000  O
  O15      1.0000 0.58760  0.41616  0.29852  Biso   1.000  O
  O16      1.0000 0.41240  0.91616  0.20148  Biso   1.000  O
  O17      1.0000 0.78460  0.93001  0.29223  Biso   1.000  O
  O18      1.0000 0.21540  0.43001  0.20777  Biso   1.000  O
  O19      1.0000 0.21540  0.06999  0.70777  Biso   1.000  O
  O20      1.0000 0.78460  0.56999  0.79223  Biso   1.000  O
  H1       1.0000 0.82200  0.88880  0.32700  Biso   1.000  H
  H2       1.0000 0.17800  0.38880  0.17300  Biso   1.000  H
  H3       1.0000 0.17800  0.11120  0.67300  Biso   1.000  H
  H4       1.0000 0.82200  0.61120  0.82700  Biso   1.000  H
  H5       1.0000 0.67100  0.92200  0.26590  Biso   1.000  H
  H6       1.0000 0.32900  0.42200  0.23410  Biso   1.000  H
  H7       1.0000 0.32900  0.07800  0.73410  Biso   1.000  H
  H8       1.0000 0.67100  0.57800  0.76590  Biso   1.000  H
  N1       1.0000 0.18380  0.05694  0.34159  Biso   1.000  N
  N2       1.0000 0.81620  0.55694  0.15841  Biso   1.000  N
  N3       1.0000 0.81620  0.94306  0.65841  Biso   1.000  N
  N4       1.0000 0.18380  0.44306  0.84159  Biso   1.000  N
  N5       1.0000 0.99150  0.05177  0.17622  Biso   1.000  N
  N6       1.0000 0.00850  0.55177  0.32378  Biso   1.000  N
  N7       1.0000 0.00850  0.94823  0.82378  Biso   1.000  N
  N8       1.0000 0.99150  0.44823  0.67622  Biso   1.000  N
  C1       1.0000 0.27820  0.77581  0.46301  Biso   1.000  C
  C2       1.0000 0.72180  0.27581  0.03699  Biso   1.000  C
  C3       1.0000 0.72180  0.22419  0.53699  Biso   1.000  C
  C4       1.0000 0.27820  0.72419  0.96301  Biso   1.000  C
  C5       1.0000 0.21960  0.73199  0.53179  Biso   1.000  C
  C6       1.0000 0.78040  0.23199  0.96821  Biso   1.000  C
  C7       1.0000 0.78040  0.26801  0.46821  Biso   1.000  C
  C8       1.0000 0.21960  0.76801  0.03179  Biso   1.000  C
  H9       1.0000 0.08800  0.73410  0.53990  Biso   1.000  H
  H10      1.0000 0.91200  0.23410  0.96010  Biso   1.000  H
  H11      1.0000 0.91200  0.26590  0.46010  Biso   1.000  H
  H12      1.0000 0.08800  0.76590  0.03990  Biso   1.000  H
  C9       1.0000 0.35460  0.68555  0.58788  Biso   1.000  C
  C10      1.0000 0.64540  0.18555  0.91212  Biso   1.000  C
  C11      1.0000 0.64540  0.31445  0.41212  Biso   1.000  C
  C12      1.0000 0.35460  0.81445  0.08788  Biso   1.000  C
  C13      1.0000 0.55260  0.68460  0.57640  Biso   1.000  C
  C14      1.0000 0.44740  0.18460  0.92360  Biso   1.000  C
  C15      1.0000 0.44740  0.31540  0.42360  Biso   1.000  C
  C16      1.0000 0.55260  0.81540  0.07640  Biso   1.000  C
  H13      1.0000 0.64540  0.65480  0.61440  Biso   1.000  H
  H14      1.0000 0.35460  0.15480  0.88560  Biso   1.000  H
  H15      1.0000 0.35460  0.34520  0.38560  Biso   1.000  H
  H16      1.0000 0.64540  0.84520  0.11440  Biso   1.000  H
  C17      1.0000 0.61070  0.72785  0.50869  Biso   1.000  C
  C18      1.0000 0.38930  0.22785  0.99131  Biso   1.000  C
  C19      1.0000 0.38930  0.27215  0.49131  Biso   1.000  C
  C20      1.0000 0.61070  0.77215  0.00869  Biso   1.000  C
  H17      1.0000 0.74260  0.72670  0.50090  Biso   1.000  H
  H18      1.0000 0.25740  0.22670  0.99910  Biso   1.000  H
  H19      1.0000 0.25740  0.27330  0.49910  Biso   1.000  H
  H20      1.0000 0.74260  0.77330  0.00090  Biso   1.000  H
  C21      1.0000 0.47400  0.77295  0.45227  Biso   1.000  C
  C22      1.0000 0.52600  0.27295  0.04773  Biso   1.000  C
  C23      1.0000 0.52600  0.22705  0.54773  Biso   1.000  C
  C24      1.0000 0.47400  0.72705  0.95227  Biso   1.000  C
  H21      1.0000 0.51470  0.80160  0.40670  Biso   1.000  H
  H22      1.0000 0.48530  0.30160  0.09330  Biso   1.000  H
  H23      1.0000 0.48530  0.19840  0.59330  Biso   1.000  H
  H24      1.0000 0.51470  0.69840  0.90670  Biso   1.000  H
  C25      1.0000 0.12850  0.82416  0.40186  Biso   1.000  C
  C26      1.0000 0.87150  0.32416  0.09814  Biso   1.000  C
  C27      1.0000 0.87150  0.17584  0.59814  Biso   1.000  C
  C28      1.0000 0.12850  0.67584  0.90186  Biso   1.000  C
  C29      1.0000 0.29030  0.63214  0.65786  Biso   1.000  C
  C30      1.0000 0.70970  0.13214  0.84214  Biso   1.000  C
  C31      1.0000 0.70970  0.36786  0.34214  Biso   1.000  C
  C32      1.0000 0.29030  0.86786  0.15786  Biso   1.000  C
  C33      1.0000 0.13020  0.14103  0.29520  Biso   1.000  C
  C34      1.0000 0.86980  0.64103  0.20480  Biso   1.000  C
  C35      1.0000 0.86980  0.85897  0.70480  Biso   1.000  C
  C36      1.0000 0.13020  0.35897  0.79520  Biso   1.000  C
  H25      1.0000 0.10130  0.18660  0.33420  Biso   1.000  H
  H26      1.0000 0.89870  0.68660  0.16580  Biso   1.000  H
  H27      1.0000 0.89870  0.81340  0.66580  Biso   1.000  H
  H28      1.0000 0.10130  0.31340  0.83420  Biso   1.000  H
  H29      1.0000 0.24080  0.16110  0.26880  Biso   1.000  H
  H30      1.0000 0.75920  0.66110  0.23120  Biso   1.000  H
  H31      1.0000 0.75920  0.83890  0.73120  Biso   1.000  H
  H32      1.0000 0.24080  0.33890  0.76880  Biso   1.000  H
  C37      1.0000 0.95780  0.12750  0.23130  Biso   1.000  C
  C38      1.0000 0.04220  0.62750  0.26870  Biso   1.000  C
  C39      1.0000 0.04220  0.87250  0.76870  Biso   1.000  C
  C40      1.0000 0.95780  0.37250  0.73130  Biso   1.000  C
  H33      1.0000 0.93270  0.18090  0.19780  Biso   1.000  H
  H34      1.0000 0.06730  0.68090  0.30220  Biso   1.000  H
  H35      1.0000 0.06730  0.81910  0.80220  Biso   1.000  H
  H36      1.0000 0.93270  0.31910  0.69780  Biso   1.000  H
  H37      1.0000 0.84270  0.11570  0.25820  Biso   1.000  H
  H38      1.0000 0.15730  0.61570  0.24180  Biso   1.000  H
  H39      1.0000 0.15730  0.88430  0.74180  Biso   1.000  H
  H40      1.0000 0.84270  0.38430  0.75820  Biso   1.000  H
  C41      1.0000 0.08400  0.05360  0.41638  Biso   1.000  C
  C42      1.0000 0.91600  0.55360  0.08362  Biso   1.000  C
  C43      1.0000 0.91600  0.94640  0.58362  Biso   1.000  C
  C44      1.0000 0.08400  0.44640  0.91638  Biso   1.000  C
  H41      1.0000 0.13230  0.10080  0.45390  Biso   1.000  H
  H42      1.0000 0.86770  0.60080  0.04610  Biso   1.000  H
  H43      1.0000 0.86770  0.89920  0.54610  Biso   1.000  H
  H44      1.0000 0.13230  0.39920  0.95390  Biso   1.000  H
  H45      1.0000 0.11050  0.99760  0.44410  Biso   1.000  H
  H46      1.0000 0.88950  0.49760  0.05590  Biso   1.000  H
  H47      1.0000 0.88950  0.00240  0.55590  Biso   1.000  H
  H48      1.0000 0.11050  0.50240  0.94410  Biso   1.000  H
  H49      1.0000 0.94420  0.06030  0.39990  Biso   1.000  H
  H50      1.0000 0.05580  0.56030  0.10010  Biso   1.000  H
  H51      1.0000 0.05580  0.93970  0.60010  Biso   1.000  H
  H52      1.0000 0.94420  0.43970  0.89990  Biso   1.000  H
  C45      1.0000 0.39920  0.05180  0.36770  Biso   1.000  C
  C46      1.0000 0.60080  0.55180  0.13230  Biso   1.000  C
  C47      1.0000 0.60080  0.94820  0.63230  Biso   1.000  C
  C48      1.0000 0.39920  0.44820  0.86770  Biso   1.000  C
  H53      1.0000 0.44150  0.10070  0.40410  Biso   1.000  H
  H54      1.0000 0.55850  0.60070  0.09590  Biso   1.000  H
  H55      1.0000 0.55850  0.89930  0.59590  Biso   1.000  H
  H56      1.0000 0.44150  0.39930  0.90410  Biso   1.000  H
  H57      1.0000 0.46470  0.05450  0.31910  Biso   1.000  H
  H58      1.0000 0.53530  0.55450  0.18090  Biso   1.000  H
  H59      1.0000 0.53530  0.94550  0.68090  Biso   1.000  H
  H60      1.0000 0.46470  0.44550  0.81910  Biso   1.000  H
  H61      1.0000 0.43150  0.99700  0.39680  Biso   1.000  H
  H62      1.0000 0.56850  0.49700  0.10320  Biso   1.000  H
  H63      1.0000 0.56850  0.00300  0.60320  Biso   1.000  H
  H64      1.0000 0.43150  0.50300  0.89680  Biso   1.000  H
  C49      1.0000 0.80190  0.03250  0.12520  Biso   1.000  C
  C50      1.0000 0.19810  0.53250  0.37480  Biso   1.000  C
  C51      1.0000 0.19810  0.96750  0.87480  Biso   1.000  C
  C52      1.0000 0.80190  0.46750  0.62520  Biso   1.000  C
  H65      1.0000 0.76770  0.07990  0.08600  Biso   1.000  H
  H66      1.0000 0.23230  0.57990  0.41400  Biso   1.000  H
  H67      1.0000 0.23230  0.92010  0.91400  Biso   1.000  H
  H68      1.0000 0.76770  0.42010  0.58600  Biso   1.000  H
  H69      1.0000 0.70190  0.02680  0.16080  Biso   1.000  H
  H70      1.0000 0.29810  0.52680  0.33920  Biso   1.000  H
  H71      1.0000 0.29810  0.97320  0.83920  Biso   1.000  H
  H72      1.0000 0.70190  0.47320  0.66080  Biso   1.000  H
  H73      1.0000 0.81150  0.97800  0.09520  Biso   1.000  H
  H74      1.0000 0.18850  0.47800  0.40480  Biso   1.000  H
  H75      1.0000 0.18850  0.02200  0.90480  Biso   1.000  H
  H76      1.0000 0.81150  0.52200  0.59520  Biso   1.000  H
  C53      1.0000 0.13380  0.07450  0.12080  Biso   1.000  C
  C54      1.0000 0.86620  0.57450  0.37920  Biso   1.000  C
  C55      1.0000 0.86620  0.92550  0.87920  Biso   1.000  C
  C56      1.0000 0.13380  0.42550  0.62080  Biso   1.000  C
  H77      1.0000 0.13250  0.02970  0.07850  Biso   1.000  H
  H78      1.0000 0.86750  0.52970  0.42150  Biso   1.000  H
  H79      1.0000 0.86750  0.97030  0.92150  Biso   1.000  H
  H80      1.0000 0.13250  0.47030  0.57850  Biso   1.000  H
  H81      1.0000 0.26350  0.07820  0.15280  Biso   1.000  H
  H82      1.0000 0.73650  0.57820  0.34720  Biso   1.000  H
  H83      1.0000 0.73650  0.92180  0.84720  Biso   1.000  H
  H84      1.0000 0.26350  0.42180  0.65280  Biso   1.000  H
  H85      1.0000 0.09920  0.13080  0.09470  Biso   1.000  H
  H86      1.0000 0.90080  0.63080  0.40530  Biso   1.000  H
  H87      1.0000 0.90080  0.86920  0.90530  Biso   1.000  H
  H88      1.0000 0.09920  0.36920  0.59470  Biso   1.000  H
