data_image0
_cell_length_a       13.4288
_cell_length_b       15.5866
_cell_length_c       14.6967
_cell_angle_alpha    90
_cell_angle_beta     111.897
_cell_angle_gamma    90

_symmetry_space_group_name_H-M    "P 1"
_symmetry_int_tables_number       1

loop_
  _symmetry_equiv_pos_as_xyz
  'x, y, z'

loop_
  _atom_site_label
  _atom_site_occupancy
  _atom_site_fract_x
  _atom_site_fract_y
  _atom_site_fract_z
  _atom_site_thermal_displace_type
  _atom_site_B_iso_or_equiv
  _atom_site_type_symbol
  Cu1      1.0000 0.42443  0.30998  0.97313  Biso   1.000  Cu
  Cu2      1.0000 0.07557  0.80998  0.52687  Biso   1.000  Cu
  Cu3      1.0000 0.57557  0.69002  0.02687  Biso   1.000  Cu
  Cu4      1.0000 0.92443  0.19002  0.47313  Biso   1.000  Cu
  Cu5      1.0000 0.50382  0.20406  0.82022  Biso   1.000  Cu
  Cu6      1.0000 0.99618  0.70406  0.67978  Biso   1.000  Cu
  Cu7      1.0000 0.49618  0.79594  0.17978  Biso   1.000  Cu
  Cu8      1.0000 0.00382  0.29594  0.32022  Biso   1.000  Cu
  O1       1.0000 0.30770  0.21089  0.91900  Biso   1.000  O
  O2       1.0000 0.19230  0.71089  0.58100  Biso   1.000  O
  O3       1.0000 0.69230  0.78911  0.08100  Biso   1.000  O
  O4       1.0000 0.80770  0.28911  0.41900  Biso   1.000  O
  O5       1.0000 0.36660  0.12852  0.82570  Biso   1.000  O
  O6       1.0000 0.13340  0.62852  0.67430  Biso   1.000  O
  O7       1.0000 0.63340  0.87148  0.17430  Biso   1.000  O
  O8       1.0000 0.86660  0.37148  0.32570  Biso   1.000  O
  O9       1.0000 0.06880  0.80956  0.75031  Biso   1.000  O
  O10      1.0000 0.43120  0.30956  0.74969  Biso   1.000  O
  O11      1.0000 0.93120  0.19044  0.24969  Biso   1.000  O
  O12      1.0000 0.56880  0.69044  0.25031  Biso   1.000  O
  O13      1.0000 0.11520  0.88633  0.64330  Biso   1.000  O
  O14      1.0000 0.38480  0.38633  0.85670  Biso   1.000  O
  O15      1.0000 0.88480  0.11367  0.35670  Biso   1.000  O
  O16      1.0000 0.61520  0.61367  0.14330  Biso   1.000  O
  O17      1.0000 0.89740  0.02540  0.90280  Biso   1.000  O
  O18      1.0000 0.60260  0.52540  0.59720  Biso   1.000  O
  O19      1.0000 0.10260  0.97460  0.09720  Biso   1.000  O
  O20      1.0000 0.39740  0.47460  0.40280  Biso   1.000  O
  O21      1.0000 0.98890  0.13490  0.97320  Biso   1.000  O
  O22      1.0000 0.51110  0.63490  0.52680  Biso   1.000  O
  O23      1.0000 0.01110  0.86510  0.02680  Biso   1.000  O
  O24      1.0000 0.48890  0.36510  0.47320  Biso   1.000  O
  O25      1.0000 0.54110  0.25931  0.94631  Biso   1.000  O
  O26      1.0000 0.95890  0.75931  0.55369  Biso   1.000  O
  O27      1.0000 0.45890  0.74069  0.05369  Biso   1.000  O
  O28      1.0000 0.04110  0.24069  0.44631  Biso   1.000  O
  H1       1.0000 0.59400  0.30150  0.94700  Biso   1.000  H
  H2       1.0000 0.90600  0.80150  0.55300  Biso   1.000  H
  H3       1.0000 0.40600  0.69850  0.05300  Biso   1.000  H
  H4       1.0000 0.09400  0.19850  0.44700  Biso   1.000  H
  N1       1.0000 0.48890  0.26810  0.11880  Biso   1.000  N
  N2       1.0000 0.01110  0.76810  0.38120  Biso   1.000  N
  N3       1.0000 0.51110  0.73190  0.88120  Biso   1.000  N
  N4       1.0000 0.98890  0.23190  0.61880  Biso   1.000  N
  N5       1.0000 0.32500  0.38360  0.01840  Biso   1.000  N
  N6       1.0000 0.17500  0.88360  0.48160  Biso   1.000  N
  N7       1.0000 0.67500  0.61640  0.98160  Biso   1.000  N
  N8       1.0000 0.82500  0.11640  0.51840  Biso   1.000  N
  N9       1.0000 0.61770  0.10920  0.87980  Biso   1.000  N
  N10      1.0000 0.88230  0.60920  0.62020  Biso   1.000  N
  N11      1.0000 0.38230  0.89080  0.12020  Biso   1.000  N
  N12      1.0000 0.11770  0.39080  0.37980  Biso   1.000  N
  N13      1.0000 0.48580  0.15350  0.68690  Biso   1.000  N
  N14      1.0000 0.01420  0.65350  0.81310  Biso   1.000  N
  N15      1.0000 0.51420  0.84650  0.31310  Biso   1.000  N
  N16      1.0000 0.98580  0.34650  0.18690  Biso   1.000  N
  N17      1.0000 0.97640  0.07030  0.92210  Biso   1.000  N
  N18      1.0000 0.52360  0.57030  0.57790  Biso   1.000  N
  N19      1.0000 0.02360  0.92970  0.07790  Biso   1.000  N
  N20      1.0000 0.47640  0.42970  0.42210  Biso   1.000  N
  C1       1.0000 0.21520  0.08320  0.85580  Biso   1.000  C
  C2       1.0000 0.28480  0.58320  0.64420  Biso   1.000  C
  C3       1.0000 0.78480  0.91680  0.14420  Biso   1.000  C
  C4       1.0000 0.71520  0.41680  0.35580  Biso   1.000  C
  C5       1.0000 0.19950  0.01040  0.79840  Biso   1.000  C
  C6       1.0000 0.30050  0.51040  0.70160  Biso   1.000  C
  C7       1.0000 0.80050  0.98960  0.20160  Biso   1.000  C
  C8       1.0000 0.69950  0.48960  0.29840  Biso   1.000  C
  H5       1.0000 0.24690  0.99890  0.76730  Biso   1.000  H
  H6       1.0000 0.25310  0.49890  0.73270  Biso   1.000  H
  H7       1.0000 0.75310  0.00110  0.23270  Biso   1.000  H
  H8       1.0000 0.74690  0.50110  0.26730  Biso   1.000  H
  C9       1.0000 0.11580  0.95440  0.78560  Biso   1.000  C
  C10      1.0000 0.38420  0.45440  0.71440  Biso   1.000  C
  C11      1.0000 0.88420  0.04560  0.21440  Biso   1.000  C
  C12      1.0000 0.61580  0.54560  0.28560  Biso   1.000  C
  C13      1.0000 0.04250  0.97260  0.82900  Biso   1.000  C
  C14      1.0000 0.45750  0.47260  0.67100  Biso   1.000  C
  C15      1.0000 0.95750  0.02740  0.17100  Biso   1.000  C
  C16      1.0000 0.54250  0.52740  0.32900  Biso   1.000  C
  H9       1.0000 0.98530  0.93600  0.82130  Biso   1.000  H
  H10      1.0000 0.51470  0.43600  0.67870  Biso   1.000  H
  H11      1.0000 0.01470  0.06400  0.17870  Biso   1.000  H
  H12      1.0000 0.48530  0.56400  0.32130  Biso   1.000  H
  C17      1.0000 0.05670  0.04650  0.88360  Biso   1.000  C
  C18      1.0000 0.44330  0.54650  0.61640  Biso   1.000  C
  C19      1.0000 0.94330  0.95350  0.11640  Biso   1.000  C
  C20      1.0000 0.55670  0.45350  0.38360  Biso   1.000  C
  C21      1.0000 0.14190  0.10100  0.89930  Biso   1.000  C
  C22      1.0000 0.35810  0.60100  0.60070  Biso   1.000  C
  C23      1.0000 0.85810  0.89900  0.10070  Biso   1.000  C
  C24      1.0000 0.64190  0.39900  0.39930  Biso   1.000  C
  H13      1.0000 0.15030  0.14930  0.93860  Biso   1.000  H
  H14      1.0000 0.34970  0.64930  0.56140  Biso   1.000  H
  H15      1.0000 0.84970  0.85070  0.06140  Biso   1.000  H
  H16      1.0000 0.65030  0.35070  0.43860  Biso   1.000  H
  C25      1.0000 0.30520  0.14580  0.86830  Biso   1.000  C
  C26      1.0000 0.19480  0.64580  0.63170  Biso   1.000  C
  C27      1.0000 0.69480  0.85420  0.13170  Biso   1.000  C
  C28      1.0000 0.80520  0.35420  0.36830  Biso   1.000  C
  C29      1.0000 0.09820  0.87610  0.72070  Biso   1.000  C
  C30      1.0000 0.40180  0.37610  0.77930  Biso   1.000  C
  C31      1.0000 0.90180  0.12390  0.27930  Biso   1.000  C
  C32      1.0000 0.59820  0.62390  0.22070  Biso   1.000  C
  C33      1.0000 0.44240  0.32300  0.17480  Biso   1.000  C
  C34      1.0000 0.05760  0.82300  0.32520  Biso   1.000  C
  C35      1.0000 0.55760  0.67700  0.82520  Biso   1.000  C
  C36      1.0000 0.94240  0.17700  0.67480  Biso   1.000  C
  H17      1.0000 0.48440  0.37510  0.19510  Biso   1.000  H
  H18      1.0000 0.01560  0.87510  0.30490  Biso   1.000  H
  H19      1.0000 0.51560  0.62490  0.80490  Biso   1.000  H
  H20      1.0000 0.98440  0.12490  0.69510  Biso   1.000  H
  H21      1.0000 0.44410  0.29300  0.23320  Biso   1.000  H
  H22      1.0000 0.05590  0.79300  0.26680  Biso   1.000  H
  H23      1.0000 0.55590  0.70700  0.76680  Biso   1.000  H
  H24      1.0000 0.94410  0.20700  0.73320  Biso   1.000  H
  C37      1.0000 0.32810  0.34530  0.11170  Biso   1.000  C
  C38      1.0000 0.17190  0.84530  0.38830  Biso   1.000  C
  C39      1.0000 0.67190  0.65470  0.88830  Biso   1.000  C
  C40      1.0000 0.82810  0.15470  0.61170  Biso   1.000  C
  H25      1.0000 0.28410  0.29400  0.09820  Biso   1.000  H
  H26      1.0000 0.21590  0.79400  0.40180  Biso   1.000  H
  H27      1.0000 0.71590  0.70600  0.90180  Biso   1.000  H
  H28      1.0000 0.78410  0.20600  0.59820  Biso   1.000  H
  H29      1.0000 0.29960  0.38570  0.14600  Biso   1.000  H
  H30      1.0000 0.20040  0.88570  0.35400  Biso   1.000  H
  H31      1.0000 0.70040  0.61430  0.85400  Biso   1.000  H
  H32      1.0000 0.79960  0.11430  0.64600  Biso   1.000  H
  C41      1.0000 0.46060  0.17740  0.12530  Biso   1.000  C
  C42      1.0000 0.03940  0.67740  0.37470  Biso   1.000  C
  C43      1.0000 0.53940  0.82260  0.87470  Biso   1.000  C
  C44      1.0000 0.96060  0.32260  0.62530  Biso   1.000  C
  H33      1.0000 0.49080  0.15890  0.19240  Biso   1.000  H
  H34      1.0000 0.00920  0.65890  0.30760  Biso   1.000  H
  H35      1.0000 0.50920  0.84110  0.80760  Biso   1.000  H
  H36      1.0000 0.99080  0.34110  0.69240  Biso   1.000  H
  H37      1.0000 0.48880  0.14270  0.08640  Biso   1.000  H
  H38      1.0000 0.01120  0.64270  0.41360  Biso   1.000  H
  H39      1.0000 0.51120  0.85730  0.91360  Biso   1.000  H
  H40      1.0000 0.98880  0.35730  0.58640  Biso   1.000  H
  H41      1.0000 0.38400  0.17150  0.10120  Biso   1.000  H
  H42      1.0000 0.11600  0.67150  0.39880  Biso   1.000  H
  H43      1.0000 0.61600  0.82850  0.89880  Biso   1.000  H
  H44      1.0000 0.88400  0.32850  0.60120  Biso   1.000  H
  C45      1.0000 0.60750  0.27530  0.16140  Biso   1.000  C
  C46      1.0000 0.89250  0.77530  0.33860  Biso   1.000  C
  C47      1.0000 0.39250  0.72470  0.83860  Biso   1.000  C
  C48      1.0000 0.10750  0.22470  0.66140  Biso   1.000  C
  H45      1.0000 0.62810  0.33340  0.15590  Biso   1.000  H
  H46      1.0000 0.87190  0.83340  0.34410  Biso   1.000  H
  H47      1.0000 0.37190  0.66660  0.84410  Biso   1.000  H
  H48      1.0000 0.12810  0.16660  0.65590  Biso   1.000  H
  H49      1.0000 0.63790  0.23790  0.12670  Biso   1.000  H
  H50      1.0000 0.86210  0.73790  0.37330  Biso   1.000  H
  H51      1.0000 0.36210  0.76210  0.87330  Biso   1.000  H
  H52      1.0000 0.13790  0.26210  0.62670  Biso   1.000  H
  H53      1.0000 0.63330  0.25910  0.22930  Biso   1.000  H
  H54      1.0000 0.86670  0.75910  0.27070  Biso   1.000  H
  H55      1.0000 0.36670  0.74090  0.77070  Biso   1.000  H
  H56      1.0000 0.13330  0.24090  0.72930  Biso   1.000  H
  C49      1.0000 0.36670  0.47290  0.03410  Biso   1.000  C
  C50      1.0000 0.13330  0.97290  0.46590  Biso   1.000  C
  C51      1.0000 0.63330  0.52710  0.96590  Biso   1.000  C
  C52      1.0000 0.86670  0.02710  0.53410  Biso   1.000  C
  H57      1.0000 0.32330  0.50720  0.05920  Biso   1.000  H
  H58      1.0000 0.17670  0.00720  0.44080  Biso   1.000  H
  H59      1.0000 0.67670  0.49280  0.94080  Biso   1.000  H
  H60      1.0000 0.82330  0.99280  0.55920  Biso   1.000  H
  H61      1.0000 0.36430  0.49640  0.97290  Biso   1.000  H
  H62      1.0000 0.13570  0.99640  0.52710  Biso   1.000  H
  H63      1.0000 0.63570  0.50360  0.02710  Biso   1.000  H
  H64      1.0000 0.86430  0.00360  0.47290  Biso   1.000  H
  H65      1.0000 0.43950  0.47270  0.08030  Biso   1.000  H
  H66      1.0000 0.06050  0.97270  0.41970  Biso   1.000  H
  H67      1.0000 0.56050  0.52730  0.91970  Biso   1.000  H
  H68      1.0000 0.93950  0.02730  0.58030  Biso   1.000  H
  C53      1.0000 0.21260  0.38530  0.94850  Biso   1.000  C
  C54      1.0000 0.28740  0.88530  0.55150  Biso   1.000  C
  C55      1.0000 0.78740  0.61470  0.05150  Biso   1.000  C
  C56      1.0000 0.71260  0.11470  0.44850  Biso   1.000  C
  H69      1.0000 0.17080  0.42100  0.97410  Biso   1.000  H
  H70      1.0000 0.32920  0.92100  0.52590  Biso   1.000  H
  H71      1.0000 0.82920  0.57900  0.02590  Biso   1.000  H
  H72      1.0000 0.67080  0.07900  0.47410  Biso   1.000  H
  H73      1.0000 0.18390  0.32810  0.93910  Biso   1.000  H
  H74      1.0000 0.31610  0.82810  0.56090  Biso   1.000  H
  H75      1.0000 0.81610  0.67190  0.06090  Biso   1.000  H
  H76      1.0000 0.68390  0.17190  0.43910  Biso   1.000  H
  H77      1.0000 0.20980  0.40800  0.88690  Biso   1.000  H
  H78      1.0000 0.29020  0.90800  0.61310  Biso   1.000  H
  H79      1.0000 0.79020  0.59200  0.11310  Biso   1.000  H
  H80      1.0000 0.70980  0.09200  0.38690  Biso   1.000  H
  C57      1.0000 0.63510  0.06870  0.79870  Biso   1.000  C
  C58      1.0000 0.86490  0.56870  0.70130  Biso   1.000  C
  C59      1.0000 0.36490  0.93130  0.20130  Biso   1.000  C
  C60      1.0000 0.13510  0.43130  0.29870  Biso   1.000  C
  H81      1.0000 0.66030  0.01050  0.81660  Biso   1.000  H
  H82      1.0000 0.83970  0.51050  0.68340  Biso   1.000  H
  H83      1.0000 0.33970  0.98950  0.18340  Biso   1.000  H
  H84      1.0000 0.16030  0.48950  0.31660  Biso   1.000  H
  H85      1.0000 0.69010  0.09980  0.78440  Biso   1.000  H
  H86      1.0000 0.80990  0.59980  0.71560  Biso   1.000  H
  H87      1.0000 0.30990  0.90020  0.21560  Biso   1.000  H
  H88      1.0000 0.19010  0.40020  0.28440  Biso   1.000  H
  C61      1.0000 0.53400  0.06690  0.70900  Biso   1.000  C
  C62      1.0000 0.96600  0.56690  0.79100  Biso   1.000  C
  C63      1.0000 0.46600  0.93310  0.29100  Biso   1.000  C
  C64      1.0000 0.03400  0.43310  0.20900  Biso   1.000  C
  H89      1.0000 0.54990  0.04630  0.65360  Biso   1.000  H
  H90      1.0000 0.95010  0.54630  0.84640  Biso   1.000  H
  H91      1.0000 0.45010  0.95370  0.34640  Biso   1.000  H
  H92      1.0000 0.04990  0.45370  0.15360  Biso   1.000  H
  H93      1.0000 0.48310  0.02770  0.71930  Biso   1.000  H
  H94      1.0000 0.01690  0.52770  0.78070  Biso   1.000  H
  H95      1.0000 0.51690  0.97230  0.28070  Biso   1.000  H
  H96      1.0000 0.98310  0.47230  0.21930  Biso   1.000  H
  C65      1.0000 0.57920  0.04650  0.93440  Biso   1.000  C
  C66      1.0000 0.92080  0.54650  0.56560  Biso   1.000  C
  C67      1.0000 0.42080  0.95350  0.06560  Biso   1.000  C
  C68      1.0000 0.07920  0.45350  0.43440  Biso   1.000  C
  H97      1.0000 0.51390  0.02070  0.89090  Biso   1.000  H
  H98      1.0000 0.98610  0.52070  0.60910  Biso   1.000  H
  H99      1.0000 0.48610  0.97930  0.10910  Biso   1.000  H
  H100     1.0000 0.01390  0.47930  0.39090  Biso   1.000  H
  H101     1.0000 0.56600  0.07520  0.98670  Biso   1.000  H
  H102     1.0000 0.93400  0.57520  0.51330  Biso   1.000  H
  H103     1.0000 0.43400  0.92480  0.01330  Biso   1.000  H
  H104     1.0000 0.06600  0.42480  0.48670  Biso   1.000  H
  H105     1.0000 0.63260  0.00290  0.96120  Biso   1.000  H
  H106     1.0000 0.86740  0.50290  0.53880  Biso   1.000  H
  H107     1.0000 0.36740  0.99710  0.03880  Biso   1.000  H
  H108     1.0000 0.13260  0.49710  0.46120  Biso   1.000  H
  C69      1.0000 0.72120  0.14210  0.95270  Biso   1.000  C
  C70      1.0000 0.77880  0.64210  0.54730  Biso   1.000  C
  C71      1.0000 0.27880  0.85790  0.04730  Biso   1.000  C
  C72      1.0000 0.22120  0.35790  0.45270  Biso   1.000  C
  H109     1.0000 0.77190  0.09590  0.97390  Biso   1.000  H
  H110     1.0000 0.72810  0.59590  0.52610  Biso   1.000  H
  H111     1.0000 0.22810  0.90410  0.02610  Biso   1.000  H
  H112     1.0000 0.27190  0.40410  0.47390  Biso   1.000  H
  H113     1.0000 0.70920  0.16560  0.00810  Biso   1.000  H
  H114     1.0000 0.79080  0.66560  0.49190  Biso   1.000  H
  H115     1.0000 0.29080  0.83440  0.99190  Biso   1.000  H
  H116     1.0000 0.20920  0.33440  0.50810  Biso   1.000  H
  H117     1.0000 0.74900  0.18590  0.92280  Biso   1.000  H
  H118     1.0000 0.75100  0.68590  0.57720  Biso   1.000  H
  H119     1.0000 0.25100  0.81410  0.07720  Biso   1.000  H
  H120     1.0000 0.24900  0.31410  0.42280  Biso   1.000  H
  C73      1.0000 0.54020  0.20750  0.63750  Biso   1.000  C
  C74      1.0000 0.95980  0.70750  0.86250  Biso   1.000  C
  C75      1.0000 0.45980  0.79250  0.36250  Biso   1.000  C
  C76      1.0000 0.04020  0.29250  0.13750  Biso   1.000  C
  H121     1.0000 0.53920  0.17920  0.57920  Biso   1.000  H
  H122     1.0000 0.96080  0.67920  0.92080  Biso   1.000  H
  H123     1.0000 0.46080  0.82080  0.42080  Biso   1.000  H
  H124     1.0000 0.03920  0.32080  0.07920  Biso   1.000  H
  H125     1.0000 0.61320  0.21700  0.68080  Biso   1.000  H
  H126     1.0000 0.88680  0.71700  0.81920  Biso   1.000  H
  H127     1.0000 0.38680  0.78300  0.31920  Biso   1.000  H
  H128     1.0000 0.11320  0.28300  0.18080  Biso   1.000  H
  H129     1.0000 0.50370  0.26160  0.62040  Biso   1.000  H
  H130     1.0000 0.99630  0.76160  0.87960  Biso   1.000  H
  H131     1.0000 0.49630  0.73840  0.37960  Biso   1.000  H
  H132     1.0000 0.00370  0.23840  0.12040  Biso   1.000  H
  C77      1.0000 0.37300  0.14490  0.62060  Biso   1.000  C
  C78      1.0000 0.12700  0.64490  0.87940  Biso   1.000  C
  C79      1.0000 0.62700  0.85510  0.37940  Biso   1.000  C
  C80      1.0000 0.87300  0.35510  0.12060  Biso   1.000  C
  H133     1.0000 0.34080  0.20080  0.60570  Biso   1.000  H
  H134     1.0000 0.15920  0.70080  0.89430  Biso   1.000  H
  H135     1.0000 0.65920  0.79920  0.39430  Biso   1.000  H
  H136     1.0000 0.84080  0.29920  0.10570  Biso   1.000  H
  H137     1.0000 0.33500  0.11110  0.65180  Biso   1.000  H
  H138     1.0000 0.16500  0.61110  0.84820  Biso   1.000  H
  H139     1.0000 0.66500  0.88890  0.34820  Biso   1.000  H
  H140     1.0000 0.83500  0.38890  0.15180  Biso   1.000  H
  H141     1.0000 0.36940  0.11730  0.56110  Biso   1.000  H
  H142     1.0000 0.13060  0.61730  0.93890  Biso   1.000  H
  H143     1.0000 0.63060  0.88270  0.43890  Biso   1.000  H
  H144     1.0000 0.86940  0.38270  0.06110  Biso   1.000  H
  Cl1      1.0000 0.27654  0.13839  0.31789  Biso   1.000  Cl
  Cl2      1.0000 0.22346  0.63839  0.18211  Biso   1.000  Cl
  Cl3      1.0000 0.72346  0.86161  0.68211  Biso   1.000  Cl
  Cl4      1.0000 0.77654  0.36161  0.81789  Biso   1.000  Cl
  O29      1.0000 0.34120  0.07510  0.37420  Biso   1.000  O
  O30      1.0000 0.15880  0.57510  0.12580  Biso   1.000  O
  O31      1.0000 0.65880  0.92490  0.62580  Biso   1.000  O
  O32      1.0000 0.84120  0.42490  0.87420  Biso   1.000  O
  O33      1.0000 0.18480  0.15320  0.34260  Biso   1.000  O
  O34      1.0000 0.31520  0.65320  0.15740  Biso   1.000  O
  O35      1.0000 0.81520  0.84680  0.65740  Biso   1.000  O
  O36      1.0000 0.68480  0.34680  0.84260  Biso   1.000  O
  O37      1.0000 0.33220  0.21770  0.32840  Biso   1.000  O
  O38      1.0000 0.16780  0.71770  0.17160  Biso   1.000  O
  O39      1.0000 0.66780  0.78230  0.67160  Biso   1.000  O
  O40      1.0000 0.83220  0.28230  0.82840  Biso   1.000  O
  O41      1.0000 0.23910  0.11780  0.21620  Biso   1.000  O
  O42      1.0000 0.26090  0.61780  0.28380  Biso   1.000  O
  O43      1.0000 0.76090  0.88220  0.78380  Biso   1.000  O
  O44      1.0000 0.73910  0.38220  0.71620  Biso   1.000  O
  O45      1.0000 0.26700  0.04620  0.32340  Biso   1.000  O
  O46      1.0000 0.23300  0.54620  0.17660  Biso   1.000  O
  O47      1.0000 0.73300  0.95380  0.67660  Biso   1.000  O
  O48      1.0000 0.76700  0.45380  0.82340  Biso   1.000  O
  O49      1.0000 0.21230  0.17590  0.36270  Biso   1.000  O
  O50      1.0000 0.28770  0.67590  0.13730  Biso   1.000  O
  O51      1.0000 0.78770  0.82410  0.63730  Biso   1.000  O
  O52      1.0000 0.71230  0.32410  0.86270  Biso   1.000  O
  O53      1.0000 0.38570  0.15730  0.37160  Biso   1.000  O
  O54      1.0000 0.11430  0.65730  0.12840  Biso   1.000  O
  O55      1.0000 0.61430  0.84270  0.62840  Biso   1.000  O
  O56      1.0000 0.88570  0.34270  0.87160  Biso   1.000  O
  O57      1.0000 0.24970  0.16080  0.22050  Biso   1.000  O
  O58      1.0000 0.25030  0.66080  0.27950  Biso   1.000  O
  O59      1.0000 0.75030  0.83920  0.77950  Biso   1.000  O
  O60      1.0000 0.74970  0.33920  0.72050  Biso   1.000  O
