data_image0
_cell_length_a       13.4464
_cell_length_b       15.6975
_cell_length_c       13.9301
_cell_angle_alpha    90
_cell_angle_beta     111.165
_cell_angle_gamma    90

_symmetry_space_group_name_H-M    "P 1"
_symmetry_int_tables_number       1

loop_
  _symmetry_equiv_pos_as_xyz
  'x, y, z'

loop_
  _atom_site_label
  _atom_site_occupancy
  _atom_site_fract_x
  _atom_site_fract_y
  _atom_site_fract_z
  _atom_site_thermal_displace_type
  _atom_site_B_iso_or_equiv
  _atom_site_type_symbol
  Cu1      1.0000 0.06577  0.31036  0.02735  Biso   1.000  Cu
  Cu2      1.0000 0.43423  0.81036  0.47265  Biso   1.000  Cu
  Cu3      1.0000 0.93423  0.68964  0.97265  Biso   1.000  Cu
  Cu4      1.0000 0.56577  0.18964  0.52735  Biso   1.000  Cu
  Cu5      1.0000 0.00470  0.20652  0.20060  Biso   1.000  Cu
  Cu6      1.0000 0.49530  0.70652  0.29940  Biso   1.000  Cu
  Cu7      1.0000 0.99530  0.79348  0.79940  Biso   1.000  Cu
  Cu8      1.0000 0.50470  0.29348  0.70060  Biso   1.000  Cu
  O1       1.0000 0.10800  0.38920  0.14730  Biso   1.000  O
  O2       1.0000 0.39200  0.88920  0.35270  Biso   1.000  O
  O3       1.0000 0.89200  0.61080  0.85270  Biso   1.000  O
  O4       1.0000 0.60800  0.11080  0.64730  Biso   1.000  O
  O5       1.0000 0.07920  0.30990  0.26900  Biso   1.000  O
  O6       1.0000 0.42080  0.80990  0.23100  Biso   1.000  O
  O7       1.0000 0.92080  0.69010  0.73100  Biso   1.000  O
  O8       1.0000 0.57920  0.19010  0.76900  Biso   1.000  O
  O9       1.0000 0.36320  0.63140  0.31690  Biso   1.000  O
  O10      1.0000 0.13680  0.13140  0.18310  Biso   1.000  O
  O11      1.0000 0.63680  0.36860  0.68310  Biso   1.000  O
  O12      1.0000 0.86320  0.86860  0.81690  Biso   1.000  O
  O13      1.0000 0.31370  0.71560  0.42140  Biso   1.000  O
  O14      1.0000 0.18630  0.21560  0.07860  Biso   1.000  O
  O15      1.0000 0.68630  0.28440  0.57860  Biso   1.000  O
  O16      1.0000 0.81370  0.78440  0.92140  Biso   1.000  O
  O17      1.0000 0.95480  0.25870  0.06530  Biso   1.000  O
  O18      1.0000 0.54520  0.75870  0.43470  Biso   1.000  O
  O19      1.0000 0.04520  0.74130  0.93470  Biso   1.000  O
  O20      1.0000 0.45480  0.24130  0.56530  Biso   1.000  O
  N1       1.0000 0.99650  0.26560  0.87610  Biso   1.000  N
  N2       1.0000 0.50350  0.76560  0.62390  Biso   1.000  N
  N3       1.0000 0.00350  0.73440  0.12390  Biso   1.000  N
  N4       1.0000 0.49650  0.23440  0.37610  Biso   1.000  N
  N5       1.0000 0.15770  0.38330  0.97010  Biso   1.000  N
  N6       1.0000 0.34230  0.88330  0.52990  Biso   1.000  N
  N7       1.0000 0.84230  0.61670  0.02990  Biso   1.000  N
  N8       1.0000 0.65770  0.11670  0.47010  Biso   1.000  N
  C1       1.0000 0.03610  0.32130  0.81230  Biso   1.000  C
  C2       1.0000 0.46390  0.82130  0.68770  Biso   1.000  C
  C3       1.0000 0.96390  0.67870  0.18770  Biso   1.000  C
  C4       1.0000 0.53610  0.17870  0.31230  Biso   1.000  C
  H1       1.0000 0.99260  0.37240  0.79380  Biso   1.000  H
  H2       1.0000 0.50740  0.87240  0.70620  Biso   1.000  H
  H3       1.0000 0.00740  0.62760  0.20620  Biso   1.000  H
  H4       1.0000 0.49260  0.12760  0.29380  Biso   1.000  H
  H5       1.0000 0.03080  0.29190  0.74940  Biso   1.000  H
  H6       1.0000 0.46920  0.79190  0.75060  Biso   1.000  H
  H7       1.0000 0.96920  0.70810  0.25060  Biso   1.000  H
  H8       1.0000 0.53080  0.20810  0.24940  Biso   1.000  H
  C5       1.0000 0.14970  0.34530  0.87040  Biso   1.000  C
  C6       1.0000 0.35030  0.84530  0.62960  Biso   1.000  C
  C7       1.0000 0.85030  0.65470  0.12960  Biso   1.000  C
  C8       1.0000 0.64970  0.15470  0.37040  Biso   1.000  C
  H9       1.0000 0.19470  0.29520  0.88210  Biso   1.000  H
  H10      1.0000 0.30530  0.79520  0.61790  Biso   1.000  H
  H11      1.0000 0.80530  0.70480  0.11790  Biso   1.000  H
  H12      1.0000 0.69470  0.20480  0.38210  Biso   1.000  H
  H13      1.0000 0.17360  0.38600  0.83090  Biso   1.000  H
  H14      1.0000 0.32640  0.88600  0.66910  Biso   1.000  H
  H15      1.0000 0.82640  0.61400  0.16910  Biso   1.000  H
  H16      1.0000 0.67360  0.11400  0.33090  Biso   1.000  H
  C9       1.0000 0.87870  0.26940  0.83610  Biso   1.000  C
  C10      1.0000 0.62130  0.76940  0.66390  Biso   1.000  C
  C11      1.0000 0.12130  0.73060  0.16390  Biso   1.000  C
  C12      1.0000 0.37870  0.23060  0.33610  Biso   1.000  C
  H17      1.0000 0.85620  0.32520  0.84800  Biso   1.000  H
  H18      1.0000 0.64380  0.82520  0.65200  Biso   1.000  H
  H19      1.0000 0.14380  0.67480  0.15200  Biso   1.000  H
  H20      1.0000 0.35620  0.17480  0.34800  Biso   1.000  H
  H21      1.0000 0.85150  0.22780  0.87070  Biso   1.000  H
  H22      1.0000 0.64850  0.72780  0.62930  Biso   1.000  H
  H23      1.0000 0.14850  0.77220  0.12930  Biso   1.000  H
  H24      1.0000 0.35150  0.27220  0.37070  Biso   1.000  H
  H25      1.0000 0.85180  0.25780  0.76350  Biso   1.000  H
  H26      1.0000 0.64820  0.75780  0.73650  Biso   1.000  H
  H27      1.0000 0.14820  0.74220  0.23650  Biso   1.000  H
  H28      1.0000 0.35180  0.24220  0.26350  Biso   1.000  H
  C13      1.0000 0.02840  0.17650  0.86910  Biso   1.000  C
  C14      1.0000 0.47160  0.67650  0.63090  Biso   1.000  C
  C15      1.0000 0.97160  0.82350  0.13090  Biso   1.000  C
  C16      1.0000 0.52840  0.32350  0.36910  Biso   1.000  C
  H29      1.0000 0.00110  0.15850  0.79850  Biso   1.000  H
  H30      1.0000 0.49890  0.65850  0.70150  Biso   1.000  H
  H31      1.0000 0.99890  0.84150  0.20150  Biso   1.000  H
  H32      1.0000 0.50110  0.34150  0.29850  Biso   1.000  H
  H33      1.0000 0.00000  0.14060  0.90880  Biso   1.000  H
  H34      1.0000 0.50000  0.64060  0.59120  Biso   1.000  H
  H35      1.0000 0.00000  0.85940  0.09120  Biso   1.000  H
  H36      1.0000 0.50000  0.35940  0.40880  Biso   1.000  H
  H37      1.0000 0.10480  0.17240  0.89550  Biso   1.000  H
  H38      1.0000 0.39520  0.67240  0.60450  Biso   1.000  H
  H39      1.0000 0.89520  0.82760  0.10450  Biso   1.000  H
  H40      1.0000 0.60480  0.32760  0.39550  Biso   1.000  H
  C17      1.0000 0.27080  0.38870  0.03930  Biso   1.000  C
  C18      1.0000 0.22920  0.88870  0.46070  Biso   1.000  C
  C19      1.0000 0.72920  0.61130  0.96070  Biso   1.000  C
  C20      1.0000 0.77080  0.11130  0.53930  Biso   1.000  C
  H41      1.0000 0.30300  0.33340  0.04580  Biso   1.000  H
  H42      1.0000 0.19700  0.83340  0.45420  Biso   1.000  H
  H43      1.0000 0.69700  0.66660  0.95420  Biso   1.000  H
  H44      1.0000 0.80300  0.16660  0.54580  Biso   1.000  H
  H45      1.0000 0.27480  0.40840  0.10580  Biso   1.000  H
  H46      1.0000 0.22520  0.90840  0.39420  Biso   1.000  H
  H47      1.0000 0.72520  0.59160  0.89420  Biso   1.000  H
  H48      1.0000 0.77480  0.09160  0.60580  Biso   1.000  H
  H49      1.0000 0.30790  0.42780  0.01110  Biso   1.000  H
  H50      1.0000 0.19210  0.92780  0.48890  Biso   1.000  H
  H51      1.0000 0.69210  0.57220  0.98890  Biso   1.000  H
  H52      1.0000 0.80790  0.07220  0.51110  Biso   1.000  H
  C21      1.0000 0.11430  0.47180  0.95350  Biso   1.000  C
  C22      1.0000 0.38570  0.97180  0.54650  Biso   1.000  C
  C23      1.0000 0.88570  0.52820  0.04650  Biso   1.000  C
  C24      1.0000 0.61430  0.02820  0.45350  Biso   1.000  C
  H53      1.0000 0.15740  0.50660  0.92720  Biso   1.000  H
  H54      1.0000 0.34260  0.00660  0.57280  Biso   1.000  H
  H55      1.0000 0.84260  0.49340  0.07280  Biso   1.000  H
  H56      1.0000 0.65740  0.99340  0.42720  Biso   1.000  H
  H57      1.0000 0.11530  0.49480  0.01760  Biso   1.000  H
  H58      1.0000 0.38470  0.99480  0.48240  Biso   1.000  H
  H59      1.0000 0.88470  0.50520  0.98240  Biso   1.000  H
  H60      1.0000 0.61530  0.00520  0.51760  Biso   1.000  H
  H61      1.0000 0.04230  0.47080  0.90490  Biso   1.000  H
  H62      1.0000 0.45770  0.97080  0.59510  Biso   1.000  H
  H63      1.0000 0.95770  0.52920  0.09510  Biso   1.000  H
  H64      1.0000 0.54230  0.02920  0.40490  Biso   1.000  H
  C25      1.0000 0.99210  0.21860  0.40930  Biso   1.000  C
  C26      1.0000 0.50790  0.71860  0.09070  Biso   1.000  C
  C27      1.0000 0.00790  0.78140  0.59070  Biso   1.000  C
  C28      1.0000 0.49210  0.28140  0.90930  Biso   1.000  C
  H65      1.0000 0.91760  0.22990  0.37380  Biso   1.000  H
  H66      1.0000 0.58240  0.72990  0.12620  Biso   1.000  H
  H67      1.0000 0.08240  0.77010  0.62620  Biso   1.000  H
  H68      1.0000 0.41760  0.27010  0.87380  Biso   1.000  H
  H69      1.0000 0.03130  0.27100  0.41920  Biso   1.000  H
  H70      1.0000 0.46870  0.77100  0.08080  Biso   1.000  H
  H71      1.0000 0.96870  0.72900  0.58080  Biso   1.000  H
  H72      1.0000 0.53130  0.22900  0.91920  Biso   1.000  H
  H73      1.0000 0.00240  0.19340  0.47500  Biso   1.000  H
  H74      1.0000 0.49760  0.69340  0.02500  Biso   1.000  H
  H75      1.0000 0.99760  0.80660  0.52500  Biso   1.000  H
  H76      1.0000 0.50240  0.30660  0.97500  Biso   1.000  H
  C29      1.0000 0.14500  0.14430  0.40240  Biso   1.000  C
  C30      1.0000 0.35500  0.64430  0.09760  Biso   1.000  C
  C31      1.0000 0.85500  0.85570  0.59760  Biso   1.000  C
  C32      1.0000 0.64500  0.35570  0.90240  Biso   1.000  C
  H77      1.0000 0.15550  0.11480  0.46570  Biso   1.000  H
  H78      1.0000 0.34450  0.61480  0.03430  Biso   1.000  H
  H79      1.0000 0.84450  0.88520  0.53430  Biso   1.000  H
  H80      1.0000 0.65550  0.38520  0.96570  Biso   1.000  H
  H81      1.0000 0.18190  0.19790  0.41710  Biso   1.000  H
  H82      1.0000 0.31810  0.69790  0.08290  Biso   1.000  H
  H83      1.0000 0.81810  0.80210  0.58290  Biso   1.000  H
  H84      1.0000 0.68190  0.30210  0.91710  Biso   1.000  H
  H85      1.0000 0.17230  0.11040  0.36010  Biso   1.000  H
  H86      1.0000 0.32770  0.61040  0.13990  Biso   1.000  H
  H87      1.0000 0.82770  0.88960  0.63990  Biso   1.000  H
  H88      1.0000 0.67230  0.38960  0.86010  Biso   1.000  H
  N9       1.0000 0.03040  0.15950  0.34770  Biso   1.000  N
  N10      1.0000 0.46960  0.65950  0.15230  Biso   1.000  N
  N11      1.0000 0.96960  0.84050  0.65230  Biso   1.000  N
  N12      1.0000 0.53040  0.34050  0.84770  Biso   1.000  N
  C33      1.0000 0.98730  0.07030  0.33450  Biso   1.000  C
  C34      1.0000 0.51270  0.57030  0.16550  Biso   1.000  C
  C35      1.0000 0.01270  0.92970  0.66550  Biso   1.000  C
  C36      1.0000 0.48730  0.42970  0.83450  Biso   1.000  C
  H89      1.0000 0.04440  0.03240  0.37410  Biso   1.000  H
  H90      1.0000 0.45560  0.53240  0.12590  Biso   1.000  H
  H91      1.0000 0.95560  0.96760  0.62590  Biso   1.000  H
  H92      1.0000 0.54440  0.46760  0.87410  Biso   1.000  H
  H93      1.0000 0.93230  0.06750  0.36420  Biso   1.000  H
  H94      1.0000 0.56770  0.56750  0.13580  Biso   1.000  H
  H95      1.0000 0.06770  0.93250  0.63580  Biso   1.000  H
  H96      1.0000 0.43230  0.43250  0.86420  Biso   1.000  H
  C37      1.0000 0.94740  0.04150  0.24030  Biso   1.000  C
  C38      1.0000 0.55260  0.54150  0.25970  Biso   1.000  C
  C39      1.0000 0.05260  0.95850  0.75970  Biso   1.000  C
  C40      1.0000 0.44740  0.45850  0.74030  Biso   1.000  C
  H97      1.0000 0.88980  0.00260  0.23560  Biso   1.000  H
  H98      1.0000 0.61020  0.50260  0.26440  Biso   1.000  H
  H99      1.0000 0.11020  0.99740  0.76440  Biso   1.000  H
  H100     1.0000 0.38980  0.49740  0.73560  Biso   1.000  H
  H101     1.0000 0.00210  0.00900  0.22660  Biso   1.000  H
  H102     1.0000 0.49790  0.50900  0.27340  Biso   1.000  H
  H103     1.0000 0.99790  0.99100  0.77340  Biso   1.000  H
  H104     1.0000 0.50210  0.49100  0.72660  Biso   1.000  H
  N13      1.0000 0.90600  0.10700  0.15800  Biso   1.000  N
  N14      1.0000 0.59400  0.60700  0.34200  Biso   1.000  N
  N15      1.0000 0.09400  0.89300  0.84200  Biso   1.000  N
  N16      1.0000 0.40600  0.39300  0.65800  Biso   1.000  N
  C41      1.0000 0.79800  0.12610  0.13700  Biso   1.000  C
  C42      1.0000 0.70200  0.62610  0.36300  Biso   1.000  C
  C43      1.0000 0.20200  0.87390  0.86300  Biso   1.000  C
  C44      1.0000 0.29800  0.37390  0.63700  Biso   1.000  C
  H105     1.0000 0.79120  0.15790  0.19380  Biso   1.000  H
  H106     1.0000 0.70880  0.65790  0.30620  Biso   1.000  H
  H107     1.0000 0.20880  0.84210  0.80620  Biso   1.000  H
  H108     1.0000 0.29120  0.34210  0.69380  Biso   1.000  H
  H109     1.0000 0.75790  0.07400  0.12900  Biso   1.000  H
  H110     1.0000 0.74210  0.57400  0.37100  Biso   1.000  H
  H111     1.0000 0.24210  0.92600  0.87100  Biso   1.000  H
  H112     1.0000 0.25790  0.42600  0.62900  Biso   1.000  H
  H113     1.0000 0.76990  0.15920  0.07550  Biso   1.000  H
  H114     1.0000 0.73010  0.65920  0.42450  Biso   1.000  H
  H115     1.0000 0.23010  0.84080  0.92450  Biso   1.000  H
  H116     1.0000 0.26990  0.34080  0.57550  Biso   1.000  H
  C45      1.0000 0.90000  0.06500  0.05600  Biso   1.000  C
  C46      1.0000 0.60000  0.56500  0.44400  Biso   1.000  C
  C47      1.0000 0.10000  0.93500  0.94400  Biso   1.000  C
  C48      1.0000 0.40000  0.43500  0.55600  Biso   1.000  C
  H117     1.0000 0.97040  0.04900  0.06040  Biso   1.000  H
  H118     1.0000 0.52960  0.54900  0.43960  Biso   1.000  H
  H119     1.0000 0.02960  0.95100  0.93960  Biso   1.000  H
  H120     1.0000 0.47040  0.45100  0.56040  Biso   1.000  H
  H121     1.0000 0.87050  0.10470  0.00040  Biso   1.000  H
  H122     1.0000 0.62950  0.60470  0.49960  Biso   1.000  H
  H123     1.0000 0.12950  0.89530  0.99960  Biso   1.000  H
  H124     1.0000 0.37050  0.39530  0.50040  Biso   1.000  H
  H125     1.0000 0.85560  0.01530  0.04370  Biso   1.000  H
  H126     1.0000 0.64440  0.51530  0.45630  Biso   1.000  H
  H127     1.0000 0.14440  0.98470  0.95630  Biso   1.000  H
  H128     1.0000 0.35560  0.48470  0.54370  Biso   1.000  H
  C49      1.0000 0.12510  0.45510  0.30340  Biso   1.000  C
  C50      1.0000 0.37490  0.95510  0.19660  Biso   1.000  C
  C51      1.0000 0.87490  0.54490  0.69660  Biso   1.000  C
  C52      1.0000 0.62510  0.04490  0.80340  Biso   1.000  C
  C53      1.0000 0.20260  0.51330  0.30400  Biso   1.000  C
  C54      1.0000 0.29740  0.01330  0.19600  Biso   1.000  C
  C55      1.0000 0.79740  0.48670  0.69600  Biso   1.000  C
  C56      1.0000 0.70260  0.98670  0.80400  Biso   1.000  C
  H129     1.0000 0.24090  0.50490  0.26100  Biso   1.000  H
  H130     1.0000 0.25910  0.00490  0.23900  Biso   1.000  H
  H131     1.0000 0.75910  0.49510  0.73900  Biso   1.000  H
  H132     1.0000 0.74090  0.99510  0.76100  Biso   1.000  H
  C57      1.0000 0.22430  0.58510  0.36880  Biso   1.000  C
  C58      1.0000 0.27570  0.08510  0.13120  Biso   1.000  C
  C59      1.0000 0.77570  0.41490  0.63120  Biso   1.000  C
  C60      1.0000 0.72430  0.91490  0.86880  Biso   1.000  C
  C61      1.0000 0.16500  0.59680  0.43090  Biso   1.000  C
  C62      1.0000 0.33500  0.09680  0.06910  Biso   1.000  C
  C63      1.0000 0.83500  0.40320  0.56910  Biso   1.000  C
  C64      1.0000 0.66500  0.90320  0.93090  Biso   1.000  C
  H133     1.0000 0.17810  0.64380  0.47440  Biso   1.000  H
  H134     1.0000 0.32190  0.14380  0.02560  Biso   1.000  H
  H135     1.0000 0.82190  0.35620  0.52560  Biso   1.000  H
  H136     1.0000 0.67810  0.85620  0.97440  Biso   1.000  H
  C65      1.0000 0.08560  0.53880  0.42890  Biso   1.000  C
  C66      1.0000 0.41440  0.03880  0.07110  Biso   1.000  C
  C67      1.0000 0.91440  0.46120  0.57110  Biso   1.000  C
  C68      1.0000 0.58560  0.96120  0.92890  Biso   1.000  C
  H137     1.0000 0.04480  0.54820  0.46940  Biso   1.000  H
  H138     1.0000 0.45520  0.04820  0.03060  Biso   1.000  H
  H139     1.0000 0.95520  0.45180  0.53060  Biso   1.000  H
  H140     1.0000 0.54480  0.95180  0.96940  Biso   1.000  H
  C69      1.0000 0.06770  0.46820  0.36760  Biso   1.000  C
  C70      1.0000 0.43230  0.96820  0.13240  Biso   1.000  C
  C71      1.0000 0.93230  0.53180  0.63240  Biso   1.000  C
  C72      1.0000 0.56770  0.03180  0.86760  Biso   1.000  C
  H141     1.0000 0.01680  0.42860  0.36880  Biso   1.000  H
  H142     1.0000 0.48320  0.92860  0.13120  Biso   1.000  H
  H143     1.0000 0.98320  0.57140  0.63120  Biso   1.000  H
  H144     1.0000 0.51680  0.07140  0.86880  Biso   1.000  H
  C73      1.0000 0.10280  0.37920  0.23400  Biso   1.000  C
  C74      1.0000 0.39720  0.87920  0.26600  Biso   1.000  C
  C75      1.0000 0.89720  0.62080  0.76600  Biso   1.000  C
  C76      1.0000 0.60280  0.12080  0.73400  Biso   1.000  C
  C77      1.0000 0.30780  0.64920  0.36890  Biso   1.000  C
  C78      1.0000 0.19220  0.14920  0.13110  Biso   1.000  C
  C79      1.0000 0.69220  0.35080  0.63110  Biso   1.000  C
  C80      1.0000 0.80780  0.85080  0.86890  Biso   1.000  C
  C81      1.0000 0.94700  0.09150  0.33000  Biso   1.000  C
  C82      1.0000 0.55300  0.59150  0.17000  Biso   1.000  C
  C83      1.0000 0.05300  0.90850  0.67000  Biso   1.000  C
  C84      1.0000 0.44700  0.40850  0.83000  Biso   1.000  C
  H145     1.0000 0.98400  0.03840  0.35590  Biso   1.000  H
  H146     1.0000 0.51600  0.53840  0.14410  Biso   1.000  H
  H147     1.0000 0.01600  0.96160  0.64410  Biso   1.000  H
  H148     1.0000 0.48400  0.46160  0.85590  Biso   1.000  H
  H149     1.0000 0.90660  0.10510  0.37380  Biso   1.000  H
  H150     1.0000 0.59340  0.60510  0.12620  Biso   1.000  H
  H151     1.0000 0.09340  0.89490  0.62620  Biso   1.000  H
  H152     1.0000 0.40660  0.39490  0.87380  Biso   1.000  H
  C85      1.0000 0.87800  0.07700  0.23700  Biso   1.000  C
  C86      1.0000 0.62200  0.57700  0.26300  Biso   1.000  C
  C87      1.0000 0.12200  0.92300  0.76300  Biso   1.000  C
  C88      1.0000 0.37800  0.42300  0.73700  Biso   1.000  C
  H153     1.0000 0.81080  0.10140  0.23520  Biso   1.000  H
  H154     1.0000 0.68920  0.60140  0.26480  Biso   1.000  H
  H155     1.0000 0.18920  0.89860  0.76480  Biso   1.000  H
  H156     1.0000 0.31080  0.39860  0.73520  Biso   1.000  H
  H157     1.0000 0.86720  0.01560  0.23220  Biso   1.000  H
  H158     1.0000 0.63280  0.51560  0.26780  Biso   1.000  H
  H159     1.0000 0.13280  0.98440  0.76780  Biso   1.000  H
  H160     1.0000 0.36720  0.48440  0.73220  Biso   1.000  H
  N17      1.0000 0.89100  0.10300  0.14100  Biso   1.000  N
  N18      1.0000 0.60900  0.60300  0.35900  Biso   1.000  N
  N19      1.0000 0.10900  0.89700  0.85900  Biso   1.000  N
  N20      1.0000 0.39100  0.39700  0.64100  Biso   1.000  N
  C89      1.0000 0.78000  0.14300  0.08200  Biso   1.000  C
  C90      1.0000 0.72000  0.64300  0.41800  Biso   1.000  C
  C91      1.0000 0.22000  0.85700  0.91800  Biso   1.000  C
  C92      1.0000 0.28000  0.35700  0.58200  Biso   1.000  C
  H161     1.0000 0.77870  0.16660  0.01830  Biso   1.000  H
  H162     1.0000 0.72130  0.66660  0.48170  Biso   1.000  H
  H163     1.0000 0.22130  0.83340  0.98170  Biso   1.000  H
  H164     1.0000 0.27870  0.33340  0.51830  Biso   1.000  H
  H165     1.0000 0.76600  0.18750  0.12330  Biso   1.000  H
  H166     1.0000 0.73400  0.68750  0.37670  Biso   1.000  H
  H167     1.0000 0.23400  0.81250  0.87670  Biso   1.000  H
  H168     1.0000 0.26600  0.31250  0.62330  Biso   1.000  H
  H169     1.0000 0.72610  0.09990  0.06900  Biso   1.000  H
  H170     1.0000 0.77390  0.59990  0.43100  Biso   1.000  H
  H171     1.0000 0.27390  0.90010  0.93100  Biso   1.000  H
  H172     1.0000 0.22610  0.40010  0.56900  Biso   1.000  H
  C93      1.0000 0.93100  0.04900  0.08300  Biso   1.000  C
  C94      1.0000 0.56900  0.54900  0.41700  Biso   1.000  C
  C95      1.0000 0.06900  0.95100  0.91700  Biso   1.000  C
  C96      1.0000 0.43100  0.45100  0.58300  Biso   1.000  C
  H173     1.0000 0.93300  0.07820  0.02380  Biso   1.000  H
  H174     1.0000 0.56700  0.57820  0.47620  Biso   1.000  H
  H175     1.0000 0.06700  0.92180  0.97620  Biso   1.000  H
  H176     1.0000 0.43300  0.42180  0.52380  Biso   1.000  H
  H177     1.0000 0.88510  0.99980  0.06190  Biso   1.000  H
  H178     1.0000 0.61490  0.49980  0.43810  Biso   1.000  H
  H179     1.0000 0.11490  0.00020  0.93810  Biso   1.000  H
  H180     1.0000 0.38510  0.50020  0.56190  Biso   1.000  H
  H181     1.0000 0.00150  0.03040  0.12490  Biso   1.000  H
  H182     1.0000 0.49850  0.53040  0.37510  Biso   1.000  H
  H183     1.0000 0.99850  0.96960  0.87510  Biso   1.000  H
  H184     1.0000 0.50150  0.46960  0.62490  Biso   1.000  H
  Cl1      1.0000 0.24870  0.63040  0.78460  Biso   1.000  Cl
  Cl2      1.0000 0.25130  0.13040  0.71540  Biso   1.000  Cl
  Cl3      1.0000 0.75130  0.36960  0.21540  Biso   1.000  Cl
  Cl4      1.0000 0.74870  0.86960  0.28460  Biso   1.000  Cl
  O21      1.0000 0.16280  0.65600  0.81350  Biso   1.000  O
  O22      1.0000 0.33720  0.15600  0.68650  Biso   1.000  O
  O23      1.0000 0.83720  0.34400  0.18650  Biso   1.000  O
  O24      1.0000 0.66280  0.84400  0.31350  Biso   1.000  O
  O25      1.0000 0.29830  0.55950  0.84540  Biso   1.000  O
  O26      1.0000 0.20170  0.05950  0.65460  Biso   1.000  O
  O27      1.0000 0.70170  0.44050  0.15460  Biso   1.000  O
  O28      1.0000 0.79830  0.94050  0.34540  Biso   1.000  O
  O29      1.0000 0.32600  0.69580  0.80450  Biso   1.000  O
  O30      1.0000 0.17400  0.19580  0.69550  Biso   1.000  O
  O31      1.0000 0.67400  0.30420  0.19550  Biso   1.000  O
  O32      1.0000 0.82600  0.80420  0.30450  Biso   1.000  O
  O33      1.0000 0.21040  0.61200  0.67940  Biso   1.000  O
  O34      1.0000 0.28960  0.11200  0.82060  Biso   1.000  O
  O35      1.0000 0.78960  0.38800  0.32060  Biso   1.000  O
  O36      1.0000 0.71040  0.88800  0.17940  Biso   1.000  O
  O37      1.0000 0.19760  0.66540  0.84750  Biso   1.000  O
  O38      1.0000 0.30240  0.16540  0.65250  Biso   1.000  O
  O39      1.0000 0.80240  0.33460  0.15250  Biso   1.000  O
  O40      1.0000 0.69760  0.83460  0.34750  Biso   1.000  O
  O41      1.0000 0.35740  0.61850  0.84360  Biso   1.000  O
  O42      1.0000 0.14260  0.11850  0.65640  Biso   1.000  O
  O43      1.0000 0.64260  0.38150  0.15640  Biso   1.000  O
  O44      1.0000 0.85740  0.88150  0.34360  Biso   1.000  O
  O45      1.0000 0.20470  0.55020  0.74470  Biso   1.000  O
  O46      1.0000 0.29530  0.05020  0.75530  Biso   1.000  O
  O47      1.0000 0.79530  0.44980  0.25530  Biso   1.000  O
  O48      1.0000 0.70470  0.94980  0.24470  Biso   1.000  O
  O49      1.0000 0.23400  0.68560  0.70100  Biso   1.000  O
  O50      1.0000 0.26600  0.18560  0.79900  Biso   1.000  O
  O51      1.0000 0.76600  0.31440  0.29900  Biso   1.000  O
  O52      1.0000 0.73400  0.81440  0.20100  Biso   1.000  O
