data_image0
_cell_length_a       13.4164
_cell_length_b       15.4139
_cell_length_c       15.0463
_cell_angle_alpha    90
_cell_angle_beta     112.966
_cell_angle_gamma    90

_symmetry_space_group_name_H-M    "P 1"
_symmetry_int_tables_number       1

loop_
  _symmetry_equiv_pos_as_xyz
  'x, y, z'

loop_
  _atom_site_label
  _atom_site_occupancy
  _atom_site_fract_x
  _atom_site_fract_y
  _atom_site_fract_z
  _atom_site_thermal_displace_type
  _atom_site_B_iso_or_equiv
  _atom_site_type_symbol
  Cu1      1.0000 0.06592  0.19417  0.02577  Biso   1.000  Cu
  Cu2      1.0000 0.43408  0.69417  0.47423  Biso   1.000  Cu
  Cu3      1.0000 0.93408  0.80583  0.97423  Biso   1.000  Cu
  Cu4      1.0000 0.56592  0.30583  0.52577  Biso   1.000  Cu
  Cu5      1.0000 0.99004  0.30099  0.17614  Biso   1.000  Cu
  Cu6      1.0000 0.50996  0.80099  0.32386  Biso   1.000  Cu
  Cu7      1.0000 0.00996  0.69901  0.82386  Biso   1.000  Cu
  Cu8      1.0000 0.49004  0.19901  0.67614  Biso   1.000  Cu
  O1       1.0000 0.18010  0.29773  0.07723  Biso   1.000  O
  O2       1.0000 0.31990  0.79773  0.42277  Biso   1.000  O
  O3       1.0000 0.81990  0.70227  0.92277  Biso   1.000  O
  O4       1.0000 0.68010  0.20227  0.57723  Biso   1.000  O
  O5       1.0000 0.13080  0.37502  0.17737  Biso   1.000  O
  O6       1.0000 0.36920  0.87502  0.32263  Biso   1.000  O
  O7       1.0000 0.86920  0.62498  0.82263  Biso   1.000  O
  O8       1.0000 0.63080  0.12498  0.67737  Biso   1.000  O
  O9       1.0000 0.39150  0.61847  0.35910  Biso   1.000  O
  O10      1.0000 0.10850  0.11847  0.14090  Biso   1.000  O
  O11      1.0000 0.60850  0.38153  0.64090  Biso   1.000  O
  O12      1.0000 0.89150  0.88153  0.85910  Biso   1.000  O
  O13      1.0000 0.44230  0.69271  0.25549  Biso   1.000  O
  O14      1.0000 0.05770  0.19271  0.24451  Biso   1.000  O
  O15      1.0000 0.55770  0.30729  0.74451  Biso   1.000  O
  O16      1.0000 0.94230  0.80729  0.75549  Biso   1.000  O
  O17      1.0000 0.51860  0.43705  0.08315  Biso   1.000  O
  O18      1.0000 0.98140  0.93705  0.41685  Biso   1.000  O
  O19      1.0000 0.48140  0.56295  0.91685  Biso   1.000  O
  O20      1.0000 0.01860  0.06295  0.58315  Biso   1.000  O
  O21      1.0000 0.94910  0.24657  0.05116  Biso   1.000  O
  O22      1.0000 0.55090  0.74657  0.44884  Biso   1.000  O
  O23      1.0000 0.05090  0.75343  0.94884  Biso   1.000  O
  O24      1.0000 0.44910  0.25343  0.55116  Biso   1.000  O
  H1       1.0000 0.90600  0.20800  0.05000  Biso   1.000  H
  H2       1.0000 0.59400  0.70800  0.45000  Biso   1.000  H
  H3       1.0000 0.09400  0.79200  0.95000  Biso   1.000  H
  H4       1.0000 0.40600  0.29200  0.55000  Biso   1.000  H
  N1       1.0000 0.99820  0.23200  0.88110  Biso   1.000  N
  N2       1.0000 0.50180  0.73200  0.61890  Biso   1.000  N
  N3       1.0000 0.00180  0.76800  0.11890  Biso   1.000  N
  N4       1.0000 0.49820  0.26800  0.38110  Biso   1.000  N
  N5       1.0000 0.16790  0.11950  0.98430  Biso   1.000  N
  N6       1.0000 0.33210  0.61950  0.51570  Biso   1.000  N
  N7       1.0000 0.83210  0.88050  0.01570  Biso   1.000  N
  N8       1.0000 0.66790  0.38050  0.48430  Biso   1.000  N
  N9       1.0000 0.00970  0.35230  0.30720  Biso   1.000  N
  N10      1.0000 0.49030  0.85230  0.19280  Biso   1.000  N
  N11      1.0000 0.99030  0.64770  0.69280  Biso   1.000  N
  N12      1.0000 0.50970  0.14770  0.80720  Biso   1.000  N
  N13      1.0000 0.88000  0.40110  0.11890  Biso   1.000  N
  N14      1.0000 0.62000  0.90110  0.38110  Biso   1.000  N
  N15      1.0000 0.12000  0.59890  0.88110  Biso   1.000  N
  N16      1.0000 0.38000  0.09890  0.61890  Biso   1.000  N
  C1       1.0000 0.28170  0.42160  0.14730  Biso   1.000  C
  C2       1.0000 0.21830  0.92160  0.35270  Biso   1.000  C
  C3       1.0000 0.71830  0.57840  0.85270  Biso   1.000  C
  C4       1.0000 0.78170  0.07840  0.64730  Biso   1.000  C
  C5       1.0000 0.30020  0.49330  0.20610  Biso   1.000  C
  C6       1.0000 0.19980  0.99330  0.29390  Biso   1.000  C
  C7       1.0000 0.69980  0.50670  0.79390  Biso   1.000  C
  C8       1.0000 0.80020  0.00670  0.70610  Biso   1.000  C
  H5       1.0000 0.25360  0.50550  0.23690  Biso   1.000  H
  H6       1.0000 0.24640  0.00550  0.26310  Biso   1.000  H
  H7       1.0000 0.74640  0.49450  0.76310  Biso   1.000  H
  H8       1.0000 0.75360  0.99450  0.73690  Biso   1.000  H
  C9       1.0000 0.38760  0.54750  0.21990  Biso   1.000  C
  C10      1.0000 0.11240  0.04750  0.28010  Biso   1.000  C
  C11      1.0000 0.61240  0.45250  0.78010  Biso   1.000  C
  C12      1.0000 0.88760  0.95250  0.71990  Biso   1.000  C
  C13      1.0000 0.45920  0.52770  0.17690  Biso   1.000  C
  C14      1.0000 0.04080  0.02770  0.32310  Biso   1.000  C
  C15      1.0000 0.54080  0.47230  0.82310  Biso   1.000  C
  C16      1.0000 0.95920  0.97230  0.67690  Biso   1.000  C
  H9       1.0000 0.51840  0.56350  0.18660  Biso   1.000  H
  H10      1.0000 0.98160  0.06350  0.31340  Biso   1.000  H
  H11      1.0000 0.48160  0.43650  0.81340  Biso   1.000  H
  H12      1.0000 0.01840  0.93650  0.68660  Biso   1.000  H
  C17      1.0000 0.44230  0.45410  0.11930  Biso   1.000  C
  C18      1.0000 0.05770  0.95410  0.38070  Biso   1.000  C
  C19      1.0000 0.55770  0.54590  0.88070  Biso   1.000  C
  C20      1.0000 0.94230  0.04590  0.61930  Biso   1.000  C
  C21      1.0000 0.35270  0.40310  0.10360  Biso   1.000  C
  C22      1.0000 0.14730  0.90310  0.39640  Biso   1.000  C
  C23      1.0000 0.64730  0.59690  0.89640  Biso   1.000  C
  C24      1.0000 0.85270  0.09690  0.60360  Biso   1.000  C
  H13      1.0000 0.33970  0.35530  0.06280  Biso   1.000  H
  H14      1.0000 0.16030  0.85530  0.43720  Biso   1.000  H
  H15      1.0000 0.66030  0.64470  0.93720  Biso   1.000  H
  H16      1.0000 0.83970  0.14470  0.56280  Biso   1.000  H
  C25      1.0000 0.18890  0.36010  0.13260  Biso   1.000  C
  C26      1.0000 0.31110  0.86010  0.36740  Biso   1.000  C
  C27      1.0000 0.81110  0.63990  0.86740  Biso   1.000  C
  C28      1.0000 0.68890  0.13990  0.63260  Biso   1.000  C
  C29      1.0000 0.40900  0.62640  0.28400  Biso   1.000  C
  C30      1.0000 0.09100  0.12640  0.21600  Biso   1.000  C
  C31      1.0000 0.59100  0.37360  0.71600  Biso   1.000  C
  C32      1.0000 0.90900  0.87360  0.78400  Biso   1.000  C
  C33      1.0000 0.49510  0.36730  0.01550  Biso   1.000  C
  C34      1.0000 0.00490  0.86730  0.48450  Biso   1.000  C
  C35      1.0000 0.50490  0.63270  0.98450  Biso   1.000  C
  C36      1.0000 0.99510  0.13270  0.51550  Biso   1.000  C
  H17      1.0000 0.49620  0.31350  0.04790  Biso   1.000  H
  H18      1.0000 0.00380  0.81350  0.45210  Biso   1.000  H
  H19      1.0000 0.50380  0.68650  0.95210  Biso   1.000  H
  H20      1.0000 0.99620  0.18650  0.54790  Biso   1.000  H
  H21      1.0000 0.54850  0.36580  0.98770  Biso   1.000  H
  H22      1.0000 0.95150  0.86580  0.51230  Biso   1.000  H
  H23      1.0000 0.45150  0.63420  0.01230  Biso   1.000  H
  H24      1.0000 0.04850  0.13420  0.48770  Biso   1.000  H
  H25      1.0000 0.42480  0.37580  0.96530  Biso   1.000  H
  H26      1.0000 0.07520  0.87580  0.53470  Biso   1.000  H
  H27      1.0000 0.57520  0.62420  0.03470  Biso   1.000  H
  H28      1.0000 0.92480  0.12420  0.46530  Biso   1.000  H
  C37      1.0000 0.16170  0.15680  0.89090  Biso   1.000  C
  C38      1.0000 0.33830  0.65680  0.60910  Biso   1.000  C
  C39      1.0000 0.83830  0.84320  0.10910  Biso   1.000  C
  C40      1.0000 0.66170  0.34320  0.39090  Biso   1.000  C
  H29      1.0000 0.20470  0.20940  0.90280  Biso   1.000  H
  H30      1.0000 0.29530  0.70940  0.59720  Biso   1.000  H
  H31      1.0000 0.79530  0.79060  0.09720  Biso   1.000  H
  H32      1.0000 0.70470  0.29060  0.40280  Biso   1.000  H
  H33      1.0000 0.19090  0.11560  0.85850  Biso   1.000  H
  H34      1.0000 0.30910  0.61560  0.64150  Biso   1.000  H
  H35      1.0000 0.80910  0.88440  0.14150  Biso   1.000  H
  H36      1.0000 0.69090  0.38440  0.35850  Biso   1.000  H
  C41      1.0000 0.04740  0.17670  0.82840  Biso   1.000  C
  C42      1.0000 0.45260  0.67670  0.67160  Biso   1.000  C
  C43      1.0000 0.95260  0.82330  0.17160  Biso   1.000  C
  C44      1.0000 0.54740  0.32330  0.32840  Biso   1.000  C
  H37      1.0000 0.04450  0.20650  0.77070  Biso   1.000  H
  H38      1.0000 0.45550  0.70650  0.72930  Biso   1.000  H
  H39      1.0000 0.95550  0.79350  0.22930  Biso   1.000  H
  H40      1.0000 0.54450  0.29350  0.27070  Biso   1.000  H
  H41      1.0000 0.00670  0.12310  0.80890  Biso   1.000  H
  H42      1.0000 0.49330  0.62310  0.69110  Biso   1.000  H
  H43      1.0000 0.99330  0.87690  0.19110  Biso   1.000  H
  H44      1.0000 0.50670  0.37690  0.30890  Biso   1.000  H
  C45      1.0000 0.12960  0.02850  0.97050  Biso   1.000  C
  C46      1.0000 0.37040  0.52850  0.52950  Biso   1.000  C
  C47      1.0000 0.87040  0.97150  0.02950  Biso   1.000  C
  C48      1.0000 0.62960  0.47150  0.47050  Biso   1.000  C
  H45      1.0000 0.05580  0.02660  0.92490  Biso   1.000  H
  H46      1.0000 0.44420  0.52660  0.57510  Biso   1.000  H
  H47      1.0000 0.94420  0.97340  0.07510  Biso   1.000  H
  H48      1.0000 0.55580  0.47340  0.42490  Biso   1.000  H
  H49      1.0000 0.13410  0.00510  0.03110  Biso   1.000  H
  H50      1.0000 0.36590  0.50510  0.46890  Biso   1.000  H
  H51      1.0000 0.86590  0.99490  0.96890  Biso   1.000  H
  H52      1.0000 0.63410  0.49490  0.53110  Biso   1.000  H
  H53      1.0000 0.17400  0.99480  0.94670  Biso   1.000  H
  H54      1.0000 0.32600  0.49480  0.55330  Biso   1.000  H
  H55      1.0000 0.82600  0.00520  0.05330  Biso   1.000  H
  H56      1.0000 0.67400  0.50520  0.44670  Biso   1.000  H
  C49      1.0000 0.28110  0.12110  0.05400  Biso   1.000  C
  C50      1.0000 0.21890  0.62110  0.44600  Biso   1.000  C
  C51      1.0000 0.71890  0.87890  0.94600  Biso   1.000  C
  C52      1.0000 0.78110  0.37890  0.55400  Biso   1.000  C
  H57      1.0000 0.28520  0.09950  0.11510  Biso   1.000  H
  H58      1.0000 0.21480  0.59950  0.38490  Biso   1.000  H
  H59      1.0000 0.71480  0.90050  0.88490  Biso   1.000  H
  H60      1.0000 0.78520  0.40050  0.61510  Biso   1.000  H
  H61      1.0000 0.30770  0.17960  0.06160  Biso   1.000  H
  H62      1.0000 0.19230  0.67960  0.43840  Biso   1.000  H
  H63      1.0000 0.69230  0.82040  0.93840  Biso   1.000  H
  H64      1.0000 0.80770  0.32040  0.56160  Biso   1.000  H
  H65      1.0000 0.32430  0.08540  0.03070  Biso   1.000  H
  H66      1.0000 0.17570  0.58540  0.46930  Biso   1.000  H
  H67      1.0000 0.67570  0.91460  0.96930  Biso   1.000  H
  H68      1.0000 0.82430  0.41460  0.53070  Biso   1.000  H
  C53      1.0000 0.87960  0.22330  0.83780  Biso   1.000  C
  C54      1.0000 0.62040  0.72330  0.66220  Biso   1.000  C
  C55      1.0000 0.12040  0.77670  0.16220  Biso   1.000  C
  C56      1.0000 0.37960  0.27670  0.33780  Biso   1.000  C
  H69      1.0000 0.85330  0.23850  0.77070  Biso   1.000  H
  H70      1.0000 0.64670  0.73850  0.72930  Biso   1.000  H
  H71      1.0000 0.14670  0.76150  0.22930  Biso   1.000  H
  H72      1.0000 0.35330  0.26150  0.27070  Biso   1.000  H
  H73      1.0000 0.84810  0.26130  0.87030  Biso   1.000  H
  H74      1.0000 0.65190  0.76130  0.62970  Biso   1.000  H
  H75      1.0000 0.15190  0.73870  0.12970  Biso   1.000  H
  H76      1.0000 0.34810  0.23870  0.37030  Biso   1.000  H
  H77      1.0000 0.85990  0.16440  0.84420  Biso   1.000  H
  H78      1.0000 0.64010  0.66440  0.65580  Biso   1.000  H
  H79      1.0000 0.14010  0.83560  0.15580  Biso   1.000  H
  H80      1.0000 0.35990  0.33560  0.34420  Biso   1.000  H
  C57      1.0000 0.02500  0.32380  0.87230  Biso   1.000  C
  C58      1.0000 0.47500  0.82380  0.62770  Biso   1.000  C
  C59      1.0000 0.97500  0.67620  0.12770  Biso   1.000  C
  C60      1.0000 0.52500  0.17620  0.37230  Biso   1.000  C
  H81      1.0000 0.10210  0.33030  0.89540  Biso   1.000  H
  H82      1.0000 0.39790  0.83030  0.60460  Biso   1.000  H
  H83      1.0000 0.89790  0.66970  0.10460  Biso   1.000  H
  H84      1.0000 0.60210  0.16970  0.39540  Biso   1.000  H
  H85      1.0000 0.99760  0.35950  0.90990  Biso   1.000  H
  H86      1.0000 0.50240  0.85950  0.59010  Biso   1.000  H
  H87      1.0000 0.00240  0.64050  0.09010  Biso   1.000  H
  H88      1.0000 0.49760  0.14050  0.40990  Biso   1.000  H
  H89      1.0000 0.99270  0.34120  0.80580  Biso   1.000  H
  H90      1.0000 0.50730  0.84120  0.69420  Biso   1.000  H
  H91      1.0000 0.00730  0.65880  0.19420  Biso   1.000  H
  H92      1.0000 0.49270  0.15880  0.30580  Biso   1.000  H
  C61      1.0000 0.87200  0.44760  0.19990  Biso   1.000  C
  C62      1.0000 0.62800  0.94760  0.30010  Biso   1.000  C
  C63      1.0000 0.12800  0.55240  0.80010  Biso   1.000  C
  C64      1.0000 0.37200  0.05240  0.69990  Biso   1.000  C
  H93      1.0000 0.85640  0.50820  0.18240  Biso   1.000  H
  H94      1.0000 0.64360  0.00820  0.31760  Biso   1.000  H
  H95      1.0000 0.14360  0.49180  0.81760  Biso   1.000  H
  H96      1.0000 0.35640  0.99180  0.68240  Biso   1.000  H
  H97      1.0000 0.81220  0.42420  0.21320  Biso   1.000  H
  H98      1.0000 0.68780  0.92420  0.28680  Biso   1.000  H
  H99      1.0000 0.18780  0.57580  0.78680  Biso   1.000  H
  H100     1.0000 0.31220  0.07580  0.71320  Biso   1.000  H
  C65      1.0000 0.96940  0.44190  0.28580  Biso   1.000  C
  C66      1.0000 0.53060  0.94190  0.21420  Biso   1.000  C
  C67      1.0000 0.03060  0.55810  0.71420  Biso   1.000  C
  C68      1.0000 0.46940  0.05810  0.78580  Biso   1.000  C
  H101     1.0000 0.95540  0.46450  0.34000  Biso   1.000  H
  H102     1.0000 0.54460  0.96450  0.16000  Biso   1.000  H
  H103     1.0000 0.04460  0.53550  0.66000  Biso   1.000  H
  H104     1.0000 0.45540  0.03550  0.84000  Biso   1.000  H
  H105     1.0000 0.02490  0.47770  0.27800  Biso   1.000  H
  H106     1.0000 0.47510  0.97770  0.22200  Biso   1.000  H
  H107     1.0000 0.97510  0.52230  0.72200  Biso   1.000  H
  H108     1.0000 0.52490  0.02230  0.77800  Biso   1.000  H
  C69      1.0000 0.77250  0.37160  0.05330  Biso   1.000  C
  C70      1.0000 0.72750  0.87160  0.44670  Biso   1.000  C
  C71      1.0000 0.22750  0.62840  0.94670  Biso   1.000  C
  C72      1.0000 0.27250  0.12840  0.55330  Biso   1.000  C
  H109     1.0000 0.74320  0.33310  0.08720  Biso   1.000  H
  H110     1.0000 0.75680  0.83310  0.41280  Biso   1.000  H
  H111     1.0000 0.25680  0.66690  0.91280  Biso   1.000  H
  H112     1.0000 0.24320  0.16690  0.58720  Biso   1.000  H
  H113     1.0000 0.77830  0.34150  0.99970  Biso   1.000  H
  H114     1.0000 0.72170  0.84150  0.50030  Biso   1.000  H
  H115     1.0000 0.22170  0.65850  0.00030  Biso   1.000  H
  H116     1.0000 0.27830  0.15850  0.49970  Biso   1.000  H
  H117     1.0000 0.72550  0.42070  0.03020  Biso   1.000  H
  H118     1.0000 0.77450  0.92070  0.46980  Biso   1.000  H
  H119     1.0000 0.27450  0.57930  0.96980  Biso   1.000  H
  H120     1.0000 0.22550  0.07930  0.53020  Biso   1.000  H
  C73      1.0000 0.91880  0.45770  0.06100  Biso   1.000  C
  C74      1.0000 0.58120  0.95770  0.43900  Biso   1.000  C
  C75      1.0000 0.08120  0.54230  0.93900  Biso   1.000  C
  C76      1.0000 0.41880  0.04230  0.56100  Biso   1.000  C
  H121     1.0000 0.86790  0.50390  0.03410  Biso   1.000  H
  H122     1.0000 0.63210  0.00390  0.46590  Biso   1.000  H
  H123     1.0000 0.13210  0.49610  0.96590  Biso   1.000  H
  H124     1.0000 0.36790  0.99610  0.53410  Biso   1.000  H
  H125     1.0000 0.92620  0.42480  0.00970  Biso   1.000  H
  H126     1.0000 0.57380  0.92480  0.49030  Biso   1.000  H
  H127     1.0000 0.07380  0.57520  0.99030  Biso   1.000  H
  H128     1.0000 0.42620  0.07520  0.50970  Biso   1.000  H
  H129     1.0000 0.98780  0.48170  0.10120  Biso   1.000  H
  H130     1.0000 0.51220  0.98170  0.39880  Biso   1.000  H
  H131     1.0000 0.01220  0.51830  0.89880  Biso   1.000  H
  H132     1.0000 0.48780  0.01830  0.60120  Biso   1.000  H
  C77      1.0000 0.12310  0.35530  0.37540  Biso   1.000  C
  C78      1.0000 0.37690  0.85530  0.12460  Biso   1.000  C
  C79      1.0000 0.87690  0.64470  0.62460  Biso   1.000  C
  C80      1.0000 0.62310  0.14470  0.87540  Biso   1.000  C
  H133     1.0000 0.12790  0.38440  0.43330  Biso   1.000  H
  H134     1.0000 0.37210  0.88440  0.06670  Biso   1.000  H
  H135     1.0000 0.87210  0.61560  0.56670  Biso   1.000  H
  H136     1.0000 0.62790  0.11560  0.93330  Biso   1.000  H
  H137     1.0000 0.16520  0.38610  0.34670  Biso   1.000  H
  H138     1.0000 0.33480  0.88610  0.15330  Biso   1.000  H
  H139     1.0000 0.83480  0.61390  0.65330  Biso   1.000  H
  H140     1.0000 0.66520  0.11390  0.84670  Biso   1.000  H
  H141     1.0000 0.15040  0.29720  0.39070  Biso   1.000  H
  H142     1.0000 0.34960  0.79720  0.10930  Biso   1.000  H
  H143     1.0000 0.84960  0.70280  0.60930  Biso   1.000  H
  H144     1.0000 0.65040  0.20280  0.89070  Biso   1.000  H
  C81      1.0000 0.94790  0.30180  0.35060  Biso   1.000  C
  C82      1.0000 0.55210  0.80180  0.14940  Biso   1.000  C
  C83      1.0000 0.05210  0.69820  0.64940  Biso   1.000  C
  C84      1.0000 0.44790  0.19820  0.85060  Biso   1.000  C
  H145     1.0000 0.97810  0.24470  0.36580  Biso   1.000  H
  H146     1.0000 0.52190  0.74470  0.13420  Biso   1.000  H
  H147     1.0000 0.02190  0.75530  0.63420  Biso   1.000  H
  H148     1.0000 0.47810  0.25530  0.86580  Biso   1.000  H
  H149     1.0000 0.87380  0.29780  0.30590  Biso   1.000  H
  H150     1.0000 0.62620  0.79780  0.19410  Biso   1.000  H
  H151     1.0000 0.12620  0.70220  0.69410  Biso   1.000  H
  H152     1.0000 0.37380  0.20220  0.80590  Biso   1.000  H
  H153     1.0000 0.95100  0.33000  0.40860  Biso   1.000  H
  H154     1.0000 0.54900  0.83000  0.09140  Biso   1.000  H
  H155     1.0000 0.04900  0.67000  0.59140  Biso   1.000  H
  H156     1.0000 0.45100  0.17000  0.90860  Biso   1.000  H
  Cl1      1.0000 0.71628  0.13963  0.17601  Biso   1.000  Cl
  Cl2      1.0000 0.78372  0.63963  0.32399  Biso   1.000  Cl
  Cl3      1.0000 0.28372  0.86037  0.82399  Biso   1.000  Cl
  Cl4      1.0000 0.21628  0.36037  0.67601  Biso   1.000  Cl
  O25      1.0000 0.75210  0.15180  0.27490  Biso   1.000  O
  O26      1.0000 0.74790  0.65180  0.22510  Biso   1.000  O
  O27      1.0000 0.24790  0.84820  0.72510  Biso   1.000  O
  O28      1.0000 0.25210  0.34820  0.77490  Biso   1.000  O
  O29      1.0000 0.71920  0.04980  0.15760  Biso   1.000  O
  O30      1.0000 0.78080  0.54980  0.34240  Biso   1.000  O
  O31      1.0000 0.28080  0.95020  0.84240  Biso   1.000  O
  O32      1.0000 0.21920  0.45020  0.65760  Biso   1.000  O
  O33      1.0000 0.60790  0.16390  0.13440  Biso   1.000  O
  O34      1.0000 0.89210  0.66390  0.36560  Biso   1.000  O
  O35      1.0000 0.39210  0.83610  0.86560  Biso   1.000  O
  O36      1.0000 0.10790  0.33610  0.63440  Biso   1.000  O
  O37      1.0000 0.77750  0.18470  0.13700  Biso   1.000  O
  O38      1.0000 0.72250  0.68470  0.36300  Biso   1.000  O
  O39      1.0000 0.22250  0.81530  0.86300  Biso   1.000  O
  O40      1.0000 0.27750  0.31530  0.63700  Biso   1.000  O
  O41      1.0000 0.76770  0.10480  0.26710  Biso   1.000  O
  O42      1.0000 0.73230  0.60480  0.23290  Biso   1.000  O
  O43      1.0000 0.23230  0.89520  0.73290  Biso   1.000  O
  O44      1.0000 0.26770  0.39520  0.76710  Biso   1.000  O
  O45      1.0000 0.63890  0.08650  0.11480  Biso   1.000  O
  O46      1.0000 0.86110  0.58650  0.38520  Biso   1.000  O
  O47      1.0000 0.36110  0.91350  0.88520  Biso   1.000  O
  O48      1.0000 0.13890  0.41350  0.61480  Biso   1.000  O
  O49      1.0000 0.67090  0.21930  0.18530  Biso   1.000  O
  O50      1.0000 0.82910  0.71930  0.31470  Biso   1.000  O
  O51      1.0000 0.32910  0.78070  0.81470  Biso   1.000  O
  O52      1.0000 0.17090  0.28070  0.68530  Biso   1.000  O
  O53      1.0000 0.79610  0.15850  0.13860  Biso   1.000  O
  O54      1.0000 0.70390  0.65850  0.36140  Biso   1.000  O
  O55      1.0000 0.20390  0.84150  0.86140  Biso   1.000  O
  O56      1.0000 0.29610  0.34150  0.63860  Biso   1.000  O
