data_image0
_cell_length_a       10.6851
_cell_length_b       11.4951
_cell_length_c       14.6721
_cell_angle_alpha    66.984
_cell_angle_beta     87.59
_cell_angle_gamma    68.951

_symmetry_space_group_name_H-M    "P 1"
_symmetry_int_tables_number       1

loop_
  _symmetry_equiv_pos_as_xyz
  'x, y, z'

loop_
  _atom_site_label
  _atom_site_occupancy
  _atom_site_fract_x
  _atom_site_fract_y
  _atom_site_fract_z
  _atom_site_thermal_displace_type
  _atom_site_B_iso_or_equiv
  _atom_site_type_symbol
  Cu1      1.0000 0.50505  0.73376  0.51223  Biso   1.000  Cu
  Cu2      1.0000 0.49495  0.26624  0.48777  Biso   1.000  Cu
  O1       1.0000 0.68384  0.73337  0.52541  Biso   1.000  O
  O2       1.0000 0.31616  0.26663  0.47459  Biso   1.000  O
  O3       1.0000 0.71964  0.70280  0.38582  Biso   1.000  O
  O4       1.0000 0.28036  0.29720  0.61418  Biso   1.000  O
  O5       1.0000 0.32539  0.73438  0.50490  Biso   1.000  O
  O6       1.0000 0.67461  0.26562  0.49510  Biso   1.000  O
  O7       1.0000 0.28534  0.78670  0.63669  Biso   1.000  O
  O8       1.0000 0.71466  0.21330  0.36331  Biso   1.000  O
  N1       1.0000 0.57470  0.53390  0.60980  Biso   1.000  N
  N2       1.0000 0.42530  0.46610  0.39020  Biso   1.000  N
  N3       1.0000 0.43670  0.93030  0.40893  Biso   1.000  N
  N4       1.0000 0.56330  0.06970  0.59107  Biso   1.000  N
  N5       1.0000 0.43840  0.64080  0.04644  Biso   1.000  N
  N6       1.0000 0.56160  0.35920  0.95356  Biso   1.000  N
  H1       1.0000 0.47300  0.70700  0.01400  Biso   1.000  H
  H2       1.0000 0.52700  0.29300  0.98600  Biso   1.000  H
  N7       1.0000 0.70920  0.13100  0.82410  Biso   1.000  N
  N8       1.0000 0.29080  0.86900  0.17590  Biso   1.000  N
  H3       1.0000 0.79200  0.10500  0.84900  Biso   1.000  H
  H4       1.0000 0.20800  0.89500  0.15100  Biso   1.000  H
  N9       1.0000 0.29430  0.33220  0.19064  Biso   1.000  N
  N10      1.0000 0.70570  0.66780  0.80936  Biso   1.000  N
  H5       1.0000 0.21400  0.35300  0.16300  Biso   1.000  H
  H6       1.0000 0.78600  0.64700  0.83700  Biso   1.000  H
  N11      1.0000 0.54460  0.83280  0.95684  Biso   1.000  N
  N12      1.0000 0.45540  0.16720  0.04316  Biso   1.000  N
  C1       1.0000 0.31210  0.99430  0.35881  Biso   1.000  C
  C2       1.0000 0.68790  0.00570  0.64119  Biso   1.000  C
  H7       1.0000 0.25360  0.94530  0.37290  Biso   1.000  H
  H8       1.0000 0.74640  0.05470  0.62710  Biso   1.000  H
  C3       1.0000 0.96890  0.62280  0.57790  Biso   1.000  C
  C4       1.0000 0.03110  0.37720  0.42210  Biso   1.000  C
  H9       1.0000 0.97380  0.52870  0.59620  Biso   1.000  H
  H10      1.0000 0.02620  0.47130  0.40380  Biso   1.000  H
  H11      1.0000 0.91510  0.65800  0.62460  Biso   1.000  H
  H12      1.0000 0.08490  0.34200  0.37540  Biso   1.000  H
  C5       1.0000 0.03750  0.85610  0.45024  Biso   1.000  C
  C6       1.0000 0.96250  0.14390  0.54976  Biso   1.000  C
  H13      1.0000 0.03230  0.95040  0.43200  Biso   1.000  H
  H14      1.0000 0.96770  0.04960  0.56800  Biso   1.000  H
  H15      1.0000 0.09170  0.82120  0.40360  Biso   1.000  H
  H16      1.0000 0.90830  0.17880  0.59640  Biso   1.000  H
  C7       1.0000 0.10680  0.76700  0.55667  Biso   1.000  C
  C8       1.0000 0.89320  0.23300  0.44333  Biso   1.000  C
  H17      1.0000 0.05200  0.80550  0.60230  Biso   1.000  H
  H18      1.0000 0.94800  0.19450  0.39770  Biso   1.000  H
  C9       1.0000 0.51430  0.00470  0.38540  Biso   1.000  C
  C10      1.0000 0.48570  0.99530  0.61460  Biso   1.000  C
  H19      1.0000 0.60230  0.96370  0.42030  Biso   1.000  H
  H20      1.0000 0.39770  0.03630  0.57970  Biso   1.000  H
  C11      1.0000 0.69490  0.47170  0.66640  Biso   1.000  C
  C12      1.0000 0.30510  0.52830  0.33360  Biso   1.000  C
  H21      1.0000 0.75130  0.52210  0.65750  Biso   1.000  H
  H22      1.0000 0.24870  0.47790  0.34250  Biso   1.000  H
  C13      1.0000 0.24850  0.76400  0.56870  Biso   1.000  C
  C14      1.0000 0.75150  0.23600  0.43130  Biso   1.000  C
  C15      1.0000 0.90000  0.71160  0.47190  Biso   1.000  C
  C16      1.0000 0.10000  0.28840  0.52810  Biso   1.000  C
  H23      1.0000 0.95530  0.67270  0.42660  Biso   1.000  H
  H24      1.0000 0.04470  0.32730  0.57340  Biso   1.000  H
  C17      1.0000 0.75860  0.71440  0.45850  Biso   1.000  C
  C18      1.0000 0.24140  0.28560  0.54150  Biso   1.000  C
  C19      1.0000 0.11130  0.62180  0.58710  Biso   1.000  C
  C20      1.0000 0.88870  0.37820  0.41290  Biso   1.000  C
  H25      1.0000 0.16700  0.58080  0.54390  Biso   1.000  H
  H26      1.0000 0.83300  0.41920  0.45610  Biso   1.000  H
  H27      1.0000 0.15350  0.56550  0.65690  Biso   1.000  H
  H28      1.0000 0.84650  0.43450  0.34310  Biso   1.000  H
  C21      1.0000 0.26470  0.12520  0.28890  Biso   1.000  C
  C22      1.0000 0.73530  0.87480  0.71110  Biso   1.000  C
  H29      1.0000 0.17480  0.16500  0.25720  Biso   1.000  H
  H30      1.0000 0.82520  0.83500  0.74280  Biso   1.000  H
  C23      1.0000 0.50050  0.45670  0.62334  Biso   1.000  C
  C24      1.0000 0.49950  0.54330  0.37666  Biso   1.000  C
  H31      1.0000 0.41630  0.49690  0.58320  Biso   1.000  H
  H32      1.0000 0.58370  0.50310  0.41680  Biso   1.000  H
  C25      1.0000 0.89590  0.85680  0.44050  Biso   1.000  C
  C26      1.0000 0.10410  0.14320  0.55950  Biso   1.000  C
  H33      1.0000 0.85450  0.91220  0.37050  Biso   1.000  H
  H34      1.0000 0.14550  0.08780  0.62950  Biso   1.000  H
  H35      1.0000 0.83950  0.89880  0.48300  Biso   1.000  H
  H36      1.0000 0.16050  0.10120  0.51700  Biso   1.000  H
  C27      1.0000 0.46450  0.96100  0.89960  Biso   1.000  C
  C28      1.0000 0.53550  0.03900  0.10040  Biso   1.000  C
  H37      1.0000 0.37040  0.98130  0.88990  Biso   1.000  H
  H38      1.0000 0.62960  0.01870  0.11010  Biso   1.000  H
  C29      1.0000 0.51090  0.06460  0.85430  Biso   1.000  C
  C30      1.0000 0.48910  0.93540  0.14570  Biso   1.000  C
  H39      1.0000 0.44970  0.15400  0.81500  Biso   1.000  H
  H40      1.0000 0.55030  0.84600  0.18500  Biso   1.000  H
  C31      1.0000 0.74020  0.34020  0.73580  Biso   1.000  C
  C32      1.0000 0.25980  0.65980  0.26420  Biso   1.000  C
  H41      1.0000 0.82630  0.30150  0.77310  Biso   1.000  H
  H42      1.0000 0.17370  0.69850  0.22690  Biso   1.000  H
  C33      1.0000 0.47640  0.13570  0.31470  Biso   1.000  C
  C34      1.0000 0.52360  0.86430  0.68530  Biso   1.000  C
  H43      1.0000 0.53810  0.18120  0.30080  Biso   1.000  H
  H44      1.0000 0.46190  0.81880  0.69920  Biso   1.000  H
  C35      1.0000 0.64780  0.03800  0.86630  Biso   1.000  C
  C36      1.0000 0.35220  0.96200  0.13370  Biso   1.000  C
  C37      1.0000 0.34940  0.42970  0.14522  Biso   1.000  C
  C38      1.0000 0.65060  0.57030  0.85478  Biso   1.000  C
  C39      1.0000 0.47580  0.42300  0.17390  Biso   1.000  C
  C40      1.0000 0.52420  0.57700  0.82610  Biso   1.000  C
  H45      1.0000 0.53350  0.34520  0.22820  Biso   1.000  H
  H46      1.0000 0.46650  0.65480  0.77180  Biso   1.000  H
  C41      1.0000 0.34740  0.20140  0.26356  Biso   1.000  C
  C42      1.0000 0.65260  0.79860  0.73644  Biso   1.000  C
  C43      1.0000 0.65970  0.26190  0.75200  Biso   1.000  C
  C44      1.0000 0.34030  0.73810  0.24800  Biso   1.000  C
  C45      1.0000 0.53760  0.32420  0.69079  Biso   1.000  C
  C46      1.0000 0.46240  0.67580  0.30921  Biso   1.000  C
  H47      1.0000 0.48070  0.27510  0.69590  Biso   1.000  H
  H48      1.0000 0.51930  0.72490  0.30410  Biso   1.000  H
  C47      1.0000 0.51550  0.52950  0.12320  Biso   1.000  C
  C48      1.0000 0.48450  0.47050  0.87680  Biso   1.000  C
  H49      1.0000 0.60140  0.52410  0.14340  Biso   1.000  H
  H50      1.0000 0.39860  0.47590  0.85660  Biso   1.000  H
  C49      1.0000 0.73170  0.90420  0.92860  Biso   1.000  C
  C50      1.0000 0.26830  0.09580  0.07140  Biso   1.000  C
  H51      1.0000 0.82590  0.88130  0.94080  Biso   1.000  H
  H52      1.0000 0.17410  0.11870  0.05920  Biso   1.000  H
  C51      1.0000 0.67640  0.80740  0.97150  Biso   1.000  C
  C52      1.0000 0.32360  0.19260  0.02850  Biso   1.000  C
  H53      1.0000 0.73430  0.71790  0.01380  Biso   1.000  H
  H54      1.0000 0.26570  0.28210  0.98620  Biso   1.000  H
  C53      1.0000 0.31750  0.64960  0.01740  Biso   1.000  C
  C54      1.0000 0.68250  0.35040  0.98260  Biso   1.000  C
  H55      1.0000 0.26280  0.72880  0.96260  Biso   1.000  H
  H56      1.0000 0.73720  0.27120  0.03740  Biso   1.000  H
  C55      1.0000 0.27020  0.54740  0.06450  Biso   1.000  C
  C56      1.0000 0.72980  0.45260  0.93550  Biso   1.000  C
  H57      1.0000 0.18360  0.55650  0.04230  Biso   1.000  H
  H58      1.0000 0.81640  0.44350  0.95770  Biso   1.000  H
  O9       1.0000 0.12200  0.82700  0.78330  Biso   1.000  O
  O10      1.0000 0.87800  0.17300  0.21670  Biso   1.000  O
  H59      1.0000 0.16800  0.81800  0.73800  Biso   1.000  H
  H60      1.0000 0.83200  0.18200  0.26200  Biso   1.000  H
  H61      1.0000 0.10200  0.76000  0.81600  Biso   1.000  H
  H62      1.0000 0.89800  0.24000  0.18400  Biso   1.000  H
  O11      1.0000 0.85010  0.76870  0.21510  Biso   1.000  O
  O12      1.0000 0.14990  0.23130  0.78490  Biso   1.000  O
  H63      1.0000 0.88900  0.70600  0.19700  Biso   1.000  H
  H64      1.0000 0.11100  0.29400  0.80300  Biso   1.000  H
  H65      1.0000 0.79400  0.74600  0.25300  Biso   1.000  H
  H66      1.0000 0.20600  0.25400  0.74700  Biso   1.000  H
  O13      1.0000 0.82270  0.49110  0.14680  Biso   1.000  O
  O14      1.0000 0.17730  0.50890  0.85320  Biso   1.000  O
  O15      1.0000 0.02170  0.37420  0.12498  Biso   1.000  O
  O16      1.0000 0.97830  0.62580  0.87502  Biso   1.000  O
  O17      1.0000 0.98840  0.55460  0.15050  Biso   1.000  O
  O18      1.0000 0.01160  0.44540  0.84950  Biso   1.000  O
  N13      1.0000 0.94310  0.47400  0.14068  Biso   1.000  N
  N14      1.0000 0.05690  0.52600  0.85932  Biso   1.000  N
  O19      1.0000 0.01280  0.03650  0.84010  Biso   1.000  O
  O20      1.0000 0.98720  0.96350  0.15990  Biso   1.000  O
  O21      1.0000 0.15080  0.99940  0.86240  Biso   1.000  O
  O22      1.0000 0.84920  0.00060  0.13760  Biso   1.000  O
  O23      1.0000 0.92830  0.06610  0.95350  Biso   1.000  O
  O24      1.0000 0.07170  0.93390  0.04650  Biso   1.000  O
