data_image0
_cell_length_a       7.6288
_cell_length_b       9.5197
_cell_length_c       10.9327
_cell_angle_alpha    99.444
_cell_angle_beta     96.588
_cell_angle_gamma    93.515

_symmetry_space_group_name_H-M    "P 1"
_symmetry_int_tables_number       1

loop_
  _symmetry_equiv_pos_as_xyz
  'x, y, z'

loop_
  _atom_site_label
  _atom_site_occupancy
  _atom_site_fract_x
  _atom_site_fract_y
  _atom_site_fract_z
  _atom_site_thermal_displace_type
  _atom_site_B_iso_or_equiv
  _atom_site_type_symbol
  Cu1      1.0000 0.73422  0.79629  0.93584  Biso   1.000  Cu
  Cu2      1.0000 0.26578  0.20371  0.06416  Biso   1.000  Cu
  S1       1.0000 0.83536  0.65072  0.17659  Biso   1.000  S
  S2       1.0000 0.16464  0.34928  0.82341  Biso   1.000  S
  C1       1.0000 0.07890  0.45260  0.14020  Biso   1.000  C
  C2       1.0000 0.92110  0.54740  0.85980  Biso   1.000  C
  H1       1.0000 0.98670  0.39770  0.08720  Biso   1.000  H
  H2       1.0000 0.01330  0.60230  0.91280  Biso   1.000  H
  C3       1.0000 0.04730  0.58480  0.20260  Biso   1.000  C
  C4       1.0000 0.95270  0.41520  0.79740  Biso   1.000  C
  C5       1.0000 0.18350  0.66560  0.28490  Biso   1.000  C
  C6       1.0000 0.81650  0.33440  0.71510  Biso   1.000  C
  H3       1.0000 0.16460  0.75350  0.33080  Biso   1.000  H
  H4       1.0000 0.83540  0.24650  0.66920  Biso   1.000  H
  C7       1.0000 0.34720  0.61180  0.29660  Biso   1.000  C
  C8       1.0000 0.65280  0.38820  0.70340  Biso   1.000  C
  H5       1.0000 0.44150  0.66410  0.34940  Biso   1.000  H
  H6       1.0000 0.55850  0.33590  0.65060  Biso   1.000  H
  C9       1.0000 0.37020  0.47980  0.22920  Biso   1.000  C
  C10      1.0000 0.62980  0.52020  0.77080  Biso   1.000  C
  H7       1.0000 0.48140  0.44480  0.23710  Biso   1.000  H
  H8       1.0000 0.51860  0.55520  0.76290  Biso   1.000  H
  C11      1.0000 0.94480  0.91090  0.16830  Biso   1.000  C
  C12      1.0000 0.05520  0.08910  0.83170  Biso   1.000  C
  H9       1.0000 0.07140  0.91200  0.16500  Biso   1.000  H
  H10      1.0000 0.92860  0.08800  0.83500  Biso   1.000  H
  H11      1.0000 0.92480  0.92230  0.25530  Biso   1.000  H
  H12      1.0000 0.07520  0.07770  0.74470  Biso   1.000  H
  C13      1.0000 0.87180  0.03290  0.11050  Biso   1.000  C
  C14      1.0000 0.12820  0.96710  0.88950  Biso   1.000  C
  C15      1.0000 0.70660  0.81850  0.66460  Biso   1.000  C
  C16      1.0000 0.29340  0.18150  0.33540  Biso   1.000  C
  H13      1.0000 0.78930  0.75060  0.66180  Biso   1.000  H
  H14      1.0000 0.21070  0.24940  0.33820  Biso   1.000  H
  C17      1.0000 0.65490  0.86920  0.55790  Biso   1.000  C
  C18      1.0000 0.34510  0.13080  0.44210  Biso   1.000  C
  H15      1.0000 0.70240  0.83600  0.48490  Biso   1.000  H
  H16      1.0000 0.29760  0.16400  0.51510  Biso   1.000  H
  C19      1.0000 0.52990  0.97140  0.55790  Biso   1.000  C
  C20      1.0000 0.47010  0.02860  0.44210  Biso   1.000  C
  C21      1.0000 0.46850  0.01560  0.67000  Biso   1.000  C
  C22      1.0000 0.53150  0.98440  0.33000  Biso   1.000  C
  H17      1.0000 0.38610  0.08370  0.67540  Biso   1.000  H
  H18      1.0000 0.61390  0.91630  0.32460  Biso   1.000  H
  C23      1.0000 0.52750  0.96050  0.77360  Biso   1.000  C
  C24      1.0000 0.47250  0.03950  0.22640  Biso   1.000  C
  H19      1.0000 0.48390  0.99360  0.84810  Biso   1.000  H
  H20      1.0000 0.51610  0.00640  0.15190  Biso   1.000  H
  N1       1.0000 0.64520  0.86110  0.77350  Biso   1.000  N
  N2       1.0000 0.35480  0.13890  0.22650  Biso   1.000  N
  N3       1.0000 0.85720  0.77390  0.09990  Biso   1.000  N
  N4       1.0000 0.14280  0.22610  0.90010  Biso   1.000  N
  N5       1.0000 0.23850  0.40060  0.15330  Biso   1.000  N
  N6       1.0000 0.76150  0.59940  0.84670  Biso   1.000  N
  O1       1.0000 0.44730  0.74950  0.97990  Biso   1.000  O
  O2       1.0000 0.55270  0.25050  0.02010  Biso   1.000  O
  H21      1.0000 0.39830  0.66480  0.96280  Biso   1.000  H
  H22      1.0000 0.60170  0.33520  0.03720  Biso   1.000  H
  H23      1.0000 0.37720  0.80420  0.94890  Biso   1.000  H
  H24      1.0000 0.62280  0.19580  0.05110  Biso   1.000  H
  O3       1.0000 0.75940  0.99930  0.01160  Biso   1.000  O
  O4       1.0000 0.24060  0.00070  0.98840  Biso   1.000  O
  O5       1.0000 0.92230  0.15750  0.15830  Biso   1.000  O
  O6       1.0000 0.07770  0.84250  0.84170  Biso   1.000  O
  O7       1.0000 0.72330  0.53500  0.10040  Biso   1.000  O
  O8       1.0000 0.27670  0.46500  0.89960  Biso   1.000  O
  O9       1.0000 0.79020  0.69930  0.30030  Biso   1.000  O
  O10      1.0000 0.20980  0.30070  0.69970  Biso   1.000  O
  C25      1.0000 0.65700  0.47900  0.44780  Biso   1.000  C
  C26      1.0000 0.34300  0.52100  0.55220  Biso   1.000  C
  O11      1.0000 0.86600  0.54600  0.48800  Biso   1.000  O
  O12      1.0000 0.13400  0.45400  0.51200  Biso   1.000  O
  H25      1.0000 0.90900  0.56000  0.42500  Biso   1.000  H
  H26      1.0000 0.09100  0.44000  0.57500  Biso   1.000  H
  H27      1.0000 0.65400  0.38800  0.39400  Biso   1.000  H
  H28      1.0000 0.34600  0.61200  0.60600  Biso   1.000  H
  H29      1.0000 0.60600  0.46600  0.52200  Biso   1.000  H
  H30      1.0000 0.39400  0.53400  0.47800  Biso   1.000  H
  H31      1.0000 0.59200  0.54300  0.40500  Biso   1.000  H
  H32      1.0000 0.40800  0.45700  0.59500  Biso   1.000  H
  O13      1.0000 0.87450  0.25600  0.41610  Biso   1.000  O
  O14      1.0000 0.12550  0.74400  0.58390  Biso   1.000  O
  H33      1.0000 0.88370  0.25420  0.33910  Biso   1.000  H
  H34      1.0000 0.11630  0.74580  0.66090  Biso   1.000  H
  H35      1.0000 0.77770  0.20990  0.42180  Biso   1.000  H
  H36      1.0000 0.22230  0.79010  0.57820  Biso   1.000  H
