data_image0
_cell_length_a       13.976
_cell_length_b       7.9398
_cell_length_c       7.8687
_cell_angle_alpha    90
_cell_angle_beta     101.15
_cell_angle_gamma    90

_symmetry_space_group_name_H-M    "P 1"
_symmetry_int_tables_number       1

loop_
  _symmetry_equiv_pos_as_xyz
  'x, y, z'

loop_
  _atom_site_label
  _atom_site_occupancy
  _atom_site_fract_x
  _atom_site_fract_y
  _atom_site_fract_z
  _atom_site_thermal_displace_type
  _atom_site_B_iso_or_equiv
  _atom_site_type_symbol
  Cu1      1.0000 0.95998  0.54264  0.17193  Biso   1.000  Cu
  Cu2      1.0000 0.04002  0.04264  0.32807  Biso   1.000  Cu
  Cu3      1.0000 0.04002  0.45736  0.82807  Biso   1.000  Cu
  Cu4      1.0000 0.95998  0.95736  0.67193  Biso   1.000  Cu
  P1       1.0000 0.92434  0.18860  0.99950  Biso   1.000  P
  P2       1.0000 0.07566  0.68860  0.50050  Biso   1.000  P
  P3       1.0000 0.07566  0.81140  0.00050  Biso   1.000  P
  P4       1.0000 0.92434  0.31140  0.49950  Biso   1.000  P
  N1       1.0000 0.82980  0.48040  0.02160  Biso   1.000  N
  N2       1.0000 0.17020  0.98040  0.47840  Biso   1.000  N
  N3       1.0000 0.17020  0.51960  0.97840  Biso   1.000  N
  N4       1.0000 0.82980  0.01960  0.52160  Biso   1.000  N
  O1       1.0000 0.00930  0.31100  0.01230  Biso   1.000  O
  O2       1.0000 0.99070  0.81100  0.48770  Biso   1.000  O
  O3       1.0000 0.99070  0.68900  0.98770  Biso   1.000  O
  O4       1.0000 0.00930  0.18900  0.51230  Biso   1.000  O
  O5       1.0000 0.90870  0.06610  0.85240  Biso   1.000  O
  O6       1.0000 0.09130  0.56610  0.64760  Biso   1.000  O
  O7       1.0000 0.09130  0.93390  0.14760  Biso   1.000  O
  O8       1.0000 0.90870  0.43390  0.35240  Biso   1.000  O
  O9       1.0000 0.92180  0.10540  0.17200  Biso   1.000  O
  O10      1.0000 0.07820  0.60540  0.32800  Biso   1.000  O
  O11      1.0000 0.07820  0.89460  0.82800  Biso   1.000  O
  O12      1.0000 0.92180  0.39460  0.67200  Biso   1.000  O
  C1       1.0000 0.81710  0.32420  0.96290  Biso   1.000  C
  C2       1.0000 0.18290  0.82420  0.53710  Biso   1.000  C
  C3       1.0000 0.18290  0.67580  0.03710  Biso   1.000  C
  C4       1.0000 0.81710  0.17580  0.46290  Biso   1.000  C
  C5       1.0000 0.72540  0.26490  0.88330  Biso   1.000  C
  C6       1.0000 0.27460  0.76490  0.61670  Biso   1.000  C
  C7       1.0000 0.27460  0.73510  0.11670  Biso   1.000  C
  C8       1.0000 0.72540  0.23510  0.38330  Biso   1.000  C
  H1       1.0000 0.71880  0.15670  0.83710  Biso   1.000  H
  H2       1.0000 0.28120  0.65670  0.66290  Biso   1.000  H
  H3       1.0000 0.28120  0.84330  0.16290  Biso   1.000  H
  H4       1.0000 0.71880  0.34330  0.33710  Biso   1.000  H
  C9       1.0000 0.64650  0.36460  0.87340  Biso   1.000  C
  C10      1.0000 0.35350  0.86460  0.62660  Biso   1.000  C
  C11      1.0000 0.35350  0.63540  0.12660  Biso   1.000  C
  C12      1.0000 0.64650  0.13540  0.37340  Biso   1.000  C
  H5       1.0000 0.58480  0.32330  0.82620  Biso   1.000  H
  H6       1.0000 0.41520  0.82330  0.67380  Biso   1.000  H
  H7       1.0000 0.41520  0.67670  0.17380  Biso   1.000  H
  H8       1.0000 0.58480  0.17670  0.32620  Biso   1.000  H
  C13      1.0000 0.65770  0.53120  0.93470  Biso   1.000  C
  C14      1.0000 0.34230  0.03120  0.56530  Biso   1.000  C
  C15      1.0000 0.34230  0.46880  0.06530  Biso   1.000  C
  C16      1.0000 0.65770  0.96880  0.43470  Biso   1.000  C
  C17      1.0000 0.57980  0.64640  0.92060  Biso   1.000  C
  C18      1.0000 0.42020  0.14640  0.57940  Biso   1.000  C
  C19      1.0000 0.42020  0.35360  0.07940  Biso   1.000  C
  C20      1.0000 0.57980  0.85360  0.42060  Biso   1.000  C
  H9       1.0000 0.51650  0.61220  0.87390  Biso   1.000  H
  H10      1.0000 0.48350  0.11220  0.62610  Biso   1.000  H
  H11      1.0000 0.48350  0.38780  0.12610  Biso   1.000  H
  H12      1.0000 0.51650  0.88780  0.37390  Biso   1.000  H
  C21      1.0000 0.59780  0.80920  0.97620  Biso   1.000  C
  C22      1.0000 0.40220  0.30920  0.52380  Biso   1.000  C
  C23      1.0000 0.40220  0.19080  0.02380  Biso   1.000  C
  C24      1.0000 0.59780  0.69080  0.47620  Biso   1.000  C
  H13      1.0000 0.54650  0.88540  0.96720  Biso   1.000  H
  H14      1.0000 0.45350  0.38540  0.53280  Biso   1.000  H
  H15      1.0000 0.45350  0.11460  0.03280  Biso   1.000  H
  H16      1.0000 0.54650  0.61460  0.46720  Biso   1.000  H
  C25      1.0000 0.69120  0.85980  0.04500  Biso   1.000  C
  C26      1.0000 0.30880  0.35980  0.45500  Biso   1.000  C
  C27      1.0000 0.30880  0.14020  0.95500  Biso   1.000  C
  C28      1.0000 0.69120  0.64020  0.54500  Biso   1.000  C
  H17      1.0000 0.70190  0.97080  0.08150  Biso   1.000  H
  H18      1.0000 0.29810  0.47080  0.41850  Biso   1.000  H
  H19      1.0000 0.29810  0.02920  0.91850  Biso   1.000  H
  H20      1.0000 0.70190  0.52920  0.58150  Biso   1.000  H
  C29      1.0000 0.76780  0.75410  0.06130  Biso   1.000  C
  C30      1.0000 0.23220  0.25410  0.43870  Biso   1.000  C
  C31      1.0000 0.23220  0.24590  0.93870  Biso   1.000  C
  C32      1.0000 0.76780  0.74590  0.56130  Biso   1.000  C
  H21      1.0000 0.83020  0.79150  0.10920  Biso   1.000  H
  H22      1.0000 0.16980  0.29150  0.39080  Biso   1.000  H
  H23      1.0000 0.16980  0.20850  0.89080  Biso   1.000  H
  H24      1.0000 0.83020  0.70850  0.60920  Biso   1.000  H
  C33      1.0000 0.75230  0.58660  0.00510  Biso   1.000  C
  C34      1.0000 0.24770  0.08660  0.49490  Biso   1.000  C
  C35      1.0000 0.24770  0.41340  0.99490  Biso   1.000  C
  C36      1.0000 0.75230  0.91340  0.50510  Biso   1.000  C
