data_image0
_cell_length_a       7.9205
_cell_length_b       8.5212
_cell_length_c       12.709
_cell_angle_alpha    83.976
_cell_angle_beta     77.509
_cell_angle_gamma    83.346

_symmetry_space_group_name_H-M    "P 1"
_symmetry_int_tables_number       1

loop_
  _symmetry_equiv_pos_as_xyz
  'x, y, z'

loop_
  _atom_site_label
  _atom_site_occupancy
  _atom_site_fract_x
  _atom_site_fract_y
  _atom_site_fract_z
  _atom_site_thermal_displace_type
  _atom_site_B_iso_or_equiv
  _atom_site_type_symbol
  Cu1      1.0000 0.39957  0.08451  0.72776  Biso   1.000  Cu
  Cu2      1.0000 0.60043  0.91549  0.27224  Biso   1.000  Cu
  V1       1.0000 0.08735  0.14049  0.61517  Biso   1.000  V
  V2       1.0000 0.91265  0.85951  0.38483  Biso   1.000  V
  V3       1.0000 0.80717  0.86114  0.65729  Biso   1.000  V
  V4       1.0000 0.19283  0.13886  0.34271  Biso   1.000  V
  O1       1.0000 0.59380  0.88790  0.69191  Biso   1.000  O
  O2       1.0000 0.40620  0.11210  0.30809  Biso   1.000  O
  O3       1.0000 0.25660  0.01400  0.63921  Biso   1.000  O
  O4       1.0000 0.74340  0.98600  0.36079  Biso   1.000  O
  O5       1.0000 0.89010  0.04760  0.65857  Biso   1.000  O
  O6       1.0000 0.10990  0.95240  0.34143  Biso   1.000  O
  O7       1.0000 0.12290  0.20890  0.47560  Biso   1.000  O
  O8       1.0000 0.87710  0.79110  0.52440  Biso   1.000  O
  O9       1.0000 0.07440  0.29070  0.68633  Biso   1.000  O
  O10      1.0000 0.92560  0.70930  0.31367  Biso   1.000  O
  O11      1.0000 0.87420  0.72980  0.74672  Biso   1.000  O
  O12      1.0000 0.12580  0.27020  0.25328  Biso   1.000  O
  O13      1.0000 0.10280  0.50120  0.83510  Biso   1.000  O
  O14      1.0000 0.89720  0.49880  0.16490  Biso   1.000  O
  N1       1.0000 0.28420  0.97900  0.87056  Biso   1.000  N
  N2       1.0000 0.71580  0.02100  0.12944  Biso   1.000  N
  N3       1.0000 0.45130  0.22260  0.82658  Biso   1.000  N
  N4       1.0000 0.54870  0.77740  0.17342  Biso   1.000  N
  N5       1.0000 0.52640  0.24450  0.62097  Biso   1.000  N
  N6       1.0000 0.47360  0.75550  0.37903  Biso   1.000  N
  C1       1.0000 0.21070  0.84250  0.88380  Biso   1.000  C
  C2       1.0000 0.78930  0.15750  0.11620  Biso   1.000  C
  C3       1.0000 0.14110  0.77320  0.98560  Biso   1.000  C
  C4       1.0000 0.85890  0.22680  0.01440  Biso   1.000  C
  C5       1.0000 0.14690  0.84960  0.07600  Biso   1.000  C
  C6       1.0000 0.85310  0.15040  0.92400  Biso   1.000  C
  C7       1.0000 0.22350  0.99170  0.06220  Biso   1.000  C
  C8       1.0000 0.77650  0.00830  0.93780  Biso   1.000  C
  C9       1.0000 0.29180  0.05360  0.95820  Biso   1.000  C
  C10      1.0000 0.70820  0.94640  0.04180  Biso   1.000  C
  C11      1.0000 0.38200  0.20050  0.93220  Biso   1.000  C
  C12      1.0000 0.61800  0.79950  0.06780  Biso   1.000  C
  C13      1.0000 0.39720  0.30840  0.00330  Biso   1.000  C
  C14      1.0000 0.60280  0.69160  0.99670  Biso   1.000  C
  C15      1.0000 0.48990  0.44060  0.96300  Biso   1.000  C
  C16      1.0000 0.51010  0.55940  0.03700  Biso   1.000  C
  C17      1.0000 0.55980  0.46080  0.85180  Biso   1.000  C
  C18      1.0000 0.44020  0.53920  0.14820  Biso   1.000  C
  C19      1.0000 0.53790  0.34810  0.78530  Biso   1.000  C
  C20      1.0000 0.46210  0.65190  0.21470  Biso   1.000  C
  C21      1.0000 0.59760  0.35120  0.66670  Biso   1.000  C
  C22      1.0000 0.40240  0.64880  0.33330  Biso   1.000  C
  C23      1.0000 0.71550  0.44980  0.60560  Biso   1.000  C
  C24      1.0000 0.28450  0.55020  0.39440  Biso   1.000  C
  C25      1.0000 0.76070  0.44010  0.49430  Biso   1.000  C
  C26      1.0000 0.23930  0.55990  0.50570  Biso   1.000  C
  C27      1.0000 0.68440  0.33420  0.44750  Biso   1.000  C
  C28      1.0000 0.31560  0.66580  0.55250  Biso   1.000  C
  C29      1.0000 0.56870  0.23690  0.51380  Biso   1.000  C
  C30      1.0000 0.43130  0.76310  0.48620  Biso   1.000  C
  H1       1.0000 0.21000  0.79900  0.82400  Biso   1.000  H
  H2       1.0000 0.79000  0.20100  0.17600  Biso   1.000  H
  H3       1.0000 0.09100  0.68700  0.98900  Biso   1.000  H
  H4       1.0000 0.90900  0.31300  0.01100  Biso   1.000  H
  H5       1.0000 0.09900  0.80300  0.15100  Biso   1.000  H
  H6       1.0000 0.90100  0.19700  0.84900  Biso   1.000  H
  H7       1.0000 0.23500  0.04400  0.11900  Biso   1.000  H
  H8       1.0000 0.76500  0.95600  0.88100  Biso   1.000  H
  H9       1.0000 0.34800  0.29000  0.07800  Biso   1.000  H
  H10      1.0000 0.65200  0.71000  0.92200  Biso   1.000  H
  H11      1.0000 0.62900  0.54600  0.82200  Biso   1.000  H
  H12      1.0000 0.37100  0.45400  0.17800  Biso   1.000  H
  H13      1.0000 0.76700  0.51700  0.64300  Biso   1.000  H
  H14      1.0000 0.23300  0.48300  0.35700  Biso   1.000  H
  H15      1.0000 0.85500  0.49900  0.44600  Biso   1.000  H
  H16      1.0000 0.14500  0.50100  0.55400  Biso   1.000  H
  H17      1.0000 0.71500  0.32500  0.37000  Biso   1.000  H
  H18      1.0000 0.28500  0.67500  0.63000  Biso   1.000  H
  H19      1.0000 0.51600  0.16800  0.48200  Biso   1.000  H
  H20      1.0000 0.48400  0.83200  0.51800  Biso   1.000  H
  H21      1.0000 0.11300  0.43200  0.79300  Biso   1.000  H
  H22      1.0000 0.88700  0.56800  0.20700  Biso   1.000  H
  H23      1.0000 0.03500  0.56400  0.81000  Biso   1.000  H
  H24      1.0000 0.96500  0.43600  0.19000  Biso   1.000  H
