data_image0
_cell_length_a       8.5776
_cell_length_b       9.7925
_cell_length_c       11.1831
_cell_angle_alpha    97.153
_cell_angle_beta     102.288
_cell_angle_gamma    114.152

_symmetry_space_group_name_H-M    "P 1"
_symmetry_int_tables_number       1

loop_
  _symmetry_equiv_pos_as_xyz
  'x, y, z'

loop_
  _atom_site_label
  _atom_site_occupancy
  _atom_site_fract_x
  _atom_site_fract_y
  _atom_site_fract_z
  _atom_site_thermal_displace_type
  _atom_site_B_iso_or_equiv
  _atom_site_type_symbol
  Cu1      1.0000 0.35464  0.59068  0.29268  Biso   1.000  Cu
  Cu2      1.0000 0.64536  0.40932  0.70732  Biso   1.000  Cu
  V1       1.0000 0.26597  0.22754  0.22086  Biso   1.000  V
  V2       1.0000 0.73403  0.77246  0.77914  Biso   1.000  V
  V3       1.0000 0.44660  0.84932  0.57730  Biso   1.000  V
  V4       1.0000 0.55340  0.15068  0.42270  Biso   1.000  V
  F1       1.0000 0.03420  0.11220  0.13870  Biso   1.000  F
  F2       1.0000 0.96580  0.88780  0.86130  Biso   1.000  F
  O1       1.0000 0.36940  0.27890  0.11640  Biso   1.000  O
  O2       1.0000 0.63060  0.72110  0.88360  Biso   1.000  O
  O3       1.0000 0.34870  0.12340  0.30910  Biso   1.000  O
  O4       1.0000 0.65130  0.87660  0.69090  Biso   1.000  O
  O5       1.0000 0.28880  0.38410  0.31440  Biso   1.000  O
  O6       1.0000 0.71120  0.61590  0.68560  Biso   1.000  O
  O7       1.0000 0.35570  0.68520  0.47390  Biso   1.000  O
  O8       1.0000 0.64430  0.31480  0.52610  Biso   1.000  O
  O9       1.0000 0.46600  0.01550  0.53240  Biso   1.000  O
  O10      1.0000 0.53400  0.98450  0.46760  Biso   1.000  O
  O11      1.0000 0.28490  0.80900  0.66270  Biso   1.000  O
  O12      1.0000 0.71510  0.19100  0.33730  Biso   1.000  O
  N1       1.0000 0.62240  0.67100  0.33390  Biso   1.000  N
  N2       1.0000 0.37760  0.32900  0.66610  Biso   1.000  N
  N3       1.0000 0.40680  0.74920  0.19980  Biso   1.000  N
  N4       1.0000 0.59320  0.25080  0.80020  Biso   1.000  N
  N5       1.0000 0.10460  0.55710  0.20700  Biso   1.000  N
  N6       1.0000 0.89540  0.44290  0.79300  Biso   1.000  N
  C1       1.0000 0.72410  0.62860  0.41330  Biso   1.000  C
  C2       1.0000 0.27590  0.37140  0.58670  Biso   1.000  C
  H1       1.0000 0.66830  0.54300  0.44720  Biso   1.000  H
  H2       1.0000 0.33170  0.45700  0.55280  Biso   1.000  H
  C3       1.0000 0.90930  0.70590  0.44770  Biso   1.000  C
  C4       1.0000 0.09070  0.29410  0.55230  Biso   1.000  C
  H3       1.0000 0.97910  0.67260  0.50310  Biso   1.000  H
  H4       1.0000 0.02090  0.32740  0.49690  Biso   1.000  H
  C5       1.0000 0.99020  0.83110  0.40060  Biso   1.000  C
  C6       1.0000 0.00980  0.16890  0.59940  Biso   1.000  C
  H5       1.0000 0.11670  0.88660  0.42450  Biso   1.000  H
  H6       1.0000 0.88330  0.11340  0.57550  Biso   1.000  H
  C7       1.0000 0.88560  0.87590  0.31770  Biso   1.000  C
  C8       1.0000 0.11440  0.12410  0.68230  Biso   1.000  C
  H7       1.0000 0.93940  0.96180  0.28370  Biso   1.000  H
  H8       1.0000 0.06060  0.03820  0.71630  Biso   1.000  H
  C9       1.0000 0.70270  0.79370  0.28560  Biso   1.000  C
  C10      1.0000 0.29730  0.20630  0.71440  Biso   1.000  C
  C11      1.0000 0.57660  0.82890  0.19910  Biso   1.000  C
  C12      1.0000 0.42340  0.17110  0.80090  Biso   1.000  C
  C13      1.0000 0.61590  0.92750  0.12050  Biso   1.000  C
  C14      1.0000 0.38410  0.07250  0.87950  Biso   1.000  C
  H9       1.0000 0.73560  0.98150  0.11860  Biso   1.000  H
  H10      1.0000 0.26440  0.01850  0.88140  Biso   1.000  H
  C15      1.0000 0.48090  0.94810  0.04400  Biso   1.000  C
  C16      1.0000 0.51910  0.05190  0.95600  Biso   1.000  C
  C17      1.0000 0.30570  0.86640  0.05000  Biso   1.000  C
  C18      1.0000 0.69430  0.13360  0.95000  Biso   1.000  C
  H11      1.0000 0.21050  0.87970  0.00070  Biso   1.000  H
  H12      1.0000 0.78950  0.12030  0.99930  Biso   1.000  H
  C19      1.0000 0.27440  0.76670  0.12860  Biso   1.000  C
  C20      1.0000 0.72560  0.23330  0.87140  Biso   1.000  C
  C21      1.0000 0.09760  0.66010  0.13790  Biso   1.000  C
  C22      1.0000 0.90240  0.33990  0.86210  Biso   1.000  C
  C23      1.0000 0.93900  0.66130  0.08070  Biso   1.000  C
  C24      1.0000 0.06100  0.33870  0.91930  Biso   1.000  C
  H13      1.0000 0.93730  0.73530  0.03370  Biso   1.000  H
  H14      1.0000 0.06270  0.26470  0.96630  Biso   1.000  H
  C25      1.0000 0.78110  0.55050  0.09360  Biso   1.000  C
  C26      1.0000 0.21890  0.44950  0.90640  Biso   1.000  C
  H15      1.0000 0.66940  0.54700  0.05430  Biso   1.000  H
  H16      1.0000 0.33060  0.45300  0.94570  Biso   1.000  H
  C27      1.0000 0.78910  0.44660  0.16410  Biso   1.000  C
  C28      1.0000 0.21090  0.55340  0.83590  Biso   1.000  C
  H17      1.0000 0.68300  0.37140  0.17450  Biso   1.000  H
  H18      1.0000 0.31700  0.62860  0.82550  Biso   1.000  H
  C29      1.0000 0.95220  0.45230  0.21940  Biso   1.000  C
  C30      1.0000 0.04780  0.54770  0.78060  Biso   1.000  C
  H19      1.0000 0.95660  0.38000  0.26770  Biso   1.000  H
  H20      1.0000 0.04340  0.62000  0.73230  Biso   1.000  H
