data_image0
_cell_length_a       16.6263
_cell_length_b       12.7971
_cell_length_c       14.4678
_cell_angle_alpha    90
_cell_angle_beta     90
_cell_angle_gamma    90

_symmetry_space_group_name_H-M    "P 1"
_symmetry_int_tables_number       1

loop_
  _symmetry_equiv_pos_as_xyz
  'x, y, z'

loop_
  _atom_site_label
  _atom_site_occupancy
  _atom_site_fract_x
  _atom_site_fract_y
  _atom_site_fract_z
  _atom_site_thermal_displace_type
  _atom_site_B_iso_or_equiv
  _atom_site_type_symbol
  O1       1.0000 0.33920  0.82470  0.98710  Biso   1.000  O
  O2       1.0000 0.16080  0.17530  0.48710  Biso   1.000  O
  O3       1.0000 0.83920  0.67530  0.51290  Biso   1.000  O
  O4       1.0000 0.66080  0.32470  0.01290  Biso   1.000  O
  O5       1.0000 0.66080  0.17530  0.01290  Biso   1.000  O
  O6       1.0000 0.83920  0.82470  0.51290  Biso   1.000  O
  O7       1.0000 0.16080  0.32470  0.48710  Biso   1.000  O
  O8       1.0000 0.33920  0.67530  0.98710  Biso   1.000  O
  C1       1.0000 0.37100  0.75000  0.22450  Biso   1.000  C
  C2       1.0000 0.12900  0.25000  0.72450  Biso   1.000  C
  C3       1.0000 0.87100  0.75000  0.27550  Biso   1.000  C
  C4       1.0000 0.62900  0.25000  0.77550  Biso   1.000  C
  C5       1.0000 0.85610  0.85580  0.04090  Biso   1.000  C
  C6       1.0000 0.64390  0.14420  0.54090  Biso   1.000  C
  C7       1.0000 0.35610  0.64420  0.45910  Biso   1.000  C
  C8       1.0000 0.14390  0.35580  0.95910  Biso   1.000  C
  C9       1.0000 0.14390  0.14420  0.95910  Biso   1.000  C
  C10      1.0000 0.35610  0.85580  0.45910  Biso   1.000  C
  C11      1.0000 0.64390  0.35580  0.54090  Biso   1.000  C
  C12      1.0000 0.85610  0.64420  0.04090  Biso   1.000  C
  H1       1.0000 0.81920  0.91190  0.05890  Biso   1.000  H
  H2       1.0000 0.68080  0.08810  0.55890  Biso   1.000  H
  H3       1.0000 0.31920  0.58810  0.44110  Biso   1.000  H
  H4       1.0000 0.18080  0.41190  0.94110  Biso   1.000  H
  H5       1.0000 0.18080  0.08810  0.94110  Biso   1.000  H
  H6       1.0000 0.31920  0.91190  0.44110  Biso   1.000  H
  H7       1.0000 0.68080  0.41190  0.55890  Biso   1.000  H
  H8       1.0000 0.81920  0.58810  0.05890  Biso   1.000  H
  H9       1.0000 0.86760  0.86090  0.97460  Biso   1.000  H
  H10      1.0000 0.63240  0.13910  0.47460  Biso   1.000  H
  H11      1.0000 0.36760  0.63910  0.52540  Biso   1.000  H
  H12      1.0000 0.13240  0.36090  0.02540  Biso   1.000  H
  H13      1.0000 0.13240  0.13910  0.02540  Biso   1.000  H
  H14      1.0000 0.36760  0.86090  0.52540  Biso   1.000  H
  H15      1.0000 0.63240  0.36090  0.47460  Biso   1.000  H
  H16      1.0000 0.86760  0.63910  0.97460  Biso   1.000  H
  H17      1.0000 0.90640  0.86230  0.07580  Biso   1.000  H
  H18      1.0000 0.59360  0.13770  0.57580  Biso   1.000  H
  H19      1.0000 0.40640  0.63770  0.42420  Biso   1.000  H
  H20      1.0000 0.09360  0.36230  0.92420  Biso   1.000  H
  H21      1.0000 0.09360  0.13770  0.92420  Biso   1.000  H
  H22      1.0000 0.40640  0.86230  0.42420  Biso   1.000  H
  H23      1.0000 0.59360  0.36230  0.57580  Biso   1.000  H
  H24      1.0000 0.90640  0.63770  0.07580  Biso   1.000  H
  Cu1      1.0000 0.53349  0.75000  0.11570  Biso   1.000  Cu
  Cu2      1.0000 0.96651  0.25000  0.61570  Biso   1.000  Cu
  Cu3      1.0000 0.03349  0.75000  0.38430  Biso   1.000  Cu
  Cu4      1.0000 0.46651  0.25000  0.88430  Biso   1.000  Cu
  Cu5      1.0000 0.69156  0.75000  0.08798  Biso   1.000  Cu
  Cu6      1.0000 0.80844  0.25000  0.58798  Biso   1.000  Cu
  Cu7      1.0000 0.19156  0.75000  0.41202  Biso   1.000  Cu
  Cu8      1.0000 0.30844  0.25000  0.91202  Biso   1.000  Cu
  O9       1.0000 0.69041  0.85740  0.18430  Biso   1.000  O
  O10      1.0000 0.80959  0.14260  0.68430  Biso   1.000  O
  O11      1.0000 0.19041  0.64260  0.31570  Biso   1.000  O
  O12      1.0000 0.30959  0.35740  0.81570  Biso   1.000  O
  O13      1.0000 0.30959  0.14260  0.81570  Biso   1.000  O
  O14      1.0000 0.19041  0.85740  0.31570  Biso   1.000  O
  O15      1.0000 0.80959  0.35740  0.68430  Biso   1.000  O
  O16      1.0000 0.69041  0.64260  0.18430  Biso   1.000  O
  O17      1.0000 0.96728  0.14240  0.51800  Biso   1.000  O
  O18      1.0000 0.53272  0.85760  0.01800  Biso   1.000  O
  O19      1.0000 0.46728  0.35760  0.98200  Biso   1.000  O
  O20      1.0000 0.03272  0.64240  0.48200  Biso   1.000  O
  O21      1.0000 0.03272  0.85760  0.48200  Biso   1.000  O
  O22      1.0000 0.46728  0.14240  0.98200  Biso   1.000  O
  O23      1.0000 0.53272  0.64240  0.01800  Biso   1.000  O
  O24      1.0000 0.96728  0.35760  0.51800  Biso   1.000  O
  O25      1.0000 0.83380  0.14350  0.49530  Biso   1.000  O
  O26      1.0000 0.66620  0.85650  0.99530  Biso   1.000  O
  O27      1.0000 0.33380  0.35650  0.00470  Biso   1.000  O
  O28      1.0000 0.16620  0.64350  0.50470  Biso   1.000  O
  O29      1.0000 0.16620  0.85650  0.50470  Biso   1.000  O
  O30      1.0000 0.33380  0.14350  0.00470  Biso   1.000  O
  O31      1.0000 0.66620  0.64350  0.99530  Biso   1.000  O
  O32      1.0000 0.83380  0.35650  0.49530  Biso   1.000  O
  O33      1.0000 0.55670  0.85830  0.20850  Biso   1.000  O
  O34      1.0000 0.94330  0.14170  0.70850  Biso   1.000  O
  O35      1.0000 0.05670  0.64170  0.29150  Biso   1.000  O
  O36      1.0000 0.44330  0.35830  0.79150  Biso   1.000  O
  O37      1.0000 0.44330  0.14170  0.79150  Biso   1.000  O
  O38      1.0000 0.05670  0.85830  0.29150  Biso   1.000  O
  O39      1.0000 0.94330  0.35830  0.70850  Biso   1.000  O
  O40      1.0000 0.55670  0.64170  0.20850  Biso   1.000  O
  O41      1.0000 0.40670  0.75000  0.13510  Biso   1.000  O
  O42      1.0000 0.09330  0.25000  0.63510  Biso   1.000  O
  O43      1.0000 0.90670  0.75000  0.36490  Biso   1.000  O
  O44      1.0000 0.59330  0.25000  0.86490  Biso   1.000  O
  H25      1.0000 0.37280  0.75000  0.08220  Biso   1.000  H
  H26      1.0000 0.12720  0.25000  0.58220  Biso   1.000  H
  H27      1.0000 0.87280  0.75000  0.41780  Biso   1.000  H
  H28      1.0000 0.62720  0.25000  0.91780  Biso   1.000  H
  O45      1.0000 0.81740  0.75000  0.06170  Biso   1.000  O
  O46      1.0000 0.68260  0.25000  0.56170  Biso   1.000  O
  O47      1.0000 0.31740  0.75000  0.43830  Biso   1.000  O
  O48      1.0000 0.18260  0.25000  0.93830  Biso   1.000  O
  N1       1.0000 0.71830  0.01060  0.30370  Biso   1.000  N
  N2       1.0000 0.78170  0.98940  0.80370  Biso   1.000  N
  N3       1.0000 0.21830  0.48940  0.19630  Biso   1.000  N
  N4       1.0000 0.28170  0.51060  0.69630  Biso   1.000  N
  N5       1.0000 0.28170  0.98940  0.69630  Biso   1.000  N
  N6       1.0000 0.21830  0.01060  0.19630  Biso   1.000  N
  N7       1.0000 0.78170  0.51060  0.80370  Biso   1.000  N
  N8       1.0000 0.71830  0.48940  0.30370  Biso   1.000  N
  C13      1.0000 0.77410  0.98420  0.36510  Biso   1.000  C
  C14      1.0000 0.72590  0.01580  0.86510  Biso   1.000  C
  C15      1.0000 0.27410  0.51580  0.13490  Biso   1.000  C
  C16      1.0000 0.22590  0.48420  0.63490  Biso   1.000  C
  C17      1.0000 0.22590  0.01580  0.63490  Biso   1.000  C
  C18      1.0000 0.27410  0.98420  0.13490  Biso   1.000  C
  C19      1.0000 0.72590  0.48420  0.86510  Biso   1.000  C
  C20      1.0000 0.77410  0.51580  0.36510  Biso   1.000  C
  H29      1.0000 0.76640  0.93920  0.41660  Biso   1.000  H
  H30      1.0000 0.73360  0.06080  0.91660  Biso   1.000  H
  H31      1.0000 0.26640  0.56080  0.08340  Biso   1.000  H
  H32      1.0000 0.23360  0.43920  0.58340  Biso   1.000  H
  H33      1.0000 0.23360  0.06080  0.58340  Biso   1.000  H
  H34      1.0000 0.26640  0.93920  0.08340  Biso   1.000  H
  H35      1.0000 0.73360  0.43920  0.91660  Biso   1.000  H
  H36      1.0000 0.76640  0.56080  0.41660  Biso   1.000  H
  N9       1.0000 0.84230  0.03130  0.34260  Biso   1.000  N
  N10      1.0000 0.65770  0.96870  0.84260  Biso   1.000  N
  N11      1.0000 0.34230  0.46870  0.15740  Biso   1.000  N
  N12      1.0000 0.15770  0.53130  0.65740  Biso   1.000  N
  N13      1.0000 0.15770  0.96870  0.65740  Biso   1.000  N
  N14      1.0000 0.34230  0.03130  0.15740  Biso   1.000  N
  N15      1.0000 0.65770  0.53130  0.84260  Biso   1.000  N
  N16      1.0000 0.84230  0.46870  0.34260  Biso   1.000  N
  C21      1.0000 0.90380  0.11440  0.47810  Biso   1.000  C
  C22      1.0000 0.59620  0.88560  0.97810  Biso   1.000  C
  C23      1.0000 0.40380  0.38560  0.02190  Biso   1.000  C
  C24      1.0000 0.09620  0.61440  0.52190  Biso   1.000  C
  C25      1.0000 0.09620  0.88560  0.52190  Biso   1.000  C
  C26      1.0000 0.40380  0.11440  0.02190  Biso   1.000  C
  C27      1.0000 0.59620  0.61440  0.97810  Biso   1.000  C
  C28      1.0000 0.90380  0.38560  0.47810  Biso   1.000  C
  C29      1.0000 0.62750  0.88780  0.22350  Biso   1.000  C
  C30      1.0000 0.87250  0.11220  0.72350  Biso   1.000  C
  C31      1.0000 0.12750  0.61220  0.27650  Biso   1.000  C
  C32      1.0000 0.37250  0.38780  0.77650  Biso   1.000  C
  C33      1.0000 0.37250  0.11220  0.77650  Biso   1.000  C
  C34      1.0000 0.12750  0.88780  0.27650  Biso   1.000  C
  C35      1.0000 0.87250  0.38780  0.72350  Biso   1.000  C
  C36      1.0000 0.62750  0.61220  0.22350  Biso   1.000  C
  C37      1.0000 0.91430  0.03480  0.40080  Biso   1.000  C
  C38      1.0000 0.58570  0.96520  0.90080  Biso   1.000  C
  C39      1.0000 0.41430  0.46520  0.09920  Biso   1.000  C
  C40      1.0000 0.08570  0.53480  0.59920  Biso   1.000  C
  C41      1.0000 0.08570  0.96520  0.59920  Biso   1.000  C
  C42      1.0000 0.41430  0.03480  0.09920  Biso   1.000  C
  C43      1.0000 0.58570  0.53480  0.90080  Biso   1.000  C
  C44      1.0000 0.91430  0.46520  0.40080  Biso   1.000  C
  H37      1.0000 0.96150  0.05380  0.36270  Biso   1.000  H
  H38      1.0000 0.53850  0.94620  0.86270  Biso   1.000  H
  H39      1.0000 0.46150  0.44620  0.13730  Biso   1.000  H
  H40      1.0000 0.03850  0.55380  0.63730  Biso   1.000  H
  H41      1.0000 0.03850  0.94620  0.63730  Biso   1.000  H
  H42      1.0000 0.46150  0.05380  0.13730  Biso   1.000  H
  H43      1.0000 0.53850  0.55380  0.86270  Biso   1.000  H
  H44      1.0000 0.96150  0.44620  0.36270  Biso   1.000  H
  H45      1.0000 0.92420  0.96480  0.42780  Biso   1.000  H
  H46      1.0000 0.57580  0.03520  0.92780  Biso   1.000  H
  H47      1.0000 0.42420  0.53520  0.07220  Biso   1.000  H
  H48      1.0000 0.07580  0.46480  0.57220  Biso   1.000  H
  H49      1.0000 0.07580  0.03520  0.57220  Biso   1.000  H
  H50      1.0000 0.42420  0.96480  0.07220  Biso   1.000  H
  H51      1.0000 0.57580  0.46480  0.92780  Biso   1.000  H
  H52      1.0000 0.92420  0.53520  0.42780  Biso   1.000  H
  C45      1.0000 0.63660  0.96850  0.30020  Biso   1.000  C
  C46      1.0000 0.86340  0.03150  0.80020  Biso   1.000  C
  C47      1.0000 0.13660  0.53150  0.19980  Biso   1.000  C
  C48      1.0000 0.36340  0.46850  0.69980  Biso   1.000  C
  C49      1.0000 0.36340  0.03150  0.69980  Biso   1.000  C
  C50      1.0000 0.13660  0.96850  0.19980  Biso   1.000  C
  C51      1.0000 0.86340  0.46850  0.80020  Biso   1.000  C
  C52      1.0000 0.63660  0.53150  0.30020  Biso   1.000  C
  H53      1.0000 0.59800  0.02630  0.28970  Biso   1.000  H
  H54      1.0000 0.90200  0.97370  0.78970  Biso   1.000  H
  H55      1.0000 0.09800  0.47370  0.21030  Biso   1.000  H
  H56      1.0000 0.40200  0.52630  0.71030  Biso   1.000  H
  H57      1.0000 0.40200  0.97370  0.71030  Biso   1.000  H
  H58      1.0000 0.09800  0.02630  0.21030  Biso   1.000  H
  H59      1.0000 0.90200  0.52630  0.78970  Biso   1.000  H
  H60      1.0000 0.59800  0.47370  0.28970  Biso   1.000  H
  H61      1.0000 0.62340  0.93570  0.36030  Biso   1.000  H
  H62      1.0000 0.87660  0.06430  0.86030  Biso   1.000  H
  H63      1.0000 0.12340  0.56430  0.13970  Biso   1.000  H
  H64      1.0000 0.37660  0.43570  0.63970  Biso   1.000  H
  H65      1.0000 0.37660  0.06430  0.63970  Biso   1.000  H
  H66      1.0000 0.12340  0.93570  0.13970  Biso   1.000  H
  H67      1.0000 0.87660  0.43570  0.86030  Biso   1.000  H
  H68      1.0000 0.62340  0.56430  0.36030  Biso   1.000  H
  C53      1.0000 0.82940  0.09030  0.26470  Biso   1.000  C
  C54      1.0000 0.67060  0.90970  0.76470  Biso   1.000  C
  C55      1.0000 0.32940  0.40970  0.23530  Biso   1.000  C
  C56      1.0000 0.17060  0.59030  0.73530  Biso   1.000  C
  C57      1.0000 0.17060  0.90970  0.73530  Biso   1.000  C
  C58      1.0000 0.32940  0.09030  0.23530  Biso   1.000  C
  C59      1.0000 0.67060  0.59030  0.76470  Biso   1.000  C
  C60      1.0000 0.82940  0.40970  0.26470  Biso   1.000  C
  H69      1.0000 0.86770  0.13310  0.23400  Biso   1.000  H
  H70      1.0000 0.63230  0.86690  0.73400  Biso   1.000  H
  H71      1.0000 0.36770  0.36690  0.26600  Biso   1.000  H
  H72      1.0000 0.13230  0.63310  0.76600  Biso   1.000  H
  H73      1.0000 0.13230  0.86690  0.76600  Biso   1.000  H
  H74      1.0000 0.36770  0.13310  0.26600  Biso   1.000  H
  H75      1.0000 0.63230  0.63310  0.73400  Biso   1.000  H
  H76      1.0000 0.86770  0.36690  0.23400  Biso   1.000  H
  C61      1.0000 0.75240  0.07620  0.24010  Biso   1.000  C
  C62      1.0000 0.74760  0.92380  0.74010  Biso   1.000  C
  C63      1.0000 0.25240  0.42380  0.25990  Biso   1.000  C
  C64      1.0000 0.24760  0.57620  0.75990  Biso   1.000  C
  C65      1.0000 0.24760  0.92380  0.75990  Biso   1.000  C
  C66      1.0000 0.25240  0.07620  0.25990  Biso   1.000  C
  C67      1.0000 0.74760  0.57620  0.74010  Biso   1.000  C
  C68      1.0000 0.75240  0.42380  0.24010  Biso   1.000  C
  H77      1.0000 0.72630  0.10620  0.18810  Biso   1.000  H
  H78      1.0000 0.77370  0.89380  0.68810  Biso   1.000  H
  H79      1.0000 0.22630  0.39380  0.31190  Biso   1.000  H
  H80      1.0000 0.27370  0.60620  0.81190  Biso   1.000  H
  H81      1.0000 0.27370  0.89380  0.81190  Biso   1.000  H
  H82      1.0000 0.22630  0.10620  0.31190  Biso   1.000  H
  H83      1.0000 0.77370  0.60620  0.68810  Biso   1.000  H
  H84      1.0000 0.72630  0.39380  0.18810  Biso   1.000  H
  F1       1.0000 0.07730  0.78700  0.01380  Biso   1.000  F
  F2       1.0000 0.42270  0.21300  0.51380  Biso   1.000  F
  F3       1.0000 0.57730  0.71300  0.48620  Biso   1.000  F
  F4       1.0000 0.92270  0.28700  0.98620  Biso   1.000  F
  F5       1.0000 0.92270  0.21300  0.98620  Biso   1.000  F
  F6       1.0000 0.57730  0.78700  0.48620  Biso   1.000  F
  F7       1.0000 0.42270  0.28700  0.51380  Biso   1.000  F
  F8       1.0000 0.07730  0.71300  0.01380  Biso   1.000  F
  F9       1.0000 0.15800  0.86720  0.98540  Biso   1.000  F
  F10      1.0000 0.34200  0.13280  0.48540  Biso   1.000  F
  F11      1.0000 0.65800  0.63280  0.51460  Biso   1.000  F
  F12      1.0000 0.84200  0.36720  0.01460  Biso   1.000  F
  F13      1.0000 0.84200  0.13280  0.01460  Biso   1.000  F
  F14      1.0000 0.65800  0.86720  0.51460  Biso   1.000  F
  F15      1.0000 0.34200  0.36720  0.48540  Biso   1.000  F
  F16      1.0000 0.15800  0.63280  0.98540  Biso   1.000  F
  B1       1.0000 0.14950  0.75000  0.99580  Biso   1.000  B
  B2       1.0000 0.35050  0.25000  0.49580  Biso   1.000  B
  B3       1.0000 0.64950  0.75000  0.50420  Biso   1.000  B
  B4       1.0000 0.85050  0.25000  0.00420  Biso   1.000  B
  F17      1.0000 0.18290  0.75000  0.08240  Biso   1.000  F
  F18      1.0000 0.31710  0.25000  0.58240  Biso   1.000  F
  F19      1.0000 0.68290  0.75000  0.41760  Biso   1.000  F
  F20      1.0000 0.81710  0.25000  0.91760  Biso   1.000  F
  F21      1.0000 0.19360  0.77350  0.92020  Biso   1.000  F
  F22      1.0000 0.30640  0.22650  0.42020  Biso   1.000  F
  F23      1.0000 0.69360  0.72650  0.57980  Biso   1.000  F
  F24      1.0000 0.80640  0.27350  0.07980  Biso   1.000  F
  F25      1.0000 0.80640  0.22650  0.07980  Biso   1.000  F
  F26      1.0000 0.69360  0.77350  0.57980  Biso   1.000  F
  F27      1.0000 0.30640  0.27350  0.42020  Biso   1.000  F
  F28      1.0000 0.19360  0.72650  0.92020  Biso   1.000  F
  F29      1.0000 0.06960  0.75000  0.95600  Biso   1.000  F
  F30      1.0000 0.43040  0.25000  0.45600  Biso   1.000  F
  F31      1.0000 0.56960  0.75000  0.54400  Biso   1.000  F
  F32      1.0000 0.93040  0.25000  0.04400  Biso   1.000  F
  F33      1.0000 0.21250  0.82320  0.96510  Biso   1.000  F
  F34      1.0000 0.28750  0.17680  0.46510  Biso   1.000  F
  F35      1.0000 0.71250  0.67680  0.53490  Biso   1.000  F
  F36      1.0000 0.78750  0.32320  0.03490  Biso   1.000  F
  F37      1.0000 0.78750  0.17680  0.03490  Biso   1.000  F
  F38      1.0000 0.71250  0.82320  0.53490  Biso   1.000  F
  F39      1.0000 0.28750  0.32320  0.46510  Biso   1.000  F
  F40      1.0000 0.21250  0.67680  0.96510  Biso   1.000  F
  F41      1.0000 0.09200  0.84400  0.98700  Biso   1.000  F
  F42      1.0000 0.40800  0.15600  0.48700  Biso   1.000  F
  F43      1.0000 0.59200  0.65600  0.51300  Biso   1.000  F
  F44      1.0000 0.90800  0.34400  0.01300  Biso   1.000  F
  F45      1.0000 0.90800  0.15600  0.01300  Biso   1.000  F
  F46      1.0000 0.59200  0.84400  0.51300  Biso   1.000  F
  F47      1.0000 0.40800  0.34400  0.48700  Biso   1.000  F
  F48      1.0000 0.09200  0.65600  0.98700  Biso   1.000  F
  F49      1.0000 0.93740  0.78430  0.80070  Biso   1.000  F
  F50      1.0000 0.56260  0.21570  0.30070  Biso   1.000  F
  F51      1.0000 0.43740  0.71570  0.69930  Biso   1.000  F
  F52      1.0000 0.06260  0.28430  0.19930  Biso   1.000  F
  F53      1.0000 0.06260  0.21570  0.19930  Biso   1.000  F
  F54      1.0000 0.43740  0.78430  0.69930  Biso   1.000  F
  F55      1.0000 0.56260  0.28430  0.30070  Biso   1.000  F
  F56      1.0000 0.93740  0.71570  0.80070  Biso   1.000  F
  B5       1.0000 0.95180  0.75000  0.71520  Biso   1.000  B
  B6       1.0000 0.54820  0.25000  0.21520  Biso   1.000  B
  B7       1.0000 0.45180  0.75000  0.78480  Biso   1.000  B
  B8       1.0000 0.04820  0.25000  0.28480  Biso   1.000  B
  F57      1.0000 0.03290  0.75000  0.69570  Biso   1.000  F
  F58      1.0000 0.46710  0.25000  0.19570  Biso   1.000  F
  F59      1.0000 0.53290  0.75000  0.80430  Biso   1.000  F
  F60      1.0000 0.96710  0.25000  0.30430  Biso   1.000  F
  F61      1.0000 0.91870  0.83580  0.66980  Biso   1.000  F
  F62      1.0000 0.58130  0.16420  0.16980  Biso   1.000  F
  F63      1.0000 0.41870  0.66420  0.83020  Biso   1.000  F
  F64      1.0000 0.08130  0.33580  0.33020  Biso   1.000  F
  F65      1.0000 0.08130  0.16420  0.33020  Biso   1.000  F
  F66      1.0000 0.41870  0.83580  0.83020  Biso   1.000  F
  F67      1.0000 0.58130  0.33580  0.16980  Biso   1.000  F
  F68      1.0000 0.91870  0.66420  0.66980  Biso   1.000  F
  H85      1.0000 0.40310  0.79340  0.26640  Biso   1.000  H
  H86      1.0000 0.09690  0.20660  0.76640  Biso   1.000  H
  H87      1.0000 0.90310  0.70660  0.23360  Biso   1.000  H
  H88      1.0000 0.59690  0.29340  0.73360  Biso   1.000  H
  H89      1.0000 0.59690  0.20660  0.73360  Biso   1.000  H
  H90      1.0000 0.90310  0.79340  0.23360  Biso   1.000  H
  H91      1.0000 0.09690  0.29340  0.76640  Biso   1.000  H
  H92      1.0000 0.40310  0.70660  0.26640  Biso   1.000  H
  H93      1.0000 0.36880  0.67830  0.24830  Biso   1.000  H
  H94      1.0000 0.13120  0.32170  0.74830  Biso   1.000  H
  H95      1.0000 0.86880  0.82170  0.25170  Biso   1.000  H
  H96      1.0000 0.63120  0.17830  0.75170  Biso   1.000  H
  H97      1.0000 0.63120  0.32170  0.75170  Biso   1.000  H
  H98      1.0000 0.86880  0.67830  0.25170  Biso   1.000  H
  H99      1.0000 0.13120  0.17830  0.74830  Biso   1.000  H
  H100     1.0000 0.36880  0.82170  0.24830  Biso   1.000  H
  H101     1.0000 0.31630  0.77830  0.22050  Biso   1.000  H
  H102     1.0000 0.18370  0.22170  0.72050  Biso   1.000  H
  H103     1.0000 0.81630  0.72170  0.27950  Biso   1.000  H
  H104     1.0000 0.68370  0.27830  0.77950  Biso   1.000  H
  H105     1.0000 0.68370  0.22170  0.77950  Biso   1.000  H
  H106     1.0000 0.81630  0.77830  0.27950  Biso   1.000  H
  H107     1.0000 0.18370  0.27830  0.72050  Biso   1.000  H
  H108     1.0000 0.31630  0.72170  0.22050  Biso   1.000  H
  O49      1.0000 0.90910  0.89020  0.98590  Biso   1.000  O
  O50      1.0000 0.59090  0.10980  0.48590  Biso   1.000  O
  O51      1.0000 0.40910  0.60980  0.51410  Biso   1.000  O
  O52      1.0000 0.09090  0.39020  0.01410  Biso   1.000  O
  O53      1.0000 0.09090  0.10980  0.01410  Biso   1.000  O
  O54      1.0000 0.40910  0.89020  0.51410  Biso   1.000  O
  O55      1.0000 0.59090  0.39020  0.48590  Biso   1.000  O
  O56      1.0000 0.90910  0.60980  0.98590  Biso   1.000  O
  C69      1.0000 0.93650  0.96100  0.06530  Biso   1.000  C
  C70      1.0000 0.56350  0.03900  0.56530  Biso   1.000  C
  C71      1.0000 0.43650  0.53900  0.43470  Biso   1.000  C
  C72      1.0000 0.06350  0.46100  0.93470  Biso   1.000  C
  C73      1.0000 0.06350  0.03900  0.93470  Biso   1.000  C
  C74      1.0000 0.43650  0.96100  0.43470  Biso   1.000  C
  C75      1.0000 0.56350  0.46100  0.56530  Biso   1.000  C
  C76      1.0000 0.93650  0.53900  0.06530  Biso   1.000  C
  H109     1.0000 0.96540  0.02110  0.04020  Biso   1.000  H
  H110     1.0000 0.53460  0.97890  0.54020  Biso   1.000  H
  H111     1.0000 0.46540  0.47890  0.45980  Biso   1.000  H
  H112     1.0000 0.03460  0.52110  0.95980  Biso   1.000  H
  H113     1.0000 0.03460  0.97890  0.95980  Biso   1.000  H
  H114     1.0000 0.46540  0.02110  0.45980  Biso   1.000  H
  H115     1.0000 0.53460  0.52110  0.54020  Biso   1.000  H
  H116     1.0000 0.96540  0.47890  0.04020  Biso   1.000  H
  H117     1.0000 0.97230  0.92120  0.10630  Biso   1.000  H
  H118     1.0000 0.52770  0.07880  0.60630  Biso   1.000  H
  H119     1.0000 0.47230  0.57880  0.39370  Biso   1.000  H
  H120     1.0000 0.02770  0.42120  0.89370  Biso   1.000  H
  H121     1.0000 0.02770  0.07880  0.89370  Biso   1.000  H
  H122     1.0000 0.47230  0.92120  0.39370  Biso   1.000  H
  H123     1.0000 0.52770  0.42120  0.60630  Biso   1.000  H
  H124     1.0000 0.97230  0.57880  0.10630  Biso   1.000  H
  H125     1.0000 0.88950  0.98460  0.10010  Biso   1.000  H
  H126     1.0000 0.61050  0.01540  0.60010  Biso   1.000  H
  H127     1.0000 0.38950  0.51540  0.39990  Biso   1.000  H
  H128     1.0000 0.11050  0.48460  0.89990  Biso   1.000  H
  H129     1.0000 0.11050  0.01540  0.89990  Biso   1.000  H
  H130     1.0000 0.38950  0.98460  0.39990  Biso   1.000  H
  H131     1.0000 0.61050  0.48460  0.60010  Biso   1.000  H
  H132     1.0000 0.88950  0.51540  0.10010  Biso   1.000  H
