data_image0
_cell_length_a       12.3883
_cell_length_b       12.3883
_cell_length_c       14.5923
_cell_angle_alpha    90
_cell_angle_beta     90
_cell_angle_gamma    90

_symmetry_space_group_name_H-M    "P 1"
_symmetry_int_tables_number       1

loop_
  _symmetry_equiv_pos_as_xyz
  'x, y, z'

loop_
  _atom_site_label
  _atom_site_occupancy
  _atom_site_fract_x
  _atom_site_fract_y
  _atom_site_fract_z
  _atom_site_thermal_displace_type
  _atom_site_B_iso_or_equiv
  _atom_site_type_symbol
  Na1      1.0000 0.48030  0.97840  0.68350  Biso   1.000  Na
  Na2      1.0000 0.51970  0.02160  0.68350  Biso   1.000  Na
  Na3      1.0000 0.97840  0.51970  0.31650  Biso   1.000  Na
  Na4      1.0000 0.02160  0.48030  0.31650  Biso   1.000  Na
  Na5      1.0000 0.51970  0.97840  0.81650  Biso   1.000  Na
  Na6      1.0000 0.48030  0.02160  0.81650  Biso   1.000  Na
  Na7      1.0000 0.02160  0.51970  0.18350  Biso   1.000  Na
  Na8      1.0000 0.97840  0.48030  0.18350  Biso   1.000  Na
  O1       1.0000 0.36770  0.87960  0.57710  Biso   1.000  O
  O2       1.0000 0.63230  0.12040  0.57710  Biso   1.000  O
  O3       1.0000 0.87960  0.63230  0.42290  Biso   1.000  O
  O4       1.0000 0.12040  0.36770  0.42290  Biso   1.000  O
  O5       1.0000 0.63230  0.87960  0.92290  Biso   1.000  O
  O6       1.0000 0.36770  0.12040  0.92290  Biso   1.000  O
  O7       1.0000 0.12040  0.63230  0.07710  Biso   1.000  O
  O8       1.0000 0.87960  0.36770  0.07710  Biso   1.000  O
  O9       1.0000 0.67690  0.01200  0.74090  Biso   1.000  O
  O10      1.0000 0.32310  0.98800  0.74090  Biso   1.000  O
  O11      1.0000 0.01200  0.32310  0.25910  Biso   1.000  O
  O12      1.0000 0.98800  0.67690  0.25910  Biso   1.000  O
  O13      1.0000 0.32310  0.01200  0.75910  Biso   1.000  O
  O14      1.0000 0.67690  0.98800  0.75910  Biso   1.000  O
  O15      1.0000 0.98800  0.32310  0.24090  Biso   1.000  O
  O16      1.0000 0.01200  0.67690  0.24090  Biso   1.000  O
  O17      1.0000 0.50000  0.80740  0.75000  Biso   1.000  O
  O18      1.0000 0.50000  0.19260  0.75000  Biso   1.000  O
  O19      1.0000 0.80740  0.50000  0.25000  Biso   1.000  O
  O20      1.0000 0.19260  0.50000  0.25000  Biso   1.000  O
  B1       1.0000 0.00000  0.00000  0.77760  Biso   1.000  B
  B2       1.0000 0.00000  0.00000  0.22240  Biso   1.000  B
  B3       1.0000 0.00000  0.00000  0.72240  Biso   1.000  B
  B4       1.0000 0.00000  0.00000  0.27760  Biso   1.000  B
  F1       1.0000 0.90770  0.00650  0.71890  Biso   1.000  F
  F2       1.0000 0.09230  0.99350  0.71890  Biso   1.000  F
  F3       1.0000 0.00650  0.09230  0.28110  Biso   1.000  F
  F4       1.0000 0.99350  0.90770  0.28110  Biso   1.000  F
  F5       1.0000 0.09230  0.00650  0.78110  Biso   1.000  F
  F6       1.0000 0.90770  0.99350  0.78110  Biso   1.000  F
  F7       1.0000 0.99350  0.09230  0.21890  Biso   1.000  F
  F8       1.0000 0.00650  0.90770  0.21890  Biso   1.000  F
  F9       1.0000 0.99590  0.90240  0.82790  Biso   1.000  F
  F10      1.0000 0.00410  0.09760  0.82790  Biso   1.000  F
  F11      1.0000 0.90240  0.00410  0.17210  Biso   1.000  F
  F12      1.0000 0.09760  0.99590  0.17210  Biso   1.000  F
  F13      1.0000 0.00410  0.90240  0.67210  Biso   1.000  F
  F14      1.0000 0.99590  0.09760  0.67210  Biso   1.000  F
  F15      1.0000 0.09760  0.00410  0.32790  Biso   1.000  F
  F16      1.0000 0.90240  0.99590  0.32790  Biso   1.000  F
  O21      1.0000 0.00000  0.00000  0.91900  Biso   1.000  O
  O22      1.0000 0.00000  0.00000  0.08100  Biso   1.000  O
  O23      1.0000 0.00000  0.00000  0.58100  Biso   1.000  O
  O24      1.0000 0.00000  0.00000  0.41900  Biso   1.000  O
  Cu1      1.0000 0.50000  0.00000  0.25000  Biso   1.000  Cu
  Cu2      1.0000 0.00000  0.50000  0.75000  Biso   1.000  Cu
  Cu3      1.0000 0.50000  0.50000  0.75000  Biso   1.000  Cu
  Cu4      1.0000 0.50000  0.50000  0.25000  Biso   1.000  Cu
  O25      1.0000 0.38780  0.89000  0.23670  Biso   1.000  O
  O26      1.0000 0.61220  0.11000  0.23670  Biso   1.000  O
  O27      1.0000 0.89000  0.61220  0.76330  Biso   1.000  O
  O28      1.0000 0.11000  0.38780  0.76330  Biso   1.000  O
  O29      1.0000 0.61220  0.89000  0.26330  Biso   1.000  O
  O30      1.0000 0.38780  0.11000  0.26330  Biso   1.000  O
  O31      1.0000 0.11000  0.61220  0.73670  Biso   1.000  O
  O32      1.0000 0.89000  0.38780  0.73670  Biso   1.000  O
  O33      1.0000 0.38800  0.48460  0.65820  Biso   1.000  O
  O34      1.0000 0.61200  0.51540  0.65820  Biso   1.000  O
  O35      1.0000 0.48460  0.61200  0.34180  Biso   1.000  O
  O36      1.0000 0.51540  0.38800  0.34180  Biso   1.000  O
  O37      1.0000 0.61200  0.48460  0.84180  Biso   1.000  O
  O38      1.0000 0.38800  0.51540  0.84180  Biso   1.000  O
  O39      1.0000 0.51540  0.61200  0.15820  Biso   1.000  O
  O40      1.0000 0.48460  0.38800  0.15820  Biso   1.000  O
  N1       1.0000 0.21340  0.74730  0.38900  Biso   1.000  N
  N2       1.0000 0.78660  0.25270  0.38900  Biso   1.000  N
  N3       1.0000 0.74730  0.78660  0.61100  Biso   1.000  N
  N4       1.0000 0.25270  0.21340  0.61100  Biso   1.000  N
  N5       1.0000 0.78660  0.74730  0.11100  Biso   1.000  N
  N6       1.0000 0.21340  0.25270  0.11100  Biso   1.000  N
  N7       1.0000 0.25270  0.78660  0.88900  Biso   1.000  N
  N8       1.0000 0.74730  0.21340  0.88900  Biso   1.000  N
  O41      1.0000 0.36350  0.91010  0.38730  Biso   1.000  O
  O42      1.0000 0.63650  0.08990  0.38730  Biso   1.000  O
  O43      1.0000 0.91010  0.63650  0.61270  Biso   1.000  O
  O44      1.0000 0.08990  0.36350  0.61270  Biso   1.000  O
  O45      1.0000 0.63650  0.91010  0.11270  Biso   1.000  O
  O46      1.0000 0.36350  0.08990  0.11270  Biso   1.000  O
  O47      1.0000 0.08990  0.63650  0.88730  Biso   1.000  O
  O48      1.0000 0.91010  0.36350  0.88730  Biso   1.000  O
  N9       1.0000 0.22080  0.63930  0.50440  Biso   1.000  N
  N10      1.0000 0.77920  0.36070  0.50440  Biso   1.000  N
  N11      1.0000 0.63930  0.77920  0.49560  Biso   1.000  N
  N12      1.0000 0.36070  0.22080  0.49560  Biso   1.000  N
  N13      1.0000 0.77920  0.63930  0.99560  Biso   1.000  N
  N14      1.0000 0.22080  0.36070  0.99560  Biso   1.000  N
  N15      1.0000 0.36070  0.77920  0.00440  Biso   1.000  N
  N16      1.0000 0.63930  0.22080  0.00440  Biso   1.000  N
  O49      1.0000 0.38790  0.66270  0.63110  Biso   1.000  O
  O50      1.0000 0.61210  0.33730  0.63110  Biso   1.000  O
  O51      1.0000 0.66270  0.61210  0.36890  Biso   1.000  O
  O52      1.0000 0.33730  0.38790  0.36890  Biso   1.000  O
  O53      1.0000 0.61210  0.66270  0.86890  Biso   1.000  O
  O54      1.0000 0.38790  0.33730  0.86890  Biso   1.000  O
  O55      1.0000 0.33730  0.61210  0.13110  Biso   1.000  O
  O56      1.0000 0.66270  0.38790  0.13110  Biso   1.000  O
  C1       1.0000 0.33950  0.87150  0.31300  Biso   1.000  C
  C2       1.0000 0.66050  0.12850  0.31300  Biso   1.000  C
  C3       1.0000 0.87150  0.66050  0.68700  Biso   1.000  C
  C4       1.0000 0.12850  0.33950  0.68700  Biso   1.000  C
  C5       1.0000 0.66050  0.87150  0.18700  Biso   1.000  C
  C6       1.0000 0.33950  0.12850  0.18700  Biso   1.000  C
  C7       1.0000 0.12850  0.66050  0.81300  Biso   1.000  C
  C8       1.0000 0.87150  0.33950  0.81300  Biso   1.000  C
  C9       1.0000 0.25830  0.65930  0.42030  Biso   1.000  C
  C10      1.0000 0.74170  0.34070  0.42030  Biso   1.000  C
  C11      1.0000 0.65930  0.74170  0.57970  Biso   1.000  C
  C12      1.0000 0.34070  0.25830  0.57970  Biso   1.000  C
  C13      1.0000 0.74170  0.65930  0.07970  Biso   1.000  C
  C14      1.0000 0.25830  0.34070  0.07970  Biso   1.000  C
  C15      1.0000 0.34070  0.74170  0.92030  Biso   1.000  C
  C16      1.0000 0.65930  0.25830  0.92030  Biso   1.000  C
  H1       1.0000 0.30950  0.61630  0.38840  Biso   1.000  H
  H2       1.0000 0.69050  0.38370  0.38840  Biso   1.000  H
  H3       1.0000 0.61630  0.69050  0.61160  Biso   1.000  H
  H4       1.0000 0.38370  0.30950  0.61160  Biso   1.000  H
  H5       1.0000 0.69050  0.61630  0.11160  Biso   1.000  H
  H6       1.0000 0.30950  0.38370  0.11160  Biso   1.000  H
  H7       1.0000 0.38370  0.69050  0.88840  Biso   1.000  H
  H8       1.0000 0.61630  0.30950  0.88840  Biso   1.000  H
  C17      1.0000 0.24110  0.79660  0.30120  Biso   1.000  C
  C18      1.0000 0.75890  0.20340  0.30120  Biso   1.000  C
  C19      1.0000 0.79660  0.75890  0.69880  Biso   1.000  C
  C20      1.0000 0.20340  0.24110  0.69880  Biso   1.000  C
  C21      1.0000 0.75890  0.79660  0.19880  Biso   1.000  C
  C22      1.0000 0.24110  0.20340  0.19880  Biso   1.000  C
  C23      1.0000 0.20340  0.75890  0.80120  Biso   1.000  C
  C24      1.0000 0.79660  0.24110  0.80120  Biso   1.000  C
  H9       1.0000 0.17880  0.83870  0.27810  Biso   1.000  H
  H10      1.0000 0.82120  0.16130  0.27810  Biso   1.000  H
  H11      1.0000 0.83870  0.82120  0.72190  Biso   1.000  H
  H12      1.0000 0.16130  0.17880  0.72190  Biso   1.000  H
  H13      1.0000 0.82120  0.83870  0.22190  Biso   1.000  H
  H14      1.0000 0.17880  0.16130  0.22190  Biso   1.000  H
  H15      1.0000 0.16130  0.82120  0.77810  Biso   1.000  H
  H16      1.0000 0.83870  0.17880  0.77810  Biso   1.000  H
  H17      1.0000 0.25790  0.73960  0.25590  Biso   1.000  H
  H18      1.0000 0.74210  0.26040  0.25590  Biso   1.000  H
  H19      1.0000 0.73960  0.74210  0.74410  Biso   1.000  H
  H20      1.0000 0.26040  0.25790  0.74410  Biso   1.000  H
  H21      1.0000 0.74210  0.73960  0.24410  Biso   1.000  H
  H22      1.0000 0.25790  0.26040  0.24410  Biso   1.000  H
  H23      1.0000 0.26040  0.74210  0.75590  Biso   1.000  H
  H24      1.0000 0.73960  0.25790  0.75590  Biso   1.000  H
  C25      1.0000 0.35100  0.56990  0.62080  Biso   1.000  C
  C26      1.0000 0.64900  0.43010  0.62080  Biso   1.000  C
  C27      1.0000 0.56990  0.64900  0.37920  Biso   1.000  C
  C28      1.0000 0.43010  0.35100  0.37920  Biso   1.000  C
  C29      1.0000 0.64900  0.56990  0.87920  Biso   1.000  C
  C30      1.0000 0.35100  0.43010  0.87920  Biso   1.000  C
  C31      1.0000 0.43010  0.64900  0.12080  Biso   1.000  C
  C32      1.0000 0.56990  0.35100  0.12080  Biso   1.000  C
  C33      1.0000 0.25410  0.54810  0.55990  Biso   1.000  C
  C34      1.0000 0.74590  0.45190  0.55990  Biso   1.000  C
  C35      1.0000 0.54810  0.74590  0.44010  Biso   1.000  C
  C36      1.0000 0.45190  0.25410  0.44010  Biso   1.000  C
  C37      1.0000 0.74590  0.54810  0.94010  Biso   1.000  C
  C38      1.0000 0.25410  0.45190  0.94010  Biso   1.000  C
  C39      1.0000 0.45190  0.74590  0.05990  Biso   1.000  C
  C40      1.0000 0.54810  0.25410  0.05990  Biso   1.000  C
  H25      1.0000 0.27130  0.48690  0.51890  Biso   1.000  H
  H26      1.0000 0.72870  0.51310  0.51890  Biso   1.000  H
  H27      1.0000 0.48690  0.72870  0.48110  Biso   1.000  H
  H28      1.0000 0.51310  0.27130  0.48110  Biso   1.000  H
  H29      1.0000 0.72870  0.48690  0.98110  Biso   1.000  H
  H30      1.0000 0.27130  0.51310  0.98110  Biso   1.000  H
  H31      1.0000 0.51310  0.72870  0.01890  Biso   1.000  H
  H32      1.0000 0.48690  0.27130  0.01890  Biso   1.000  H
  H33      1.0000 0.19260  0.52590  0.59900  Biso   1.000  H
  H34      1.0000 0.80740  0.47410  0.59900  Biso   1.000  H
  H35      1.0000 0.52590  0.80740  0.40100  Biso   1.000  H
  H36      1.0000 0.47410  0.19260  0.40100  Biso   1.000  H
  H37      1.0000 0.80740  0.52590  0.90100  Biso   1.000  H
  H38      1.0000 0.19260  0.47410  0.90100  Biso   1.000  H
  H39      1.0000 0.47410  0.80740  0.09900  Biso   1.000  H
  H40      1.0000 0.52590  0.19260  0.09900  Biso   1.000  H
  C41      1.0000 0.14190  0.78430  0.45330  Biso   1.000  C
  C42      1.0000 0.85810  0.21570  0.45330  Biso   1.000  C
  C43      1.0000 0.78430  0.85810  0.54670  Biso   1.000  C
  C44      1.0000 0.21570  0.14190  0.54670  Biso   1.000  C
  C45      1.0000 0.85810  0.78430  0.04670  Biso   1.000  C
  C46      1.0000 0.14190  0.21570  0.04670  Biso   1.000  C
  C47      1.0000 0.21570  0.85810  0.95330  Biso   1.000  C
  C48      1.0000 0.78430  0.14190  0.95330  Biso   1.000  C
  H41      1.0000 0.09770  0.84660  0.44790  Biso   1.000  H
  H42      1.0000 0.90230  0.15340  0.44790  Biso   1.000  H
  H43      1.0000 0.84660  0.90230  0.55210  Biso   1.000  H
  H44      1.0000 0.15340  0.09770  0.55210  Biso   1.000  H
  H45      1.0000 0.90230  0.84660  0.05210  Biso   1.000  H
  H46      1.0000 0.09770  0.15340  0.05210  Biso   1.000  H
  H47      1.0000 0.15340  0.90230  0.94790  Biso   1.000  H
  H48      1.0000 0.84660  0.09770  0.94790  Biso   1.000  H
  C49      1.0000 0.14530  0.71610  0.52630  Biso   1.000  C
  C50      1.0000 0.85470  0.28390  0.52630  Biso   1.000  C
  C51      1.0000 0.71610  0.85470  0.47370  Biso   1.000  C
  C52      1.0000 0.28390  0.14530  0.47370  Biso   1.000  C
  C53      1.0000 0.85470  0.71610  0.97370  Biso   1.000  C
  C54      1.0000 0.14530  0.28390  0.97370  Biso   1.000  C
  C55      1.0000 0.28390  0.85470  0.02630  Biso   1.000  C
  C56      1.0000 0.71610  0.14530  0.02630  Biso   1.000  C
  H49      1.0000 0.10410  0.72060  0.58100  Biso   1.000  H
  H50      1.0000 0.89590  0.27940  0.58100  Biso   1.000  H
  H51      1.0000 0.72060  0.89590  0.41900  Biso   1.000  H
  H52      1.0000 0.27940  0.10410  0.41900  Biso   1.000  H
  H53      1.0000 0.89590  0.72060  0.91900  Biso   1.000  H
  H54      1.0000 0.10410  0.27940  0.91900  Biso   1.000  H
  H55      1.0000 0.27940  0.89590  0.08100  Biso   1.000  H
  H56      1.0000 0.72060  0.10410  0.08100  Biso   1.000  H
  O57      1.0000 0.40990  0.91220  0.58410  Biso   1.000  O
  O58      1.0000 0.59010  0.08780  0.58410  Biso   1.000  O
  O59      1.0000 0.91220  0.59010  0.41590  Biso   1.000  O
  O60      1.0000 0.08780  0.40990  0.41590  Biso   1.000  O
  O61      1.0000 0.59010  0.91220  0.91590  Biso   1.000  O
  O62      1.0000 0.40990  0.08780  0.91590  Biso   1.000  O
  O63      1.0000 0.08780  0.59010  0.08410  Biso   1.000  O
  O64      1.0000 0.91220  0.40990  0.08410  Biso   1.000  O
