data_image0
_cell_length_a       21.2189
_cell_length_b       8.7496
_cell_length_c       7.2499
_cell_angle_alpha    90
_cell_angle_beta     94.387
_cell_angle_gamma    90

_symmetry_space_group_name_H-M    "P 1"
_symmetry_int_tables_number       1

loop_
  _symmetry_equiv_pos_as_xyz
  'x, y, z'

loop_
  _atom_site_label
  _atom_site_occupancy
  _atom_site_fract_x
  _atom_site_fract_y
  _atom_site_fract_z
  _atom_site_thermal_displace_type
  _atom_site_B_iso_or_equiv
  _atom_site_type_symbol
  Cu1      1.0000 0.31100  0.92748  0.19604  Biso   1.000  Cu
  Cu2      1.0000 0.31100  0.07252  0.69604  Biso   1.000  Cu
  Cl1      1.0000 0.25316  0.12800  0.28870  Biso   1.000  Cl
  Cl2      1.0000 0.25316  0.87200  0.78870  Biso   1.000  Cl
  Cl3      1.0000 0.37841  0.08420  0.05770  Biso   1.000  Cl
  Cl4      1.0000 0.37841  0.91580  0.55770  Biso   1.000  Cl
  N1       1.0000 0.25360  0.76250  0.30510  Biso   1.000  N
  N2       1.0000 0.25360  0.23750  0.80510  Biso   1.000  N
  H1       1.0000 0.27220  0.74750  0.43170  Biso   1.000  H
  H2       1.0000 0.27220  0.25250  0.93170  Biso   1.000  H
  N3       1.0000 0.36260  0.73590  0.14570  Biso   1.000  N
  N4       1.0000 0.36260  0.26410  0.64570  Biso   1.000  N
  C1       1.0000 0.18380  0.79080  0.32890  Biso   1.000  C
  C2       1.0000 0.18380  0.20920  0.82890  Biso   1.000  C
  H3       1.0000 0.18130  0.88350  0.40390  Biso   1.000  H
  H4       1.0000 0.18130  0.11650  0.90390  Biso   1.000  H
  C3       1.0000 0.15510  0.66080  0.43600  Biso   1.000  C
  C4       1.0000 0.15510  0.33920  0.93600  Biso   1.000  C
  H5       1.0000 0.18110  0.64100  0.54960  Biso   1.000  H
  H6       1.0000 0.18110  0.35900  0.04960  Biso   1.000  H
  H7       1.0000 0.15330  0.56820  0.36240  Biso   1.000  H
  H8       1.0000 0.15330  0.43180  0.86240  Biso   1.000  H
  C5       1.0000 0.08790  0.70800  0.48100  Biso   1.000  C
  C6       1.0000 0.08790  0.29200  0.98100  Biso   1.000  C
  H9       1.0000 0.06870  0.62590  0.54710  Biso   1.000  H
  H10      1.0000 0.06870  0.37410  0.04710  Biso   1.000  H
  H11      1.0000 0.09030  0.79750  0.56080  Biso   1.000  H
  H12      1.0000 0.09030  0.20250  0.06080  Biso   1.000  H
  C7       1.0000 0.04770  0.74400  0.30500  Biso   1.000  C
  C8       1.0000 0.04770  0.25600  0.80500  Biso   1.000  C
  H13      1.0000 0.00610  0.77630  0.33540  Biso   1.000  H
  H14      1.0000 0.00610  0.22370  0.83540  Biso   1.000  H
  H15      1.0000 0.04260  0.65150  0.23050  Biso   1.000  H
  H16      1.0000 0.04260  0.34850  0.73050  Biso   1.000  H
  C9       1.0000 0.07720  0.86800  0.19200  Biso   1.000  C
  C10      1.0000 0.07720  0.13200  0.69200  Biso   1.000  C
  H17      1.0000 0.07900  0.96310  0.26140  Biso   1.000  H
  H18      1.0000 0.07900  0.03690  0.76140  Biso   1.000  H
  H19      1.0000 0.05150  0.88460  0.07750  Biso   1.000  H
  H20      1.0000 0.05150  0.11540  0.57750  Biso   1.000  H
  C11      1.0000 0.14490  0.81930  0.15000  Biso   1.000  C
  C12      1.0000 0.14490  0.18070  0.65000  Biso   1.000  C
  H21      1.0000 0.14300  0.72710  0.07510  Biso   1.000  H
  H22      1.0000 0.14300  0.27290  0.57510  Biso   1.000  H
  H23      1.0000 0.16430  0.89930  0.08050  Biso   1.000  H
  H24      1.0000 0.16430  0.10070  0.58050  Biso   1.000  H
  C13      1.0000 0.26530  0.61950  0.21400  Biso   1.000  C
  C14      1.0000 0.26530  0.38050  0.71400  Biso   1.000  C
  H25      1.0000 0.23970  0.61430  0.09720  Biso   1.000  H
  H26      1.0000 0.23970  0.38570  0.59720  Biso   1.000  H
  H27      1.0000 0.25330  0.53500  0.29040  Biso   1.000  H
  H28      1.0000 0.25330  0.46500  0.79040  Biso   1.000  H
  C15      1.0000 0.33320  0.60560  0.17880  Biso   1.000  C
  C16      1.0000 0.33320  0.39440  0.67880  Biso   1.000  C
  C17      1.0000 0.36440  0.46720  0.17000  Biso   1.000  C
  C18      1.0000 0.36440  0.53280  0.67000  Biso   1.000  C
  H29      1.0000 0.34340  0.37580  0.18870  Biso   1.000  H
  H30      1.0000 0.34340  0.62420  0.68870  Biso   1.000  H
  C19      1.0000 0.42720  0.46780  0.13300  Biso   1.000  C
  C20      1.0000 0.42720  0.53220  0.63300  Biso   1.000  C
  H31      1.0000 0.44900  0.37570  0.13010  Biso   1.000  H
  H32      1.0000 0.44900  0.62430  0.63010  Biso   1.000  H
  C21      1.0000 0.45750  0.59800  0.10200  Biso   1.000  C
  C22      1.0000 0.45750  0.40200  0.60200  Biso   1.000  C
  H33      1.0000 0.50010  0.59840  0.08060  Biso   1.000  H
  H34      1.0000 0.50010  0.40160  0.58060  Biso   1.000  H
  C23      1.0000 0.42240  0.73520  0.10400  Biso   1.000  C
  C24      1.0000 0.42240  0.26480  0.60400  Biso   1.000  C
  H35      1.0000 0.44150  0.82680  0.07430  Biso   1.000  H
  H36      1.0000 0.44150  0.17320  0.57430  Biso   1.000  H
  Cu3      1.0000 0.68535  0.57352  0.56233  Biso   1.000  Cu
  Cu4      1.0000 0.68535  0.42648  0.06233  Biso   1.000  Cu
  Cl5      1.0000 0.61790  0.42160  0.38510  Biso   1.000  Cl
  Cl6      1.0000 0.61790  0.57840  0.88510  Biso   1.000  Cl
  Cl7      1.0000 0.74430  0.37230  0.67350  Biso   1.000  Cl
  Cl8      1.0000 0.74430  0.62770  0.17350  Biso   1.000  Cl
  N5       1.0000 0.63450  0.76530  0.49420  Biso   1.000  N
  N6       1.0000 0.63450  0.23470  0.99420  Biso   1.000  N
  N7       1.0000 0.74620  0.73910  0.69350  Biso   1.000  N
  N8       1.0000 0.74620  0.26090  0.19350  Biso   1.000  N
  H37      1.0000 0.72800  0.75600  0.81200  Biso   1.000  H
  H38      1.0000 0.72800  0.24400  0.31200  Biso   1.000  H
  C25      1.0000 0.66470  0.89720  0.52680  Biso   1.000  C
  C26      1.0000 0.66470  0.10280  0.02680  Biso   1.000  C
  C27      1.0000 0.63560  0.03880  0.50600  Biso   1.000  C
  C28      1.0000 0.63560  0.96120  0.00600  Biso   1.000  C
  H39      1.0000 0.65840  0.12840  0.52880  Biso   1.000  H
  H40      1.0000 0.65840  0.87160  0.02880  Biso   1.000  H
  C29      1.0000 0.57170  0.04370  0.45000  Biso   1.000  C
  C30      1.0000 0.57170  0.95630  0.95000  Biso   1.000  C
  H41      1.0000 0.55020  0.13590  0.43300  Biso   1.000  H
  H42      1.0000 0.55020  0.86410  0.93300  Biso   1.000  H
  C31      1.0000 0.54160  0.90600  0.42000  Biso   1.000  C
  C32      1.0000 0.54160  0.09400  0.92000  Biso   1.000  C
  H43      1.0000 0.49850  0.90600  0.38380  Biso   1.000  H
  H44      1.0000 0.49850  0.09400  0.88380  Biso   1.000  H
  C33      1.0000 0.57240  0.76930  0.44100  Biso   1.000  C
  C34      1.0000 0.57240  0.23070  0.94100  Biso   1.000  C
  H45      1.0000 0.55030  0.67860  0.41890  Biso   1.000  H
  H46      1.0000 0.55030  0.32140  0.91890  Biso   1.000  H
  C35      1.0000 0.73330  0.88460  0.59300  Biso   1.000  C
  C36      1.0000 0.73330  0.11540  0.09300  Biso   1.000  C
  H47      1.0000 0.75900  0.89000  0.48840  Biso   1.000  H
  H48      1.0000 0.75900  0.11000  0.98840  Biso   1.000  H
  H49      1.0000 0.74490  0.96970  0.67480  Biso   1.000  H
  H50      1.0000 0.74490  0.03030  0.17480  Biso   1.000  H
  C37      1.0000 0.81330  0.70920  0.74790  Biso   1.000  C
  C38      1.0000 0.81330  0.29080  0.24790  Biso   1.000  C
  H51      1.0000 0.81510  0.61710  0.82500  Biso   1.000  H
  H52      1.0000 0.81510  0.38290  0.32500  Biso   1.000  H
  C39      1.0000 0.85300  0.67700  0.58300  Biso   1.000  C
  C40      1.0000 0.85300  0.32300  0.08300  Biso   1.000  C
  H53      1.0000 0.83330  0.59660  0.50680  Biso   1.000  H
  H54      1.0000 0.83330  0.40340  0.00680  Biso   1.000  H
  H55      1.0000 0.85540  0.76810  0.50820  Biso   1.000  H
  H56      1.0000 0.85540  0.23190  0.00820  Biso   1.000  H
  C41      1.0000 0.91950  0.62700  0.65700  Biso   1.000  C
  C42      1.0000 0.91950  0.37300  0.15700  Biso   1.000  C
  H57      1.0000 0.94460  0.60520  0.55390  Biso   1.000  H
  H58      1.0000 0.94460  0.39480  0.05390  Biso   1.000  H
  H59      1.0000 0.91690  0.53510  0.72990  Biso   1.000  H
  H60      1.0000 0.91690  0.46490  0.22990  Biso   1.000  H
  C43      1.0000 0.95220  0.75500  0.77800  Biso   1.000  C
  C44      1.0000 0.95220  0.24500  0.27800  Biso   1.000  C
  H61      1.0000 0.95750  0.84580  0.70400  Biso   1.000  H
  H62      1.0000 0.95750  0.15420  0.20400  Biso   1.000  H
  H63      1.0000 0.99360  0.72110  0.82740  Biso   1.000  H
  H64      1.0000 0.99360  0.27890  0.32740  Biso   1.000  H
  C45      1.0000 0.91050  0.79300  0.93900  Biso   1.000  C
  C46      1.0000 0.91050  0.20700  0.43900  Biso   1.000  C
  H65      1.0000 0.90830  0.70400  0.01890  Biso   1.000  H
  H66      1.0000 0.90830  0.29600  0.51890  Biso   1.000  H
  H67      1.0000 0.92960  0.87570  0.01260  Biso   1.000  H
  H68      1.0000 0.92960  0.12430  0.51260  Biso   1.000  H
  C47      1.0000 0.84400  0.83810  0.86600  Biso   1.000  C
  C48      1.0000 0.84400  0.16190  0.36600  Biso   1.000  C
  H69      1.0000 0.84590  0.93000  0.79150  Biso   1.000  H
  H70      1.0000 0.84590  0.07000  0.29150  Biso   1.000  H
  H71      1.0000 0.81870  0.85990  0.96840  Biso   1.000  H
  H72      1.0000 0.81870  0.14010  0.46840  Biso   1.000  H
