data_image0
_cell_length_a       7.3012
_cell_length_b       11.7373
_cell_length_c       13.9407
_cell_angle_alpha    74.686
_cell_angle_beta     77.195
_cell_angle_gamma    84.677

_symmetry_space_group_name_H-M    "P 1"
_symmetry_int_tables_number       1

loop_
  _symmetry_equiv_pos_as_xyz
  'x, y, z'

loop_
  _atom_site_label
  _atom_site_occupancy
  _atom_site_fract_x
  _atom_site_fract_y
  _atom_site_fract_z
  _atom_site_thermal_displace_type
  _atom_site_B_iso_or_equiv
  _atom_site_type_symbol
  Cu1      1.0000 0.00000  0.50000  0.50000  Biso   1.000  Cu
  O1       1.0000 0.10240  0.52770  0.60960  Biso   1.000  O
  O2       1.0000 0.89760  0.47230  0.39040  Biso   1.000  O
  O3       1.0000 0.28760  0.61260  0.37520  Biso   1.000  O
  O4       1.0000 0.71240  0.38740  0.62480  Biso   1.000  O
  H1       1.0000 0.25400  0.57000  0.34400  Biso   1.000  H
  H2       1.0000 0.74600  0.43000  0.65600  Biso   1.000  H
  H3       1.0000 0.26700  0.68370  0.35200  Biso   1.000  H
  H4       1.0000 0.73300  0.31630  0.64800  Biso   1.000  H
  O5       1.0000 0.83910  0.51450  0.72980  Biso   1.000  O
  O6       1.0000 0.16090  0.48550  0.27020  Biso   1.000  O
  O7       1.0000 0.41910  0.67580  0.94230  Biso   1.000  O
  O8       1.0000 0.58090  0.32420  0.05770  Biso   1.000  O
  O9       1.0000 0.54760  0.80670  0.06440  Biso   1.000  O
  O10      1.0000 0.45240  0.19330  0.93560  Biso   1.000  O
  O11      1.0000 0.20240  0.87650  0.27860  Biso   1.000  O
  O12      1.0000 0.79760  0.12350  0.72140  Biso   1.000  O
  O13      1.0000 0.14100  0.05610  0.18750  Biso   1.000  O
  O14      1.0000 0.85900  0.94390  0.81250  Biso   1.000  O
  N1       1.0000 0.15140  0.34850  0.51090  Biso   1.000  N
  N2       1.0000 0.84860  0.65150  0.48910  Biso   1.000  N
  C1       1.0000 0.00810  0.53670  0.69580  Biso   1.000  C
  C2       1.0000 0.99190  0.46330  0.30420  Biso   1.000  C
  C3       1.0000 0.11320  0.57780  0.76140  Biso   1.000  C
  C4       1.0000 0.88680  0.42220  0.23860  Biso   1.000  C
  C5       1.0000 0.30640  0.58710  0.73510  Biso   1.000  C
  C6       1.0000 0.69360  0.41290  0.26490  Biso   1.000  C
  H5       1.0000 0.37130  0.57030  0.67470  Biso   1.000  H
  H6       1.0000 0.62870  0.42970  0.32530  Biso   1.000  H
  C7       1.0000 0.40360  0.62010  0.79540  Biso   1.000  C
  C8       1.0000 0.59640  0.37990  0.20460  Biso   1.000  C
  H7       1.0000 0.53350  0.62540  0.77610  Biso   1.000  H
  H8       1.0000 0.46650  0.37460  0.22390  Biso   1.000  H
  C9       1.0000 0.30930  0.64600  0.88570  Biso   1.000  C
  C10      1.0000 0.69070  0.35400  0.11430  Biso   1.000  C
  C11      1.0000 0.11430  0.64060  0.91170  Biso   1.000  C
  C12      1.0000 0.88570  0.35940  0.08830  Biso   1.000  C
  H9       1.0000 0.04880  0.66050  0.97060  Biso   1.000  H
  H10      1.0000 0.95120  0.33950  0.02940  Biso   1.000  H
  C13      1.0000 0.01900  0.60580  0.85060  Biso   1.000  C
  C14      1.0000 0.98100  0.39420  0.14940  Biso   1.000  C
  H11      1.0000 0.88900  0.60090  0.86920  Biso   1.000  H
  H12      1.0000 0.11100  0.39910  0.13080  Biso   1.000  H
  C15      1.0000 0.33750  0.67740  0.04530  Biso   1.000  C
  C16      1.0000 0.66250  0.32260  0.95470  Biso   1.000  C
  H13      1.0000 0.27170  0.60510  0.08000  Biso   1.000  H
  H14      1.0000 0.72830  0.39490  0.92000  Biso   1.000  H
  H15      1.0000 0.24800  0.74370  0.04680  Biso   1.000  H
  H16      1.0000 0.75200  0.25630  0.95320  Biso   1.000  H
  C17      1.0000 0.48980  0.68820  0.09610  Biso   1.000  C
  C18      1.0000 0.51020  0.31180  0.90390  Biso   1.000  C
  H17      1.0000 0.44550  0.66610  0.16930  Biso   1.000  H
  H18      1.0000 0.55450  0.33390  0.83070  Biso   1.000  H
  H19      1.0000 0.59510  0.63550  0.07870  Biso   1.000  H
  H20      1.0000 0.40490  0.36450  0.92130  Biso   1.000  H
  C19      1.0000 0.68410  0.83340  0.10640  Biso   1.000  C
  C20      1.0000 0.31590  0.16660  0.89360  Biso   1.000  C
  C21      1.0000 0.77880  0.75340  0.17210  Biso   1.000  C
  C22      1.0000 0.22120  0.24660  0.82790  Biso   1.000  C
  H21      1.0000 0.74920  0.67410  0.19180  Biso   1.000  H
  H22      1.0000 0.25080  0.32590  0.80820  Biso   1.000  H
  C23      1.0000 0.91560  0.79060  0.20800  Biso   1.000  C
  C24      1.0000 0.08440  0.20940  0.79200  Biso   1.000  C
  H23      1.0000 0.97900  0.73540  0.25160  Biso   1.000  H
  H24      1.0000 0.02100  0.26460  0.74840  Biso   1.000  H
  C25      1.0000 0.96280  0.90690  0.18200  Biso   1.000  C
  C26      1.0000 0.03720  0.09310  0.81800  Biso   1.000  C
  C27      1.0000 0.86370  0.98680  0.11820  Biso   1.000  C
  C28      1.0000 0.13630  0.01320  0.88180  Biso   1.000  C
  H25      1.0000 0.89070  0.06650  0.10080  Biso   1.000  H
  H26      1.0000 0.10930  0.93350  0.89920  Biso   1.000  H
  C29      1.0000 0.72760  0.95190  0.08040  Biso   1.000  C
  C30      1.0000 0.27240  0.04810  0.91960  Biso   1.000  C
  H27      1.0000 0.66380  0.00740  0.03710  Biso   1.000  H
  H28      1.0000 0.33620  0.99260  0.96290  Biso   1.000  H
  C31      1.0000 0.11290  0.94130  0.22120  Biso   1.000  C
  C32      1.0000 0.88710  0.05870  0.77880  Biso   1.000  C
  C33      1.0000 0.29200  0.10600  0.21660  Biso   1.000  C
  C34      1.0000 0.70800  0.89400  0.78340  Biso   1.000  C
  H29      1.0000 0.32570  0.18040  0.16930  Biso   1.000  H
  H30      1.0000 0.67430  0.81960  0.83070  Biso   1.000  H
  H31      1.0000 0.39970  0.05250  0.21580  Biso   1.000  H
  H32      1.0000 0.60030  0.94750  0.78420  Biso   1.000  H
  H33      1.0000 0.24900  0.11770  0.28370  Biso   1.000  H
  H34      1.0000 0.75100  0.88230  0.71630  Biso   1.000  H
  C35      1.0000 0.08500  0.25460  0.49650  Biso   1.000  C
  C36      1.0000 0.91500  0.74540  0.50350  Biso   1.000  C
  H35      1.0000 0.96760  0.26140  0.47950  Biso   1.000  H
  H36      1.0000 0.03240  0.73860  0.52050  Biso   1.000  H
  C37      1.0000 0.18160  0.14760  0.50570  Biso   1.000  C
  C38      1.0000 0.81840  0.85240  0.49430  Biso   1.000  C
  H37      1.0000 0.13000  0.08410  0.49420  Biso   1.000  H
  H38      1.0000 0.87000  0.91590  0.50580  Biso   1.000  H
  C39      1.0000 0.35560  0.13410  0.53190  Biso   1.000  C
  C40      1.0000 0.64440  0.86590  0.46810  Biso   1.000  C
  C41      1.0000 0.42320  0.23130  0.54530  Biso   1.000  C
  C42      1.0000 0.57680  0.76870  0.45470  Biso   1.000  C
  H39      1.0000 0.54050  0.22650  0.56220  Biso   1.000  H
  H40      1.0000 0.45950  0.77350  0.43780  Biso   1.000  H
  C43      1.0000 0.32180  0.33610  0.53450  Biso   1.000  C
  C44      1.0000 0.67820  0.66390  0.46550  Biso   1.000  C
  H41      1.0000 0.37270  0.40120  0.54390  Biso   1.000  H
  H42      1.0000 0.62730  0.59880  0.45610  Biso   1.000  H
  C45      1.0000 0.45730  0.01250  0.54840  Biso   1.000  C
  C46      1.0000 0.54270  0.98750  0.45160  Biso   1.000  C
  H43      1.0000 0.56250  0.02010  0.57920  Biso   1.000  H
  H44      1.0000 0.43750  0.97990  0.42080  Biso   1.000  H
  C47      1.0000 0.33870  0.91530  0.62540  Biso   1.000  C
  C48      1.0000 0.66130  0.08470  0.37460  Biso   1.000  C
  H45      1.0000 0.41540  0.84450  0.64020  Biso   1.000  H
  H46      1.0000 0.58460  0.15550  0.35980  Biso   1.000  H
  H47      1.0000 0.23680  0.90020  0.59770  Biso   1.000  H
  H48      1.0000 0.76320  0.09980  0.40230  Biso   1.000  H
  H49      1.0000 0.28910  0.94020  0.68670  Biso   1.000  H
  H50      1.0000 0.71090  0.05980  0.31330  Biso   1.000  H
