data_image0
_cell_length_a       5.688
_cell_length_b       17.917
_cell_length_c       20.904
_cell_angle_alpha    90
_cell_angle_beta     92.959
_cell_angle_gamma    90

_symmetry_space_group_name_H-M    "P 1"
_symmetry_int_tables_number       1

loop_
  _symmetry_equiv_pos_as_xyz
  'x, y, z'

loop_
  _atom_site_label
  _atom_site_occupancy
  _atom_site_fract_x
  _atom_site_fract_y
  _atom_site_fract_z
  _atom_site_thermal_displace_type
  _atom_site_B_iso_or_equiv
  _atom_site_type_symbol
  Cu1      1.0000 0.79095  0.90352  0.88667  Biso   1.000  Cu
  Cu2      1.0000 0.20905  0.40352  0.61333  Biso   1.000  Cu
  Cu3      1.0000 0.20905  0.09648  0.11333  Biso   1.000  Cu
  Cu4      1.0000 0.79095  0.59648  0.38667  Biso   1.000  Cu
  Cu5      1.0000 0.00000  0.00000  0.00000  Biso   1.000  Cu
  Cu6      1.0000 0.00000  0.50000  0.50000  Biso   1.000  Cu
  O1       1.0000 0.77650  0.98334  0.82386  Biso   1.000  O
  O2       1.0000 0.22350  0.48334  0.67614  Biso   1.000  O
  O3       1.0000 0.22350  0.01666  0.17614  Biso   1.000  O
  O4       1.0000 0.77650  0.51666  0.32386  Biso   1.000  O
  O5       1.0000 0.71700  0.97141  0.95348  Biso   1.000  O
  O6       1.0000 0.28300  0.47141  0.54652  Biso   1.000  O
  O7       1.0000 0.28300  0.02859  0.04652  Biso   1.000  O
  O8       1.0000 0.71700  0.52859  0.45348  Biso   1.000  O
  H1       1.0000 0.62170  0.94960  0.97730  Biso   1.000  H
  H2       1.0000 0.37830  0.44960  0.52270  Biso   1.000  H
  H3       1.0000 0.37830  0.05040  0.02270  Biso   1.000  H
  H4       1.0000 0.62170  0.55040  0.47730  Biso   1.000  H
  N1       1.0000 0.94820  0.92231  0.06668  Biso   1.000  N
  N2       1.0000 0.05180  0.42231  0.43332  Biso   1.000  N
  N3       1.0000 0.05180  0.07769  0.93332  Biso   1.000  N
  N4       1.0000 0.94820  0.57769  0.56668  Biso   1.000  N
  O9       1.0000 0.81040  0.81729  0.94202  Biso   1.000  O
  O10      1.0000 0.18960  0.31729  0.55798  Biso   1.000  O
  O11      1.0000 0.18960  0.18271  0.05798  Biso   1.000  O
  O12      1.0000 0.81040  0.68271  0.44202  Biso   1.000  O
  O13      1.0000 0.18310  0.91370  0.90943  Biso   1.000  O
  O14      1.0000 0.81690  0.41370  0.59057  Biso   1.000  O
  O15      1.0000 0.81690  0.08630  0.09057  Biso   1.000  O
  O16      1.0000 0.18310  0.58630  0.40943  Biso   1.000  O
  H5       1.0000 0.23580  0.87440  0.92790  Biso   1.000  H
  H6       1.0000 0.76420  0.37440  0.57210  Biso   1.000  H
  H7       1.0000 0.76420  0.12560  0.07210  Biso   1.000  H
  H8       1.0000 0.23580  0.62560  0.42790  Biso   1.000  H
  H9       1.0000 0.25650  0.92070  0.87560  Biso   1.000  H
  H10      1.0000 0.74350  0.42070  0.62440  Biso   1.000  H
  H11      1.0000 0.74350  0.07930  0.12440  Biso   1.000  H
  H12      1.0000 0.25650  0.57930  0.37560  Biso   1.000  H
  N5       1.0000 0.81750  0.66703  0.31346  Biso   1.000  N
  N6       1.0000 0.18250  0.16703  0.18654  Biso   1.000  N
  N7       1.0000 0.18250  0.33297  0.68654  Biso   1.000  N
  N8       1.0000 0.81750  0.83297  0.81346  Biso   1.000  N
  C1       1.0000 0.09070  0.82120  0.12845  Biso   1.000  C
  C2       1.0000 0.90930  0.32120  0.37155  Biso   1.000  C
  C3       1.0000 0.90930  0.17880  0.87155  Biso   1.000  C
  C4       1.0000 0.09070  0.67880  0.62845  Biso   1.000  C
  H13      1.0000 0.21290  0.78590  0.13720  Biso   1.000  H
  H14      1.0000 0.78710  0.28590  0.36280  Biso   1.000  H
  H15      1.0000 0.78710  0.21410  0.86280  Biso   1.000  H
  H16      1.0000 0.21290  0.71410  0.63720  Biso   1.000  H
  C5       1.0000 0.11410  0.87370  0.08273  Biso   1.000  C
  C6       1.0000 0.88590  0.37370  0.41727  Biso   1.000  C
  C7       1.0000 0.88590  0.12630  0.91727  Biso   1.000  C
  C8       1.0000 0.11410  0.62630  0.58273  Biso   1.000  C
  H17      1.0000 0.25710  0.87560  0.06120  Biso   1.000  H
  H18      1.0000 0.74290  0.37560  0.43880  Biso   1.000  H
  H19      1.0000 0.74290  0.12440  0.93880  Biso   1.000  H
  H20      1.0000 0.25710  0.62440  0.56120  Biso   1.000  H
  C9       1.0000 0.75390  0.91966  0.09766  Biso   1.000  C
  C10      1.0000 0.24610  0.41966  0.40234  Biso   1.000  C
  C11      1.0000 0.24610  0.08034  0.90234  Biso   1.000  C
  C12      1.0000 0.75390  0.58034  0.59766  Biso   1.000  C
  H21      1.0000 0.63220  0.95420  0.08640  Biso   1.000  H
  H22      1.0000 0.36780  0.45420  0.41360  Biso   1.000  H
  H23      1.0000 0.36780  0.04580  0.91360  Biso   1.000  H
  H24      1.0000 0.63220  0.54580  0.58640  Biso   1.000  H
  C13      1.0000 0.89070  0.81889  0.16212  Biso   1.000  C
  C14      1.0000 0.10930  0.31889  0.33788  Biso   1.000  C
  C15      1.0000 0.10930  0.18111  0.83788  Biso   1.000  C
  C16      1.0000 0.89070  0.68111  0.66212  Biso   1.000  C
  O17      1.0000 0.41300  0.94827  0.80090  Biso   1.000  O
  O18      1.0000 0.58700  0.44827  0.69910  Biso   1.000  O
  O19      1.0000 0.58700  0.05173  0.19910  Biso   1.000  O
  O20      1.0000 0.41300  0.55173  0.30090  Biso   1.000  O
  C17      1.0000 0.69890  0.77610  0.25950  Biso   1.000  C
  C18      1.0000 0.30110  0.27610  0.24050  Biso   1.000  C
  C19      1.0000 0.30110  0.22390  0.74050  Biso   1.000  C
  C20      1.0000 0.69890  0.72390  0.75950  Biso   1.000  C
  H25      1.0000 0.59770  0.81830  0.25730  Biso   1.000  H
  H26      1.0000 0.40230  0.31830  0.24270  Biso   1.000  H
  H27      1.0000 0.40230  0.18170  0.74270  Biso   1.000  H
  H28      1.0000 0.59770  0.68170  0.75730  Biso   1.000  H
  C21      1.0000 0.71700  0.72130  0.00994  Biso   1.000  C
  C22      1.0000 0.28300  0.22130  0.49006  Biso   1.000  C
  C23      1.0000 0.28300  0.27870  0.99006  Biso   1.000  C
  C24      1.0000 0.71700  0.77870  0.50994  Biso   1.000  C
  C25      1.0000 0.86310  0.76580  0.21371  Biso   1.000  C
  C26      1.0000 0.13690  0.26580  0.28629  Biso   1.000  C
  C27      1.0000 0.13690  0.23420  0.78629  Biso   1.000  C
  C28      1.0000 0.86310  0.73420  0.71371  Biso   1.000  C
  C29      1.0000 0.65320  0.79020  0.97391  Biso   1.000  C
  C30      1.0000 0.34680  0.29020  0.52609  Biso   1.000  C
  C31      1.0000 0.34680  0.20980  0.02609  Biso   1.000  C
  C32      1.0000 0.65320  0.70980  0.47391  Biso   1.000  C
  O21      1.0000 0.45930  0.81620  0.97776  Biso   1.000  O
  O22      1.0000 0.54070  0.31620  0.52224  Biso   1.000  O
  O23      1.0000 0.54070  0.18380  0.02224  Biso   1.000  O
  O24      1.0000 0.45930  0.68380  0.47776  Biso   1.000  O
  C33      1.0000 0.78100  0.07220  0.71696  Biso   1.000  C
  C34      1.0000 0.21900  0.57220  0.78304  Biso   1.000  C
  C35      1.0000 0.21900  0.92780  0.28304  Biso   1.000  C
  C36      1.0000 0.78100  0.42780  0.21696  Biso   1.000  C
  H29      1.0000 0.91420  0.07330  0.74630  Biso   1.000  H
  H30      1.0000 0.08580  0.57330  0.75370  Biso   1.000  H
  H31      1.0000 0.08580  0.92670  0.25370  Biso   1.000  H
  H32      1.0000 0.91420  0.42670  0.24630  Biso   1.000  H
  C37      1.0000 0.59060  0.98330  0.78957  Biso   1.000  C
  C38      1.0000 0.40940  0.48330  0.71043  Biso   1.000  C
  C39      1.0000 0.40940  0.01670  0.21043  Biso   1.000  C
  C40      1.0000 0.59060  0.51670  0.28957  Biso   1.000  C
  C41      1.0000 0.68330  0.72630  0.30689  Biso   1.000  C
  C42      1.0000 0.31670  0.22630  0.19311  Biso   1.000  C
  C43      1.0000 0.31670  0.27370  0.69311  Biso   1.000  C
  C44      1.0000 0.68330  0.77370  0.80689  Biso   1.000  C
  H33      1.0000 0.56830  0.73450  0.33750  Biso   1.000  H
  H34      1.0000 0.43170  0.23450  0.16250  Biso   1.000  H
  H35      1.0000 0.43170  0.26550  0.66250  Biso   1.000  H
  H36      1.0000 0.56830  0.76550  0.83750  Biso   1.000  H
  C45      1.0000 0.59110  0.02880  0.73004  Biso   1.000  C
  C46      1.0000 0.40890  0.52880  0.76996  Biso   1.000  C
  C47      1.0000 0.40890  0.97120  0.26996  Biso   1.000  C
  C48      1.0000 0.59110  0.47120  0.23004  Biso   1.000  C
  C49      1.0000 0.99810  0.70340  0.22079  Biso   1.000  C
  C50      1.0000 0.00190  0.20340  0.27921  Biso   1.000  C
  C51      1.0000 0.00190  0.29660  0.77921  Biso   1.000  C
  C52      1.0000 0.99810  0.79660  0.72079  Biso   1.000  C
  H37      1.0000 0.11350  0.69310  0.19070  Biso   1.000  H
  H38      1.0000 0.88650  0.19310  0.30930  Biso   1.000  H
  H39      1.0000 0.88650  0.30690  0.80930  Biso   1.000  H
  H40      1.0000 0.11350  0.80690  0.69070  Biso   1.000  H
  C53      1.0000 0.97060  0.65580  0.26998  Biso   1.000  C
  C54      1.0000 0.02940  0.15580  0.23002  Biso   1.000  C
  C55      1.0000 0.02940  0.34420  0.73002  Biso   1.000  C
  C56      1.0000 0.97060  0.84420  0.76998  Biso   1.000  C
  H41      1.0000 0.06650  0.61240  0.27310  Biso   1.000  H
  H42      1.0000 0.93350  0.11240  0.22690  Biso   1.000  H
  H43      1.0000 0.93350  0.38760  0.72690  Biso   1.000  H
  H44      1.0000 0.06650  0.88760  0.77310  Biso   1.000  H
  C57      1.0000 0.71840  0.87000  0.14502  Biso   1.000  C
  C58      1.0000 0.28160  0.37000  0.35498  Biso   1.000  C
  C59      1.0000 0.28160  0.13000  0.85498  Biso   1.000  C
  C60      1.0000 0.71840  0.63000  0.64502  Biso   1.000  C
  H45      1.0000 0.57500  0.87050  0.16640  Biso   1.000  H
  H46      1.0000 0.42500  0.37050  0.33360  Biso   1.000  H
  H47      1.0000 0.42500  0.12950  0.83360  Biso   1.000  H
  H48      1.0000 0.57500  0.62950  0.66640  Biso   1.000  H
  C61      1.0000 0.40240  0.02720  0.68644  Biso   1.000  C
  C62      1.0000 0.59760  0.52720  0.81356  Biso   1.000  C
  C63      1.0000 0.59760  0.97280  0.31356  Biso   1.000  C
  C64      1.0000 0.40240  0.47280  0.18644  Biso   1.000  C
  H49      1.0000 0.26920  0.99730  0.69440  Biso   1.000  H
  H50      1.0000 0.73080  0.49730  0.80560  Biso   1.000  H
  H51      1.0000 0.73080  0.00270  0.30560  Biso   1.000  H
  H52      1.0000 0.26920  0.50270  0.19440  Biso   1.000  H
  C65      1.0000 0.92230  0.68540  0.00150  Biso   1.000  C
  C66      1.0000 0.07770  0.18540  0.49850  Biso   1.000  C
  C67      1.0000 0.07770  0.31460  0.99850  Biso   1.000  C
  C68      1.0000 0.92230  0.81460  0.50150  Biso   1.000  C
  H53      1.0000 0.03170  0.70560  0.97340  Biso   1.000  H
  H54      1.0000 0.96830  0.20560  0.52660  Biso   1.000  H
  H55      1.0000 0.96830  0.29440  0.02660  Biso   1.000  H
  H56      1.0000 0.03170  0.79440  0.47340  Biso   1.000  H
  C69      1.0000 0.78110  0.11360  0.66260  Biso   1.000  C
  C70      1.0000 0.21890  0.61360  0.83740  Biso   1.000  C
  C71      1.0000 0.21890  0.88640  0.33740  Biso   1.000  C
  C72      1.0000 0.78110  0.38640  0.16260  Biso   1.000  C
  H57      1.0000 0.91290  0.14420  0.65450  Biso   1.000  H
  H58      1.0000 0.08710  0.64420  0.84550  Biso   1.000  H
  H59      1.0000 0.08710  0.85580  0.34550  Biso   1.000  H
  H60      1.0000 0.91290  0.35580  0.15450  Biso   1.000  H
  C73      1.0000 0.56260  0.69210  0.05170  Biso   1.000  C
  C74      1.0000 0.43740  0.19210  0.44830  Biso   1.000  C
  C75      1.0000 0.43740  0.30790  0.94830  Biso   1.000  C
  C76      1.0000 0.56260  0.80790  0.55170  Biso   1.000  C
  H61      1.0000 0.41780  0.71660  0.05840  Biso   1.000  H
  H62      1.0000 0.58220  0.21660  0.44160  Biso   1.000  H
  H63      1.0000 0.58220  0.28340  0.94160  Biso   1.000  H
  H64      1.0000 0.41780  0.78340  0.55840  Biso   1.000  H
  C77      1.0000 0.40580  0.06860  0.63160  Biso   1.000  C
  C78      1.0000 0.59420  0.56860  0.86840  Biso   1.000  C
  C79      1.0000 0.59420  0.93140  0.36840  Biso   1.000  C
  C80      1.0000 0.40580  0.43140  0.13160  Biso   1.000  C
  H65      1.0000 0.27480  0.06710  0.60160  Biso   1.000  H
  H66      1.0000 0.72520  0.56710  0.89840  Biso   1.000  H
  H67      1.0000 0.72520  0.93290  0.39840  Biso   1.000  H
  H68      1.0000 0.27480  0.43290  0.10160  Biso   1.000  H
  C81      1.0000 0.97290  0.62030  0.03340  Biso   1.000  C
  C82      1.0000 0.02710  0.12030  0.46660  Biso   1.000  C
  C83      1.0000 0.02710  0.37970  0.96660  Biso   1.000  C
  C84      1.0000 0.97290  0.87970  0.53340  Biso   1.000  C
  H69      1.0000 0.11660  0.59510  0.02670  Biso   1.000  H
  H70      1.0000 0.88340  0.09510  0.47330  Biso   1.000  H
  H71      1.0000 0.88340  0.40490  0.97330  Biso   1.000  H
  H72      1.0000 0.11660  0.90490  0.52670  Biso   1.000  H
  C85      1.0000 0.59400  0.11160  0.61970  Biso   1.000  C
  C86      1.0000 0.40600  0.61160  0.88030  Biso   1.000  C
  C87      1.0000 0.40600  0.88840  0.38030  Biso   1.000  C
  C88      1.0000 0.59400  0.38840  0.11970  Biso   1.000  C
  H73      1.0000 0.59510  0.14030  0.58150  Biso   1.000  H
  H74      1.0000 0.40490  0.64030  0.91850  Biso   1.000  H
  H75      1.0000 0.40490  0.85970  0.41850  Biso   1.000  H
  H76      1.0000 0.59510  0.35970  0.08150  Biso   1.000  H
  C89      1.0000 0.82150  0.59150  0.07420  Biso   1.000  C
  C90      1.0000 0.17850  0.09150  0.42580  Biso   1.000  C
  C91      1.0000 0.17850  0.40850  0.92580  Biso   1.000  C
  C92      1.0000 0.82150  0.90850  0.57420  Biso   1.000  C
  H77      1.0000 0.85720  0.54610  0.09620  Biso   1.000  H
  H78      1.0000 0.14280  0.04610  0.40380  Biso   1.000  H
  H79      1.0000 0.14280  0.45390  0.90380  Biso   1.000  H
  H80      1.0000 0.85720  0.95390  0.59620  Biso   1.000  H
  C93      1.0000 0.61850  0.62780  0.08360  Biso   1.000  C
  C94      1.0000 0.38150  0.12780  0.41640  Biso   1.000  C
  C95      1.0000 0.38150  0.37220  0.91640  Biso   1.000  C
  C96      1.0000 0.61850  0.87220  0.58360  Biso   1.000  C
  H81      1.0000 0.51250  0.60810  0.11290  Biso   1.000  H
  H82      1.0000 0.48750  0.10810  0.38710  Biso   1.000  H
  H83      1.0000 0.48750  0.39190  0.88710  Biso   1.000  H
  H84      1.0000 0.51250  0.89190  0.61290  Biso   1.000  H
