data_image0
_cell_length_a       7.295
_cell_length_b       19.627
_cell_length_c       12.77
_cell_angle_alpha    90
_cell_angle_beta     101.25
_cell_angle_gamma    90

_symmetry_space_group_name_H-M    "P 1"
_symmetry_int_tables_number       1

loop_
  _symmetry_equiv_pos_as_xyz
  'x, y, z'

loop_
  _atom_site_label
  _atom_site_occupancy
  _atom_site_fract_x
  _atom_site_fract_y
  _atom_site_fract_z
  _atom_site_thermal_displace_type
  _atom_site_B_iso_or_equiv
  _atom_site_type_symbol
  Cu1      1.0000 0.14130  0.38020  0.01190  Biso   1.000  Cu
  Cu2      1.0000 0.35870  0.88020  0.48810  Biso   1.000  Cu
  Cu3      1.0000 0.85870  0.61980  0.98810  Biso   1.000  Cu
  Cu4      1.0000 0.64130  0.11980  0.51190  Biso   1.000  Cu
  Cl1      1.0000 0.28700  0.41640  0.47560  Biso   1.000  Cl
  Cl2      1.0000 0.21300  0.91640  0.02440  Biso   1.000  Cl
  Cl3      1.0000 0.71300  0.58360  0.52440  Biso   1.000  Cl
  Cl4      1.0000 0.78700  0.08360  0.97560  Biso   1.000  Cl
  C1       1.0000 0.14430  0.43570  0.80490  Biso   1.000  C
  C2       1.0000 0.35570  0.93570  0.69510  Biso   1.000  C
  C3       1.0000 0.85570  0.56430  0.19510  Biso   1.000  C
  C4       1.0000 0.64430  0.06430  0.30490  Biso   1.000  C
  C5       1.0000 0.16170  0.49290  0.74210  Biso   1.000  C
  C6       1.0000 0.33830  0.99290  0.75790  Biso   1.000  C
  C7       1.0000 0.83830  0.50710  0.25790  Biso   1.000  C
  C8       1.0000 0.66170  0.00710  0.24210  Biso   1.000  C
  C9       1.0000 0.20570  0.48950  0.64250  Biso   1.000  C
  C10      1.0000 0.29430  0.98950  0.85750  Biso   1.000  C
  C11      1.0000 0.79430  0.51050  0.35750  Biso   1.000  C
  C12      1.0000 0.70570  0.01050  0.14250  Biso   1.000  C
  C13      1.0000 0.23330  0.42430  0.60250  Biso   1.000  C
  C14      1.0000 0.26670  0.92430  0.89750  Biso   1.000  C
  C15      1.0000 0.76670  0.57570  0.39750  Biso   1.000  C
  C16      1.0000 0.73330  0.07570  0.10250  Biso   1.000  C
  C17      1.0000 0.21700  0.36750  0.65970  Biso   1.000  C
  C18      1.0000 0.28300  0.86750  0.84030  Biso   1.000  C
  C19      1.0000 0.78300  0.63250  0.34030  Biso   1.000  C
  C20      1.0000 0.71700  0.13250  0.15970  Biso   1.000  C
  C21      1.0000 0.17690  0.37120  0.76250  Biso   1.000  C
  C22      1.0000 0.32310  0.87120  0.73750  Biso   1.000  C
  C23      1.0000 0.82310  0.62880  0.23750  Biso   1.000  C
  C24      1.0000 0.67690  0.12880  0.26250  Biso   1.000  C
  C25      1.0000 0.17330  0.30850  0.82000  Biso   1.000  C
  C26      1.0000 0.32670  0.80850  0.68000  Biso   1.000  C
  C27      1.0000 0.82670  0.69150  0.18000  Biso   1.000  C
  C28      1.0000 0.67330  0.19150  0.32000  Biso   1.000  C
  N1       1.0000 0.15320  0.30380  0.91670  Biso   1.000  N
  N2       1.0000 0.34680  0.80380  0.58330  Biso   1.000  N
  N3       1.0000 0.84680  0.69620  0.08330  Biso   1.000  N
  N4       1.0000 0.65320  0.19620  0.41670  Biso   1.000  N
  C29      1.0000 0.16130  0.23720  0.96690  Biso   1.000  C
  C30      1.0000 0.33870  0.73720  0.53310  Biso   1.000  C
  C31      1.0000 0.83870  0.76280  0.03310  Biso   1.000  C
  C32      1.0000 0.66130  0.26280  0.46690  Biso   1.000  C
  C33      1.0000 0.17300  0.24400  0.08450  Biso   1.000  C
  C34      1.0000 0.32700  0.74400  0.41550  Biso   1.000  C
  C35      1.0000 0.82700  0.75600  0.91550  Biso   1.000  C
  C36      1.0000 0.67300  0.25600  0.58450  Biso   1.000  C
  C37      1.0000 0.18590  0.18850  0.15200  Biso   1.000  C
  C38      1.0000 0.31410  0.68850  0.34800  Biso   1.000  C
  C39      1.0000 0.81410  0.81150  0.84800  Biso   1.000  C
  C40      1.0000 0.68590  0.31150  0.65200  Biso   1.000  C
  C41      1.0000 0.18780  0.19810  0.25750  Biso   1.000  C
  C42      1.0000 0.31220  0.69810  0.24250  Biso   1.000  C
  C43      1.0000 0.81220  0.80190  0.74250  Biso   1.000  C
  C44      1.0000 0.68780  0.30190  0.75750  Biso   1.000  C
  C45      1.0000 0.17840  0.26340  0.29540  Biso   1.000  C
  C46      1.0000 0.32160  0.76340  0.20460  Biso   1.000  C
  C47      1.0000 0.82160  0.73660  0.70460  Biso   1.000  C
  C48      1.0000 0.67840  0.23660  0.79540  Biso   1.000  C
  C49      1.0000 0.16880  0.31640  0.22570  Biso   1.000  C
  C50      1.0000 0.33120  0.81640  0.27430  Biso   1.000  C
  C51      1.0000 0.83120  0.68360  0.77430  Biso   1.000  C
  C52      1.0000 0.66880  0.18360  0.72570  Biso   1.000  C
  N5       1.0000 0.16570  0.30770  0.12100  Biso   1.000  N
  N6       1.0000 0.33430  0.80770  0.37900  Biso   1.000  N
  N7       1.0000 0.83430  0.69230  0.87900  Biso   1.000  N
  N8       1.0000 0.66570  0.19230  0.62100  Biso   1.000  N
  O1       1.0000 0.10010  0.44460  0.89890  Biso   1.000  O
  O2       1.0000 0.39990  0.94460  0.60110  Biso   1.000  O
  O3       1.0000 0.89990  0.55540  0.10110  Biso   1.000  O
  O4       1.0000 0.60010  0.05540  0.39890  Biso   1.000  O
  C53      1.0000 0.22670  0.55340  0.58180  Biso   1.000  C
  C54      1.0000 0.27330  0.05340  0.91820  Biso   1.000  C
  C55      1.0000 0.77330  0.44660  0.41820  Biso   1.000  C
  C56      1.0000 0.72670  0.94660  0.08180  Biso   1.000  C
  O5       1.0000 0.15030  0.45540  0.11700  Biso   1.000  O
  O6       1.0000 0.34970  0.95540  0.38300  Biso   1.000  O
  O7       1.0000 0.84970  0.54460  0.88300  Biso   1.000  O
  O8       1.0000 0.65030  0.04460  0.61700  Biso   1.000  O
  C57      1.0000 0.31880  0.49110  0.16120  Biso   1.000  C
  C58      1.0000 0.18120  0.99110  0.33880  Biso   1.000  C
  C59      1.0000 0.68120  0.50890  0.83880  Biso   1.000  C
  C60      1.0000 0.81880  0.00890  0.66120  Biso   1.000  C
  Cl5      1.0000 0.65380  0.34570  0.06470  Biso   1.000  Cl
  Cl6      1.0000 0.84620  0.84570  0.43530  Biso   1.000  Cl
  Cl7      1.0000 0.34620  0.65430  0.93530  Biso   1.000  Cl
  Cl8      1.0000 0.15380  0.15430  0.56470  Biso   1.000  Cl
  O9       1.0000 0.49330  0.38620  0.02480  Biso   1.000  O
  O10      1.0000 0.00670  0.88620  0.47520  Biso   1.000  O
  O11      1.0000 0.50670  0.61380  0.97520  Biso   1.000  O
  O12      1.0000 0.99330  0.11380  0.52480  Biso   1.000  O
  O13      1.0000 0.80010  0.37620  0.02420  Biso   1.000  O
  O14      1.0000 0.69990  0.87620  0.47580  Biso   1.000  O
  O15      1.0000 0.19990  0.62380  0.97580  Biso   1.000  O
  O16      1.0000 0.30010  0.12380  0.52420  Biso   1.000  O
  O17      1.0000 0.69100  0.34590  0.17600  Biso   1.000  O
  O18      1.0000 0.80900  0.84590  0.32400  Biso   1.000  O
  O19      1.0000 0.30900  0.65410  0.82400  Biso   1.000  O
  O20      1.0000 0.19100  0.15410  0.67600  Biso   1.000  O
  O21      1.0000 0.61830  0.27880  0.02960  Biso   1.000  O
  O22      1.0000 0.88170  0.77880  0.47040  Biso   1.000  O
  O23      1.0000 0.38170  0.72120  0.97040  Biso   1.000  O
  O24      1.0000 0.11830  0.22120  0.52960  Biso   1.000  O
