data_image0
_cell_length_a       8.1851
_cell_length_b       18.804
_cell_length_c       14.6967
_cell_angle_alpha    90
_cell_angle_beta     116.09
_cell_angle_gamma    90

_symmetry_space_group_name_H-M    "P 1"
_symmetry_int_tables_number       1

loop_
  _symmetry_equiv_pos_as_xyz
  'x, y, z'

loop_
  _atom_site_label
  _atom_site_occupancy
  _atom_site_fract_x
  _atom_site_fract_y
  _atom_site_fract_z
  _atom_site_thermal_displace_type
  _atom_site_B_iso_or_equiv
  _atom_site_type_symbol
  Cu1      1.0000 0.16144  0.05500  0.80547  Biso   1.000  Cu
  Cu2      1.0000 0.83856  0.55500  0.69453  Biso   1.000  Cu
  Cu3      1.0000 0.83856  0.94499  0.19453  Biso   1.000  Cu
  Cu4      1.0000 0.16144  0.44499  0.30547  Biso   1.000  Cu
  O1       1.0000 0.99750  0.90536  0.74194  Biso   1.000  O
  O2       1.0000 0.00250  0.40536  0.75806  Biso   1.000  O
  O3       1.0000 0.00250  0.09464  0.25806  Biso   1.000  O
  O4       1.0000 0.99750  0.59464  0.24194  Biso   1.000  O
  O5       1.0000 0.26680  0.96009  0.81428  Biso   1.000  O
  O6       1.0000 0.73320  0.46009  0.68572  Biso   1.000  O
  O7       1.0000 0.73320  0.03991  0.18572  Biso   1.000  O
  O8       1.0000 0.26680  0.53991  0.31428  Biso   1.000  O
  O9       1.0000 0.98513  0.64297  0.71566  Biso   1.000  O
  O10      1.0000 0.01487  0.14297  0.78434  Biso   1.000  O
  O11      1.0000 0.01487  0.35703  0.28434  Biso   1.000  O
  O12      1.0000 0.98513  0.85703  0.21566  Biso   1.000  O
  O13      1.0000 0.24210  0.58281  0.75513  Biso   1.000  O
  O14      1.0000 0.75790  0.08281  0.74487  Biso   1.000  O
  O15      1.0000 0.75790  0.41719  0.24487  Biso   1.000  O
  O16      1.0000 0.24210  0.91719  0.25513  Biso   1.000  O
  O17      1.0000 0.44000  0.12694  0.86830  Biso   1.000  O
  O18      1.0000 0.56000  0.62694  0.63170  Biso   1.000  O
  O19      1.0000 0.56000  0.87306  0.13170  Biso   1.000  O
  O20      1.0000 0.44000  0.37306  0.36830  Biso   1.000  O
  N1       1.0000 0.21240  0.05400  0.53950  Biso   1.000  N
  N2       1.0000 0.78760  0.55400  0.96050  Biso   1.000  N
  N3       1.0000 0.78760  0.94600  0.46050  Biso   1.000  N
  N4       1.0000 0.21240  0.44600  0.03950  Biso   1.000  N
  N5       1.0000 0.14710  0.06619  0.66714  Biso   1.000  N
  N6       1.0000 0.85290  0.56619  0.83286  Biso   1.000  N
  N7       1.0000 0.85290  0.93381  0.33286  Biso   1.000  N
  N8       1.0000 0.14710  0.43381  0.16714  Biso   1.000  N
  N9       1.0000 0.27100  0.00132  0.09700  Biso   1.000  N
  N10      1.0000 0.72900  0.50132  0.40300  Biso   1.000  N
  N11      1.0000 0.72900  0.99868  0.90300  Biso   1.000  N
  N12      1.0000 0.27100  0.49868  0.59700  Biso   1.000  N
  N13      1.0000 0.19490  0.04551  0.94701  Biso   1.000  N
  N14      1.0000 0.80510  0.54551  0.55299  Biso   1.000  N
  N15      1.0000 0.80510  0.95449  0.05299  Biso   1.000  N
  N16      1.0000 0.19490  0.45449  0.44701  Biso   1.000  N
  N17      1.0000 0.53950  0.24077  0.90482  Biso   1.000  N
  N18      1.0000 0.46050  0.74077  0.59518  Biso   1.000  N
  N19      1.0000 0.46050  0.75923  0.09518  Biso   1.000  N
  N20      1.0000 0.53950  0.25923  0.40482  Biso   1.000  N
  C1       1.0000 0.25950  0.70771  0.78121  Biso   1.000  C
  C2       1.0000 0.74050  0.20771  0.71879  Biso   1.000  C
  C3       1.0000 0.74050  0.29229  0.21879  Biso   1.000  C
  C4       1.0000 0.25950  0.79229  0.28121  Biso   1.000  C
  C5       1.0000 0.44760  0.70682  0.82872  Biso   1.000  C
  C6       1.0000 0.55240  0.20682  0.67128  Biso   1.000  C
  C7       1.0000 0.55240  0.29318  0.17128  Biso   1.000  C
  C8       1.0000 0.44760  0.79318  0.32872  Biso   1.000  C
  C9       1.0000 0.54400  0.76927  0.86310  Biso   1.000  C
  C10      1.0000 0.45600  0.26927  0.63690  Biso   1.000  C
  C11      1.0000 0.45600  0.23073  0.13690  Biso   1.000  C
  C12      1.0000 0.54400  0.73073  0.36310  Biso   1.000  C
  C13      1.0000 0.45300  0.83325  0.84790  Biso   1.000  C
  C14      1.0000 0.54700  0.33325  0.65210  Biso   1.000  C
  C15      1.0000 0.54700  0.16675  0.15210  Biso   1.000  C
  C16      1.0000 0.45300  0.66675  0.34790  Biso   1.000  C
  C17      1.0000 0.26440  0.83543  0.79908  Biso   1.000  C
  C18      1.0000 0.73560  0.33543  0.70092  Biso   1.000  C
  C19      1.0000 0.73560  0.16457  0.20092  Biso   1.000  C
  C20      1.0000 0.26440  0.66457  0.29908  Biso   1.000  C
  C21      1.0000 0.16920  0.77236  0.76645  Biso   1.000  C
  C22      1.0000 0.83080  0.27236  0.73355  Biso   1.000  C
  C23      1.0000 0.83080  0.22764  0.23355  Biso   1.000  C
  C24      1.0000 0.16920  0.72764  0.26645  Biso   1.000  C
  C25      1.0000 0.15610  0.63869  0.74833  Biso   1.000  C
  C26      1.0000 0.84390  0.13869  0.75167  Biso   1.000  C
  C27      1.0000 0.84390  0.36131  0.25167  Biso   1.000  C
  C28      1.0000 0.15610  0.86131  0.24833  Biso   1.000  C
  C29      1.0000 0.16580  0.90528  0.78311  Biso   1.000  C
  C30      1.0000 0.83420  0.40528  0.71689  Biso   1.000  C
  C31      1.0000 0.83420  0.09472  0.21689  Biso   1.000  C
  C32      1.0000 0.16580  0.59472  0.28311  Biso   1.000  C
  C33      1.0000 0.11900  0.08570  0.99673  Biso   1.000  C
  C34      1.0000 0.88100  0.58570  0.50327  Biso   1.000  C
  C35      1.0000 0.88100  0.91430  0.00327  Biso   1.000  C
  C36      1.0000 0.11900  0.41430  0.49673  Biso   1.000  C
  C37      1.0000 0.16430  0.05757  0.08860  Biso   1.000  C
  C38      1.0000 0.83570  0.55757  0.41140  Biso   1.000  C
  C39      1.0000 0.83570  0.94243  0.91140  Biso   1.000  C
  C40      1.0000 0.16430  0.44243  0.58860  Biso   1.000  C
  C41      1.0000 0.28660  0.99494  0.01196  Biso   1.000  C
  C42      1.0000 0.71340  0.49494  0.48804  Biso   1.000  C
  C43      1.0000 0.71340  0.00506  0.98804  Biso   1.000  C
  C44      1.0000 0.28660  0.50506  0.51196  Biso   1.000  C
  C45      1.0000 0.24310  0.03091  0.63060  Biso   1.000  C
  C46      1.0000 0.75690  0.53091  0.86940  Biso   1.000  C
  C47      1.0000 0.75690  0.96909  0.36940  Biso   1.000  C
  C48      1.0000 0.24310  0.46909  0.13060  Biso   1.000  C
  C49      1.0000 0.09120  0.10680  0.51460  Biso   1.000  C
  C50      1.0000 0.90880  0.60680  0.98540  Biso   1.000  C
  C51      1.0000 0.90880  0.89320  0.48540  Biso   1.000  C
  C52      1.0000 0.09120  0.39320  0.01460  Biso   1.000  C
  C53      1.0000 0.05320  0.11495  0.59310  Biso   1.000  C
  C54      1.0000 0.94680  0.61495  0.90690  Biso   1.000  C
  C55      1.0000 0.94680  0.88505  0.40690  Biso   1.000  C
  C56      1.0000 0.05320  0.38505  0.09310  Biso   1.000  C
  C57      1.0000 0.49350  0.31584  0.89790  Biso   1.000  C
  C58      1.0000 0.50650  0.81584  0.60210  Biso   1.000  C
  C59      1.0000 0.50650  0.68416  0.10210  Biso   1.000  C
  C60      1.0000 0.49350  0.18416  0.39790  Biso   1.000  C
  C61      1.0000 0.41370  0.19096  0.86490  Biso   1.000  C
  C62      1.0000 0.58630  0.69096  0.63510  Biso   1.000  C
  C63      1.0000 0.58630  0.80904  0.13510  Biso   1.000  C
  C64      1.0000 0.41370  0.30904  0.36490  Biso   1.000  C
  C65      1.0000 0.72820  0.22100  0.95830  Biso   1.000  C
  C66      1.0000 0.27180  0.72100  0.54170  Biso   1.000  C
  C67      1.0000 0.27180  0.77900  0.04170  Biso   1.000  C
  C68      1.0000 0.72820  0.27900  0.45830  Biso   1.000  C
  O21      1.0000 0.67410  0.52829  0.11258  Biso   1.000  O
  O22      1.0000 0.32590  0.02829  0.38742  Biso   1.000  O
  O23      1.0000 0.32590  0.47171  0.88742  Biso   1.000  O
  O24      1.0000 0.67410  0.97171  0.61258  Biso   1.000  O
  H1       1.0000 0.34900  0.96060  0.00200  Biso   1.000  H
  H2       1.0000 0.65100  0.46060  0.49800  Biso   1.000  H
  H3       1.0000 0.65100  0.03940  0.99800  Biso   1.000  H
  H4       1.0000 0.34900  0.53940  0.50200  Biso   1.000  H
  H5       1.0000 0.13900  0.07080  0.12840  Biso   1.000  H
  H6       1.0000 0.86100  0.57080  0.37160  Biso   1.000  H
  H7       1.0000 0.86100  0.92920  0.87160  Biso   1.000  H
  H8       1.0000 0.13900  0.42920  0.62840  Biso   1.000  H
  H9       1.0000 0.05900  0.12360  0.96790  Biso   1.000  H
  H10      1.0000 0.94100  0.62360  0.53210  Biso   1.000  H
  H11      1.0000 0.94100  0.87640  0.03210  Biso   1.000  H
  H12      1.0000 0.05900  0.37640  0.46790  Biso   1.000  H
  H13      1.0000 0.04400  0.77100  0.73280  Biso   1.000  H
  H14      1.0000 0.95600  0.27100  0.76720  Biso   1.000  H
  H15      1.0000 0.95600  0.22900  0.26720  Biso   1.000  H
  H16      1.0000 0.04400  0.72900  0.23280  Biso   1.000  H
  H17      1.0000 0.50400  0.66850  0.83700  Biso   1.000  H
  H18      1.0000 0.49600  0.16850  0.66300  Biso   1.000  H
  H19      1.0000 0.49600  0.33150  0.16300  Biso   1.000  H
  H20      1.0000 0.50400  0.83150  0.33700  Biso   1.000  H
  H21      1.0000 0.51500  0.87640  0.87490  Biso   1.000  H
  H22      1.0000 0.48500  0.37640  0.62510  Biso   1.000  H
  H23      1.0000 0.48500  0.12360  0.12510  Biso   1.000  H
  H24      1.0000 0.51500  0.62360  0.37490  Biso   1.000  H
  H25      1.0000 0.97100  0.13720  0.59700  Biso   1.000  H
  H26      1.0000 0.02900  0.63720  0.90300  Biso   1.000  H
  H27      1.0000 0.02900  0.86280  0.40300  Biso   1.000  H
  H28      1.0000 0.97100  0.36280  0.09700  Biso   1.000  H
  H29      1.0000 0.29100  0.98000  0.13700  Biso   1.000  H
  H30      1.0000 0.70900  0.48000  0.36300  Biso   1.000  H
  H31      1.0000 0.70900  0.02000  0.86300  Biso   1.000  H
  H32      1.0000 0.29100  0.52000  0.63700  Biso   1.000  H
  H33      1.0000 0.31600  0.99940  0.66220  Biso   1.000  H
  H34      1.0000 0.68400  0.49940  0.83780  Biso   1.000  H
  H35      1.0000 0.68400  0.00060  0.33780  Biso   1.000  H
  H36      1.0000 0.31600  0.50060  0.16220  Biso   1.000  H
  H37      1.0000 0.67300  0.76410  0.89100  Biso   1.000  H
  H38      1.0000 0.32700  0.26410  0.60900  Biso   1.000  H
  H39      1.0000 0.32700  0.23590  0.10900  Biso   1.000  H
  H40      1.0000 0.67300  0.73590  0.39100  Biso   1.000  H
  H41      1.0000 0.04600  0.12800  0.45100  Biso   1.000  H
  H42      1.0000 0.95400  0.62800  0.04900  Biso   1.000  H
  H43      1.0000 0.95400  0.87200  0.54900  Biso   1.000  H
  H44      1.0000 0.04600  0.37200  0.95100  Biso   1.000  H
  H45      1.0000 0.25400  0.03890  0.51400  Biso   1.000  H
  H46      1.0000 0.74600  0.53890  0.98600  Biso   1.000  H
  H47      1.0000 0.74600  0.96110  0.48600  Biso   1.000  H
  H48      1.0000 0.25400  0.46110  0.01400  Biso   1.000  H
  H49      1.0000 0.77000  0.23250  0.02200  Biso   1.000  H
  H50      1.0000 0.23000  0.73250  0.47800  Biso   1.000  H
  H51      1.0000 0.23000  0.76750  0.97800  Biso   1.000  H
  H52      1.0000 0.77000  0.26750  0.52200  Biso   1.000  H
  H53      1.0000 0.29400  0.21580  0.83400  Biso   1.000  H
  H54      1.0000 0.70600  0.71580  0.66600  Biso   1.000  H
  H55      1.0000 0.70600  0.78420  0.16600  Biso   1.000  H
  H56      1.0000 0.29400  0.28420  0.33400  Biso   1.000  H
  H57      1.0000 0.53400  0.33100  0.96300  Biso   1.000  H
  H58      1.0000 0.46600  0.83100  0.53700  Biso   1.000  H
  H59      1.0000 0.46600  0.66900  0.03700  Biso   1.000  H
  H60      1.0000 0.53400  0.16900  0.46300  Biso   1.000  H
  H61      1.0000 0.80800  0.24640  0.93600  Biso   1.000  H
  H62      1.0000 0.19200  0.74640  0.56400  Biso   1.000  H
  H63      1.0000 0.19200  0.75360  0.06400  Biso   1.000  H
  H64      1.0000 0.80800  0.25360  0.43600  Biso   1.000  H
  H65      1.0000 0.73600  0.17100  0.94900  Biso   1.000  H
  H66      1.0000 0.26400  0.67100  0.55100  Biso   1.000  H
  H67      1.0000 0.26400  0.82900  0.05100  Biso   1.000  H
  H68      1.0000 0.73600  0.32900  0.44900  Biso   1.000  H
  H69      1.0000 0.57300  0.33900  0.87400  Biso   1.000  H
  H70      1.0000 0.42700  0.83900  0.62600  Biso   1.000  H
  H71      1.0000 0.42700  0.66100  0.12600  Biso   1.000  H
  H72      1.0000 0.57300  0.16100  0.37400  Biso   1.000  H
  H73      1.0000 0.76100  0.55000  0.14400  Biso   1.000  H
  H74      1.0000 0.23900  0.05000  0.35600  Biso   1.000  H
  H75      1.0000 0.23900  0.45000  0.85600  Biso   1.000  H
  H76      1.0000 0.76100  0.95000  0.64400  Biso   1.000  H
  H77      1.0000 0.66000  0.48240  0.13200  Biso   1.000  H
  H78      1.0000 0.34000  0.98240  0.36800  Biso   1.000  H
  H79      1.0000 0.34000  0.51760  0.86800  Biso   1.000  H
  H80      1.0000 0.66000  0.01760  0.63200  Biso   1.000  H
  H81      1.0000 0.34600  0.32100  0.84900  Biso   1.000  H
  H82      1.0000 0.65400  0.82100  0.65100  Biso   1.000  H
  H83      1.0000 0.65400  0.67900  0.15100  Biso   1.000  H
  H84      1.0000 0.34600  0.17900  0.34900  Biso   1.000  H
