data_image0
_cell_length_a       8.5904
_cell_length_b       19.607
_cell_length_c       9.3888
_cell_angle_alpha    90
_cell_angle_beta     96.834
_cell_angle_gamma    90

_symmetry_space_group_name_H-M    "P 1"
_symmetry_int_tables_number       1

loop_
  _symmetry_equiv_pos_as_xyz
  'x, y, z'

loop_
  _atom_site_label
  _atom_site_occupancy
  _atom_site_fract_x
  _atom_site_fract_y
  _atom_site_fract_z
  _atom_site_thermal_displace_type
  _atom_site_B_iso_or_equiv
  _atom_site_type_symbol
  Cu1      1.0000 0.00000  0.50000  0.50000  Biso   1.000  Cu
  Cu2      1.0000 0.00000  0.00000  0.00000  Biso   1.000  Cu
  C1       1.0000 0.91639  0.64623  0.81604  Biso   1.000  C
  C2       1.0000 0.08361  0.14623  0.68396  Biso   1.000  C
  C3       1.0000 0.08361  0.35377  0.18396  Biso   1.000  C
  C4       1.0000 0.91639  0.85377  0.31604  Biso   1.000  C
  H1       1.0000 0.99750  0.62540  0.88460  Biso   1.000  H
  H2       1.0000 0.00250  0.12540  0.61540  Biso   1.000  H
  H3       1.0000 0.00250  0.37460  0.11540  Biso   1.000  H
  H4       1.0000 0.99750  0.87460  0.38460  Biso   1.000  H
  H5       1.0000 0.82090  0.65290  0.86200  Biso   1.000  H
  H6       1.0000 0.17910  0.15290  0.63800  Biso   1.000  H
  H7       1.0000 0.17910  0.34710  0.13800  Biso   1.000  H
  H8       1.0000 0.82090  0.84710  0.36200  Biso   1.000  H
  H9       1.0000 0.95360  0.69040  0.78480  Biso   1.000  H
  H10      1.0000 0.04640  0.19040  0.71520  Biso   1.000  H
  H11      1.0000 0.04640  0.30960  0.21520  Biso   1.000  H
  H12      1.0000 0.95360  0.80960  0.28480  Biso   1.000  H
  C5       1.0000 0.88104  0.59978  0.68712  Biso   1.000  C
  C6       1.0000 0.11896  0.09978  0.81288  Biso   1.000  C
  C7       1.0000 0.11896  0.40022  0.31288  Biso   1.000  C
  C8       1.0000 0.88104  0.90022  0.18712  Biso   1.000  C
  O1       1.0000 0.99339  0.55945  0.66524  Biso   1.000  O
  O2       1.0000 0.00661  0.05945  0.83476  Biso   1.000  O
  O3       1.0000 0.00661  0.44055  0.33476  Biso   1.000  O
  O4       1.0000 0.99339  0.94055  0.16524  Biso   1.000  O
  C9       1.0000 0.73570  0.60428  0.60089  Biso   1.000  C
  C10      1.0000 0.26430  0.10428  0.89911  Biso   1.000  C
  C11      1.0000 0.26430  0.39572  0.39911  Biso   1.000  C
  C12      1.0000 0.73570  0.89572  0.10089  Biso   1.000  C
  C13      1.0000 0.69461  0.56180  0.47941  Biso   1.000  C
  C14      1.0000 0.30539  0.06180  0.02059  Biso   1.000  C
  C15      1.0000 0.30539  0.43820  0.52059  Biso   1.000  C
  C16      1.0000 0.69461  0.93820  0.97941  Biso   1.000  C
  O5       1.0000 0.78122  0.51602  0.43366  Biso   1.000  O
  O6       1.0000 0.21878  0.01602  0.06634  Biso   1.000  O
  O7       1.0000 0.21878  0.48398  0.56634  Biso   1.000  O
  O8       1.0000 0.78122  0.98398  0.93366  Biso   1.000  O
  C17      1.0000 0.53639  0.57087  0.39259  Biso   1.000  C
  C18      1.0000 0.46361  0.07087  0.10741  Biso   1.000  C
  C19      1.0000 0.46361  0.42913  0.60741  Biso   1.000  C
  C20      1.0000 0.53639  0.92913  0.89259  Biso   1.000  C
  H13      1.0000 0.52090  0.53510  0.31930  Biso   1.000  H
  H14      1.0000 0.47910  0.03510  0.18070  Biso   1.000  H
  H15      1.0000 0.47910  0.46490  0.68070  Biso   1.000  H
  H16      1.0000 0.52090  0.96490  0.81930  Biso   1.000  H
  H17      1.0000 0.53170  0.61570  0.34600  Biso   1.000  H
  H18      1.0000 0.46830  0.11570  0.15400  Biso   1.000  H
  H19      1.0000 0.46830  0.38430  0.65400  Biso   1.000  H
  H20      1.0000 0.53170  0.88430  0.84600  Biso   1.000  H
  H21      1.0000 0.45400  0.56770  0.45600  Biso   1.000  H
  H22      1.0000 0.54600  0.06770  0.04400  Biso   1.000  H
  H23      1.0000 0.54600  0.43230  0.54400  Biso   1.000  H
  H24      1.0000 0.45400  0.93230  0.95600  Biso   1.000  H
  C21      1.0000 0.61699  0.65558  0.63848  Biso   1.000  C
  C22      1.0000 0.38301  0.15558  0.86152  Biso   1.000  C
  C23      1.0000 0.38301  0.34442  0.36152  Biso   1.000  C
  C24      1.0000 0.61699  0.84442  0.13848  Biso   1.000  C
  C25      1.0000 0.62403  0.72375  0.59700  Biso   1.000  C
  C26      1.0000 0.37597  0.22375  0.90300  Biso   1.000  C
  C27      1.0000 0.37597  0.27625  0.40300  Biso   1.000  C
  C28      1.0000 0.62403  0.77625  0.09700  Biso   1.000  C
  H25      1.0000 0.70540  0.73820  0.54360  Biso   1.000  H
  H26      1.0000 0.29460  0.23820  0.95640  Biso   1.000  H
  H27      1.0000 0.29460  0.26180  0.45640  Biso   1.000  H
  H28      1.0000 0.70540  0.76180  0.04360  Biso   1.000  H
  C29      1.0000 0.51359  0.77120  0.63256  Biso   1.000  C
  C30      1.0000 0.48641  0.27120  0.86744  Biso   1.000  C
  C31      1.0000 0.48641  0.22880  0.36744  Biso   1.000  C
  C32      1.0000 0.51359  0.72880  0.13256  Biso   1.000  C
  H29      1.0000 0.52100  0.81740  0.60360  Biso   1.000  H
  H30      1.0000 0.47900  0.31740  0.89640  Biso   1.000  H
  H31      1.0000 0.47900  0.18260  0.39640  Biso   1.000  H
  H32      1.0000 0.52100  0.68260  0.10360  Biso   1.000  H
  C33      1.0000 0.39210  0.75125  0.71045  Biso   1.000  C
  C34      1.0000 0.60790  0.25125  0.78955  Biso   1.000  C
  C35      1.0000 0.60790  0.24875  0.28955  Biso   1.000  C
  C36      1.0000 0.39210  0.74875  0.21045  Biso   1.000  C
  C37      1.0000 0.38393  0.68260  0.75071  Biso   1.000  C
  C38      1.0000 0.61607  0.18260  0.74929  Biso   1.000  C
  C39      1.0000 0.61607  0.31740  0.24929  Biso   1.000  C
  C40      1.0000 0.38393  0.81740  0.25071  Biso   1.000  C
  H33      1.0000 0.30160  0.66790  0.80260  Biso   1.000  H
  H34      1.0000 0.69840  0.16790  0.69740  Biso   1.000  H
  H35      1.0000 0.69840  0.33210  0.19740  Biso   1.000  H
  H36      1.0000 0.30160  0.83210  0.30260  Biso   1.000  H
  C41      1.0000 0.49476  0.63573  0.71576  Biso   1.000  C
  C42      1.0000 0.50524  0.13573  0.78424  Biso   1.000  C
  C43      1.0000 0.50524  0.36427  0.28424  Biso   1.000  C
  C44      1.0000 0.49476  0.86427  0.21576  Biso   1.000  C
  H37      1.0000 0.48750  0.58950  0.74470  Biso   1.000  H
  H38      1.0000 0.51250  0.08950  0.75530  Biso   1.000  H
  H39      1.0000 0.51250  0.41050  0.25530  Biso   1.000  H
  H40      1.0000 0.48750  0.91050  0.24470  Biso   1.000  H
  N1       1.0000 0.07514  0.90070  0.85180  Biso   1.000  N
  N2       1.0000 0.92486  0.40070  0.64820  Biso   1.000  N
  N3       1.0000 0.92486  0.09930  0.14820  Biso   1.000  N
  N4       1.0000 0.07514  0.59930  0.35180  Biso   1.000  N
  C45      1.0000 0.10878  0.84212  0.92283  Biso   1.000  C
  C46      1.0000 0.89122  0.34212  0.57717  Biso   1.000  C
  C47      1.0000 0.89122  0.15788  0.07717  Biso   1.000  C
  C48      1.0000 0.10878  0.65788  0.42283  Biso   1.000  C
  H41      1.0000 0.06340  0.83460  0.00890  Biso   1.000  H
  H42      1.0000 0.93660  0.33460  0.49110  Biso   1.000  H
  H43      1.0000 0.93660  0.16540  0.99110  Biso   1.000  H
  H44      1.0000 0.06340  0.66540  0.50890  Biso   1.000  H
  C49      1.0000 0.20580  0.79197  0.87801  Biso   1.000  C
  C50      1.0000 0.79420  0.29197  0.62199  Biso   1.000  C
  C51      1.0000 0.79420  0.20803  0.12199  Biso   1.000  C
  C52      1.0000 0.20580  0.70803  0.37801  Biso   1.000  C
  H45      1.0000 0.22470  0.75140  0.93250  Biso   1.000  H
  H46      1.0000 0.77530  0.25140  0.56750  Biso   1.000  H
  H47      1.0000 0.77530  0.24860  0.06750  Biso   1.000  H
  H48      1.0000 0.22470  0.74860  0.43250  Biso   1.000  H
  C53      1.0000 0.27564  0.80134  0.75254  Biso   1.000  C
  C54      1.0000 0.72436  0.30134  0.74746  Biso   1.000  C
  C55      1.0000 0.72436  0.19866  0.24746  Biso   1.000  C
  C56      1.0000 0.27564  0.69866  0.25254  Biso   1.000  C
  C57      1.0000 0.23618  0.86116  0.67423  Biso   1.000  C
  C58      1.0000 0.76382  0.36116  0.82577  Biso   1.000  C
  C59      1.0000 0.76382  0.13884  0.32577  Biso   1.000  C
  C60      1.0000 0.23618  0.63884  0.17423  Biso   1.000  C
  H49      1.0000 0.27630  0.86920  0.58570  Biso   1.000  H
  H50      1.0000 0.72370  0.36920  0.91430  Biso   1.000  H
  H51      1.0000 0.72370  0.13080  0.41430  Biso   1.000  H
  H52      1.0000 0.27630  0.63080  0.08570  Biso   1.000  H
  C61      1.0000 0.13745  0.90857  0.72797  Biso   1.000  C
  C62      1.0000 0.86255  0.40857  0.77203  Biso   1.000  C
  C63      1.0000 0.86255  0.09143  0.27203  Biso   1.000  C
  C64      1.0000 0.13745  0.59143  0.22797  Biso   1.000  C
  H53      1.0000 0.11260  0.94890  0.67390  Biso   1.000  H
  H54      1.0000 0.88740  0.44890  0.82610  Biso   1.000  H
  H55      1.0000 0.88740  0.05110  0.32610  Biso   1.000  H
  H56      1.0000 0.11260  0.55110  0.17390  Biso   1.000  H
  C65      1.0000 0.27280  0.47047  0.94250  Biso   1.000  C
  C66      1.0000 0.72720  0.97047  0.55750  Biso   1.000  C
  C67      1.0000 0.72720  0.52953  0.05750  Biso   1.000  C
  C68      1.0000 0.27280  0.02953  0.44250  Biso   1.000  C
  H57      1.0000 0.17150  0.45340  0.96550  Biso   1.000  H
  H58      1.0000 0.82850  0.95340  0.53450  Biso   1.000  H
  H59      1.0000 0.82850  0.54660  0.03450  Biso   1.000  H
  H60      1.0000 0.17150  0.04660  0.46550  Biso   1.000  H
  H61      1.0000 0.34880  0.46970  0.02910  Biso   1.000  H
  H62      1.0000 0.65120  0.96970  0.47090  Biso   1.000  H
  H63      1.0000 0.65120  0.53030  0.97090  Biso   1.000  H
  H64      1.0000 0.34880  0.03030  0.52910  Biso   1.000  H
  H65      1.0000 0.31050  0.44150  0.86880  Biso   1.000  H
  H66      1.0000 0.68950  0.94150  0.63120  Biso   1.000  H
  H67      1.0000 0.68950  0.55850  0.13120  Biso   1.000  H
  H68      1.0000 0.31050  0.05850  0.36880  Biso   1.000  H
  O9       1.0000 0.25550  0.53658  0.89203  Biso   1.000  O
  O10      1.0000 0.74450  0.03658  0.60797  Biso   1.000  O
  O11      1.0000 0.74450  0.46342  0.10797  Biso   1.000  O
  O12      1.0000 0.25550  0.96342  0.39203  Biso   1.000  O
  H69      1.0000 0.18900  0.53360  0.81100  Biso   1.000  H
  H70      1.0000 0.81100  0.03360  0.68900  Biso   1.000  H
  H71      1.0000 0.81100  0.46640  0.18900  Biso   1.000  H
  H72      1.0000 0.18900  0.96640  0.31100  Biso   1.000  H
