data_image0
_cell_length_a       5.7396
_cell_length_b       14.607
_cell_length_c       6.9028
_cell_angle_alpha    90
_cell_angle_beta     98.925
_cell_angle_gamma    90

_symmetry_space_group_name_H-M    "P 1"
_symmetry_int_tables_number       1

loop_
  _symmetry_equiv_pos_as_xyz
  'x, y, z'

loop_
  _atom_site_label
  _atom_site_occupancy
  _atom_site_fract_x
  _atom_site_fract_y
  _atom_site_fract_z
  _atom_site_thermal_displace_type
  _atom_site_B_iso_or_equiv
  _atom_site_type_symbol
  Cu1      1.0000 0.50000  0.50000  0.00000  Biso   1.000  Cu
  Cu2      1.0000 0.50000  0.00000  0.50000  Biso   1.000  Cu
  S1       1.0000 0.20721  0.33590  0.05242  Biso   1.000  S
  S2       1.0000 0.79279  0.83590  0.44758  Biso   1.000  S
  S3       1.0000 0.79279  0.66410  0.94758  Biso   1.000  S
  S4       1.0000 0.20721  0.16410  0.55242  Biso   1.000  S
  O1       1.0000 0.56390  0.51177  0.29680  Biso   1.000  O
  O2       1.0000 0.43610  0.01177  0.20320  Biso   1.000  O
  O3       1.0000 0.43610  0.48823  0.70320  Biso   1.000  O
  O4       1.0000 0.56390  0.98823  0.79680  Biso   1.000  O
  N1       1.0000 0.77200  0.42420  0.99900  Biso   1.000  N
  N2       1.0000 0.22800  0.92420  0.50100  Biso   1.000  N
  N3       1.0000 0.22800  0.57580  0.00100  Biso   1.000  N
  N4       1.0000 0.77200  0.07580  0.49900  Biso   1.000  N
  N5       1.0000 0.77910  0.50443  0.39680  Biso   1.000  N
  N6       1.0000 0.22090  0.00443  0.10320  Biso   1.000  N
  N7       1.0000 0.22090  0.49557  0.60320  Biso   1.000  N
  N8       1.0000 0.77910  0.99557  0.89680  Biso   1.000  N
  C1       1.0000 0.95300  0.38760  0.02250  Biso   1.000  C
  C2       1.0000 0.04700  0.88760  0.47750  Biso   1.000  C
  C3       1.0000 0.04700  0.61240  0.97750  Biso   1.000  C
  C4       1.0000 0.95300  0.11240  0.52250  Biso   1.000  C
  C5       1.0000 0.91570  0.57910  0.42010  Biso   1.000  C
  C6       1.0000 0.08430  0.07910  0.07990  Biso   1.000  C
  C7       1.0000 0.08430  0.42090  0.57990  Biso   1.000  C
  C8       1.0000 0.91570  0.92090  0.92010  Biso   1.000  C
  H1       1.0000 0.85640  0.63420  0.36550  Biso   1.000  H
  H2       1.0000 0.14360  0.13420  0.13450  Biso   1.000  H
  H3       1.0000 0.14360  0.36580  0.63450  Biso   1.000  H
  H4       1.0000 0.85640  0.86580  0.86550  Biso   1.000  H
  C9       1.0000 0.85730  0.42320  0.47710  Biso   1.000  C
  C10      1.0000 0.14270  0.92320  0.02290  Biso   1.000  C
  C11      1.0000 0.14270  0.57680  0.52290  Biso   1.000  C
  C12      1.0000 0.85730  0.07680  0.97710  Biso   1.000  C
  C13      1.0000 0.70140  0.34180  0.45590  Biso   1.000  C
  C14      1.0000 0.29860  0.84180  0.04410  Biso   1.000  C
  C15      1.0000 0.29860  0.65820  0.54410  Biso   1.000  C
  C16      1.0000 0.70140  0.15820  0.95590  Biso   1.000  C
  H5       1.0000 0.56060  0.35490  0.50970  Biso   1.000  H
  H6       1.0000 0.43940  0.85490  0.99030  Biso   1.000  H
  H7       1.0000 0.43940  0.64510  0.49030  Biso   1.000  H
  H8       1.0000 0.56060  0.14510  0.00970  Biso   1.000  H
  H9       1.0000 0.78210  0.29100  0.52470  Biso   1.000  H
  H10      1.0000 0.21790  0.79100  0.97530  Biso   1.000  H
  H11      1.0000 0.21790  0.70900  0.47530  Biso   1.000  H
  H12      1.0000 0.78210  0.20900  0.02470  Biso   1.000  H
  H13      1.0000 0.66060  0.32670  0.31950  Biso   1.000  H
  H14      1.0000 0.33940  0.82670  0.18050  Biso   1.000  H
  H15      1.0000 0.33940  0.67330  0.68050  Biso   1.000  H
  H16      1.0000 0.66060  0.17330  0.81950  Biso   1.000  H
