data_image0
_cell_length_a       17.063
_cell_length_b       7.945
_cell_length_c       21.097
_cell_angle_alpha    90
_cell_angle_beta     95.062
_cell_angle_gamma    90

_symmetry_space_group_name_H-M    "P 1"
_symmetry_int_tables_number       1

loop_
  _symmetry_equiv_pos_as_xyz
  'x, y, z'

loop_
  _atom_site_label
  _atom_site_occupancy
  _atom_site_fract_x
  _atom_site_fract_y
  _atom_site_fract_z
  _atom_site_thermal_displace_type
  _atom_site_B_iso_or_equiv
  _atom_site_type_symbol
  Cu1      1.0000 0.30999  0.85928  0.55260  Biso   1.000  Cu
  Cu2      1.0000 0.80999  0.35928  0.55260  Biso   1.000  Cu
  Cu3      1.0000 0.69001  0.85928  0.94740  Biso   1.000  Cu
  Cu4      1.0000 0.19001  0.35928  0.94740  Biso   1.000  Cu
  Cu5      1.0000 0.69001  0.14072  0.44740  Biso   1.000  Cu
  Cu6      1.0000 0.19001  0.64072  0.44740  Biso   1.000  Cu
  Cu7      1.0000 0.30999  0.14072  0.05260  Biso   1.000  Cu
  Cu8      1.0000 0.80999  0.64072  0.05260  Biso   1.000  Cu
  Cl1      1.0000 0.33028  0.59975  0.51032  Biso   1.000  Cl
  Cl2      1.0000 0.83028  0.09975  0.51032  Biso   1.000  Cl
  Cl3      1.0000 0.66972  0.59975  0.98968  Biso   1.000  Cl
  Cl4      1.0000 0.16972  0.09975  0.98968  Biso   1.000  Cl
  Cl5      1.0000 0.66972  0.40025  0.48968  Biso   1.000  Cl
  Cl6      1.0000 0.16972  0.90025  0.48968  Biso   1.000  Cl
  Cl7      1.0000 0.33028  0.40025  0.01032  Biso   1.000  Cl
  Cl8      1.0000 0.83028  0.90025  0.01032  Biso   1.000  Cl
  C1       1.0000 0.39010  0.92760  0.43320  Biso   1.000  C
  C2       1.0000 0.89010  0.42760  0.43320  Biso   1.000  C
  C3       1.0000 0.60990  0.92760  0.06680  Biso   1.000  C
  C4       1.0000 0.10990  0.42760  0.06680  Biso   1.000  C
  C5       1.0000 0.60990  0.07240  0.56680  Biso   1.000  C
  C6       1.0000 0.10990  0.57240  0.56680  Biso   1.000  C
  C7       1.0000 0.39010  0.07240  0.93320  Biso   1.000  C
  C8       1.0000 0.89010  0.57240  0.93320  Biso   1.000  C
  H1       1.0000 0.37140  0.82380  0.41810  Biso   1.000  H
  H2       1.0000 0.87140  0.32380  0.41810  Biso   1.000  H
  H3       1.0000 0.62860  0.82380  0.08190  Biso   1.000  H
  H4       1.0000 0.12860  0.32380  0.08190  Biso   1.000  H
  H5       1.0000 0.62860  0.17620  0.58190  Biso   1.000  H
  H6       1.0000 0.12860  0.67620  0.58190  Biso   1.000  H
  H7       1.0000 0.37140  0.17620  0.91810  Biso   1.000  H
  H8       1.0000 0.87140  0.67620  0.91810  Biso   1.000  H
  C9       1.0000 0.43840  0.02090  0.39730  Biso   1.000  C
  C10      1.0000 0.93840  0.52090  0.39730  Biso   1.000  C
  C11      1.0000 0.56160  0.02090  0.10270  Biso   1.000  C
  C12      1.0000 0.06160  0.52090  0.10270  Biso   1.000  C
  C13      1.0000 0.56160  0.97910  0.60270  Biso   1.000  C
  C14      1.0000 0.06160  0.47910  0.60270  Biso   1.000  C
  C15      1.0000 0.43840  0.97910  0.89730  Biso   1.000  C
  C16      1.0000 0.93840  0.47910  0.89730  Biso   1.000  C
  H9       1.0000 0.45170  0.97960  0.35840  Biso   1.000  H
  H10      1.0000 0.95170  0.47960  0.35840  Biso   1.000  H
  H11      1.0000 0.54830  0.97960  0.14160  Biso   1.000  H
  H12      1.0000 0.04830  0.47960  0.14160  Biso   1.000  H
  H13      1.0000 0.54830  0.02040  0.64160  Biso   1.000  H
  H14      1.0000 0.04830  0.52040  0.64160  Biso   1.000  H
  H15      1.0000 0.45170  0.02040  0.85840  Biso   1.000  H
  H16      1.0000 0.95170  0.52040  0.85840  Biso   1.000  H
  C17      1.0000 0.46630  0.17250  0.41860  Biso   1.000  C
  C18      1.0000 0.96630  0.67250  0.41860  Biso   1.000  C
  C19      1.0000 0.53370  0.17250  0.08140  Biso   1.000  C
  C20      1.0000 0.03370  0.67250  0.08140  Biso   1.000  C
  C21      1.0000 0.53370  0.82750  0.58140  Biso   1.000  C
  C22      1.0000 0.03370  0.32750  0.58140  Biso   1.000  C
  C23      1.0000 0.46630  0.82750  0.91860  Biso   1.000  C
  C24      1.0000 0.96630  0.32750  0.91860  Biso   1.000  C
  H17      1.0000 0.49980  0.23450  0.39510  Biso   1.000  H
  H18      1.0000 0.99980  0.73450  0.39510  Biso   1.000  H
  H19      1.0000 0.50020  0.23450  0.10490  Biso   1.000  H
  H20      1.0000 0.00020  0.73450  0.10490  Biso   1.000  H
  H21      1.0000 0.50020  0.76550  0.60490  Biso   1.000  H
  H22      1.0000 0.00020  0.26550  0.60490  Biso   1.000  H
  H23      1.0000 0.49980  0.76550  0.89510  Biso   1.000  H
  H24      1.0000 0.99980  0.26550  0.89510  Biso   1.000  H
  C25      1.0000 0.44400  0.23340  0.47590  Biso   1.000  C
  C26      1.0000 0.94400  0.73340  0.47590  Biso   1.000  C
  C27      1.0000 0.55600  0.23340  0.02410  Biso   1.000  C
  C28      1.0000 0.05600  0.73340  0.02410  Biso   1.000  C
  C29      1.0000 0.55600  0.76660  0.52410  Biso   1.000  C
  C30      1.0000 0.05600  0.26660  0.52410  Biso   1.000  C
  C31      1.0000 0.44400  0.76660  0.97590  Biso   1.000  C
  C32      1.0000 0.94400  0.26660  0.97590  Biso   1.000  C
  H25      1.0000 0.46210  0.33700  0.49160  Biso   1.000  H
  H26      1.0000 0.96210  0.83700  0.49160  Biso   1.000  H
  H27      1.0000 0.53790  0.33700  0.00840  Biso   1.000  H
  H28      1.0000 0.03790  0.83700  0.00840  Biso   1.000  H
  H29      1.0000 0.53790  0.66300  0.50840  Biso   1.000  H
  H30      1.0000 0.03790  0.16300  0.50840  Biso   1.000  H
  H31      1.0000 0.46210  0.66300  0.99160  Biso   1.000  H
  H32      1.0000 0.96210  0.16300  0.99160  Biso   1.000  H
  C33      1.0000 0.39450  0.13680  0.50880  Biso   1.000  C
  C34      1.0000 0.89450  0.63680  0.50880  Biso   1.000  C
  C35      1.0000 0.60550  0.13680  0.99120  Biso   1.000  C
  C36      1.0000 0.10550  0.63680  0.99120  Biso   1.000  C
  C37      1.0000 0.60550  0.86320  0.49120  Biso   1.000  C
  C38      1.0000 0.10550  0.36320  0.49120  Biso   1.000  C
  C39      1.0000 0.39450  0.86320  0.00880  Biso   1.000  C
  C40      1.0000 0.89450  0.36320  0.00880  Biso   1.000  C
  C41      1.0000 0.36450  0.18990  0.56860  Biso   1.000  C
  C42      1.0000 0.86450  0.68990  0.56860  Biso   1.000  C
  C43      1.0000 0.63550  0.18990  0.93140  Biso   1.000  C
  C44      1.0000 0.13550  0.68990  0.93140  Biso   1.000  C
  C45      1.0000 0.63550  0.81010  0.43140  Biso   1.000  C
  C46      1.0000 0.13550  0.31010  0.43140  Biso   1.000  C
  C47      1.0000 0.36450  0.81010  0.06860  Biso   1.000  C
  C48      1.0000 0.86450  0.31010  0.06860  Biso   1.000  C
  H33      1.0000 0.37800  0.29380  0.58670  Biso   1.000  H
  H34      1.0000 0.87800  0.79380  0.58670  Biso   1.000  H
  H35      1.0000 0.62200  0.29380  0.91330  Biso   1.000  H
  H36      1.0000 0.12200  0.79380  0.91330  Biso   1.000  H
  H37      1.0000 0.62200  0.70620  0.41330  Biso   1.000  H
  H38      1.0000 0.12200  0.20620  0.41330  Biso   1.000  H
  H39      1.0000 0.37800  0.70620  0.08670  Biso   1.000  H
  H40      1.0000 0.87800  0.20620  0.08670  Biso   1.000  H
  C49      1.0000 0.28760  0.13450  0.65288  Biso   1.000  C
  C50      1.0000 0.78760  0.63450  0.65288  Biso   1.000  C
  C51      1.0000 0.71240  0.13450  0.84712  Biso   1.000  C
  C52      1.0000 0.21240  0.63450  0.84712  Biso   1.000  C
  C53      1.0000 0.71240  0.86550  0.34712  Biso   1.000  C
  C54      1.0000 0.21240  0.36550  0.34712  Biso   1.000  C
  C55      1.0000 0.28760  0.86550  0.15288  Biso   1.000  C
  C56      1.0000 0.78760  0.36550  0.15288  Biso   1.000  C
  C57      1.0000 0.33500  0.17690  0.70610  Biso   1.000  C
  C58      1.0000 0.83500  0.67690  0.70610  Biso   1.000  C
  C59      1.0000 0.66500  0.17690  0.79390  Biso   1.000  C
  C60      1.0000 0.16500  0.67690  0.79390  Biso   1.000  C
  C61      1.0000 0.66500  0.82310  0.29390  Biso   1.000  C
  C62      1.0000 0.16500  0.32310  0.29390  Biso   1.000  C
  C63      1.0000 0.33500  0.82310  0.20610  Biso   1.000  C
  C64      1.0000 0.83500  0.32310  0.20610  Biso   1.000  C
  H41      1.0000 0.38920  0.18270  0.70440  Biso   1.000  H
  H42      1.0000 0.88920  0.68270  0.70440  Biso   1.000  H
  H43      1.0000 0.61080  0.18270  0.79560  Biso   1.000  H
  H44      1.0000 0.11080  0.68270  0.79560  Biso   1.000  H
  H45      1.0000 0.61080  0.81730  0.29560  Biso   1.000  H
  H46      1.0000 0.11080  0.31730  0.29560  Biso   1.000  H
  H47      1.0000 0.38920  0.81730  0.20440  Biso   1.000  H
  H48      1.0000 0.88920  0.31730  0.20440  Biso   1.000  H
  C65      1.0000 0.30210  0.21120  0.76280  Biso   1.000  C
  C66      1.0000 0.80210  0.71120  0.76280  Biso   1.000  C
  C67      1.0000 0.69790  0.21120  0.73720  Biso   1.000  C
  C68      1.0000 0.19790  0.71120  0.73720  Biso   1.000  C
  C69      1.0000 0.69790  0.78880  0.23720  Biso   1.000  C
  C70      1.0000 0.19790  0.28880  0.23720  Biso   1.000  C
  C71      1.0000 0.30210  0.78880  0.26280  Biso   1.000  C
  C72      1.0000 0.80210  0.28880  0.26280  Biso   1.000  C
  H49      1.0000 0.33440  0.23860  0.79910  Biso   1.000  H
  H50      1.0000 0.83440  0.73860  0.79910  Biso   1.000  H
  H51      1.0000 0.66560  0.23860  0.70090  Biso   1.000  H
  H52      1.0000 0.16560  0.73860  0.70090  Biso   1.000  H
  H53      1.0000 0.66560  0.76140  0.20090  Biso   1.000  H
  H54      1.0000 0.16560  0.26140  0.20090  Biso   1.000  H
  H55      1.0000 0.33440  0.76140  0.29910  Biso   1.000  H
  H56      1.0000 0.83440  0.26140  0.29910  Biso   1.000  H
  C73      1.0000 0.22240  0.20490  0.76510  Biso   1.000  C
  C74      1.0000 0.72240  0.70490  0.76510  Biso   1.000  C
  C75      1.0000 0.77760  0.20490  0.73490  Biso   1.000  C
  C76      1.0000 0.27760  0.70490  0.73490  Biso   1.000  C
  C77      1.0000 0.77760  0.79510  0.23490  Biso   1.000  C
  C78      1.0000 0.27760  0.29510  0.23490  Biso   1.000  C
  C79      1.0000 0.22240  0.79510  0.26510  Biso   1.000  C
  C80      1.0000 0.72240  0.29510  0.26510  Biso   1.000  C
  C81      1.0000 0.18650  0.24290  0.82618  Biso   1.000  C
  C82      1.0000 0.68650  0.74290  0.82618  Biso   1.000  C
  C83      1.0000 0.81350  0.24290  0.67382  Biso   1.000  C
  C84      1.0000 0.31350  0.74290  0.67382  Biso   1.000  C
  C85      1.0000 0.81350  0.75710  0.17382  Biso   1.000  C
  C86      1.0000 0.31350  0.25710  0.17382  Biso   1.000  C
  C87      1.0000 0.18650  0.75710  0.32618  Biso   1.000  C
  C88      1.0000 0.68650  0.25710  0.32618  Biso   1.000  C
  C89      1.0000 0.17520  0.16340  0.71140  Biso   1.000  C
  C90      1.0000 0.67520  0.66340  0.71140  Biso   1.000  C
  C91      1.0000 0.82480  0.16340  0.78860  Biso   1.000  C
  C92      1.0000 0.32480  0.66340  0.78860  Biso   1.000  C
  C93      1.0000 0.82480  0.83660  0.28860  Biso   1.000  C
  C94      1.0000 0.32480  0.33660  0.28860  Biso   1.000  C
  C95      1.0000 0.17520  0.83660  0.21140  Biso   1.000  C
  C96      1.0000 0.67520  0.33660  0.21140  Biso   1.000  C
  H57      1.0000 0.12090  0.16050  0.71280  Biso   1.000  H
  H58      1.0000 0.62090  0.66050  0.71280  Biso   1.000  H
  H59      1.0000 0.87910  0.16050  0.78720  Biso   1.000  H
  H60      1.0000 0.37910  0.66050  0.78720  Biso   1.000  H
  H61      1.0000 0.87910  0.83950  0.28720  Biso   1.000  H
  H62      1.0000 0.37910  0.33950  0.28720  Biso   1.000  H
  H63      1.0000 0.12090  0.83950  0.21280  Biso   1.000  H
  H64      1.0000 0.62090  0.33950  0.21280  Biso   1.000  H
  C97      1.0000 0.20760  0.12560  0.65510  Biso   1.000  C
  C98      1.0000 0.70760  0.62560  0.65510  Biso   1.000  C
  C99      1.0000 0.79240  0.12560  0.84490  Biso   1.000  C
  C100     1.0000 0.29240  0.62560  0.84490  Biso   1.000  C
  C101     1.0000 0.79240  0.87440  0.34490  Biso   1.000  C
  C102     1.0000 0.29240  0.37440  0.34490  Biso   1.000  C
  C103     1.0000 0.20760  0.87440  0.15510  Biso   1.000  C
  C104     1.0000 0.70760  0.37440  0.15510  Biso   1.000  C
  H65      1.0000 0.17540  0.09460  0.61920  Biso   1.000  H
  H66      1.0000 0.67540  0.59460  0.61920  Biso   1.000  H
  H67      1.0000 0.82460  0.09460  0.88080  Biso   1.000  H
  H68      1.0000 0.32460  0.59460  0.88080  Biso   1.000  H
  H69      1.0000 0.82460  0.90540  0.38080  Biso   1.000  H
  H70      1.0000 0.32460  0.40540  0.38080  Biso   1.000  H
  H71      1.0000 0.17540  0.90540  0.11920  Biso   1.000  H
  H72      1.0000 0.67540  0.40540  0.11920  Biso   1.000  H
  N1       1.0000 0.36990  0.98330  0.48912  Biso   1.000  N
  N2       1.0000 0.86990  0.48330  0.48912  Biso   1.000  N
  N3       1.0000 0.63010  0.98330  0.01088  Biso   1.000  N
  N4       1.0000 0.13010  0.48330  0.01088  Biso   1.000  N
  N5       1.0000 0.63010  0.01670  0.51088  Biso   1.000  N
  N6       1.0000 0.13010  0.51670  0.51088  Biso   1.000  N
  N7       1.0000 0.36990  0.01670  0.98912  Biso   1.000  N
  N8       1.0000 0.86990  0.51670  0.98912  Biso   1.000  N
  N9       1.0000 0.31960  0.08970  0.59482  Biso   1.000  N
  N10      1.0000 0.81960  0.58970  0.59482  Biso   1.000  N
  N11      1.0000 0.68040  0.08970  0.90518  Biso   1.000  N
  N12      1.0000 0.18040  0.58970  0.90518  Biso   1.000  N
  N13      1.0000 0.68040  0.91030  0.40518  Biso   1.000  N
  N14      1.0000 0.18040  0.41030  0.40518  Biso   1.000  N
  N15      1.0000 0.31960  0.91030  0.09482  Biso   1.000  N
  N16      1.0000 0.81960  0.41030  0.09482  Biso   1.000  N
  O1       1.0000 0.50000  0.94320  0.75000  Biso   1.000  O
  O2       1.0000 0.00000  0.44320  0.75000  Biso   1.000  O
  O3       1.0000 0.50000  0.05680  0.25000  Biso   1.000  O
  O4       1.0000 0.00000  0.55680  0.25000  Biso   1.000  O
  O5       1.0000 0.23467  0.26840  0.87437  Biso   1.000  O
  O6       1.0000 0.73467  0.76840  0.87437  Biso   1.000  O
  O7       1.0000 0.76533  0.26840  0.62563  Biso   1.000  O
  O8       1.0000 0.26533  0.76840  0.62563  Biso   1.000  O
  O9       1.0000 0.76533  0.73160  0.12563  Biso   1.000  O
  O10      1.0000 0.26533  0.23160  0.12563  Biso   1.000  O
  O11      1.0000 0.23467  0.73160  0.37437  Biso   1.000  O
  O12      1.0000 0.73467  0.23160  0.37437  Biso   1.000  O
  O13      1.0000 0.48680  0.45440  0.67110  Biso   1.000  O
  O14      1.0000 0.98680  0.95440  0.67110  Biso   1.000  O
  O15      1.0000 0.51320  0.45440  0.82890  Biso   1.000  O
  O16      1.0000 0.01320  0.95440  0.82890  Biso   1.000  O
  O17      1.0000 0.51320  0.54560  0.32890  Biso   1.000  O
  O18      1.0000 0.01320  0.04560  0.32890  Biso   1.000  O
  O19      1.0000 0.48680  0.54560  0.17110  Biso   1.000  O
  O20      1.0000 0.98680  0.04560  0.17110  Biso   1.000  O
  O21      1.0000 0.11390  0.25220  0.82725  Biso   1.000  O
  O22      1.0000 0.61390  0.75220  0.82725  Biso   1.000  O
  O23      1.0000 0.88610  0.25220  0.67275  Biso   1.000  O
  O24      1.0000 0.38610  0.75220  0.67275  Biso   1.000  O
  O25      1.0000 0.88610  0.74780  0.17275  Biso   1.000  O
  O26      1.0000 0.38610  0.24780  0.17275  Biso   1.000  O
  O27      1.0000 0.11390  0.74780  0.32725  Biso   1.000  O
  O28      1.0000 0.61390  0.24780  0.32725  Biso   1.000  O
