data_image0
_cell_length_a       8.8201
_cell_length_b       11.9198
_cell_length_c       15.0464
_cell_angle_alpha    73.527
_cell_angle_beta     76.788
_cell_angle_gamma    89.327

_symmetry_space_group_name_H-M    "P 1"
_symmetry_int_tables_number       1

loop_
  _symmetry_equiv_pos_as_xyz
  'x, y, z'

loop_
  _atom_site_label
  _atom_site_occupancy
  _atom_site_fract_x
  _atom_site_fract_y
  _atom_site_fract_z
  _atom_site_thermal_displace_type
  _atom_site_B_iso_or_equiv
  _atom_site_type_symbol
  Cu1      1.0000 0.36375  0.94323  0.26647  Biso   1.000  Cu
  Cu2      1.0000 0.63625  0.05677  0.73353  Biso   1.000  Cu
  Cu3      1.0000 0.20888  0.18156  0.17171  Biso   1.000  Cu
  Cu4      1.0000 0.79112  0.81844  0.82829  Biso   1.000  Cu
  Cl1      1.0000 0.82630  0.36468  0.22481  Biso   1.000  Cl
  Cl2      1.0000 0.17370  0.63532  0.77519  Biso   1.000  Cl
  Cl3      1.0000 0.47505  0.07628  0.12321  Biso   1.000  Cl
  Cl4      1.0000 0.52495  0.92372  0.87679  Biso   1.000  Cl
  Cl5      1.0000 0.19718  0.10720  0.32995  Biso   1.000  Cl
  Cl6      1.0000 0.80282  0.89280  0.67005  Biso   1.000  Cl
  C1       1.0000 0.65660  0.03600  0.29890  Biso   1.000  C
  C2       1.0000 0.34340  0.96400  0.70110  Biso   1.000  C
  H1       1.0000 0.67040  0.08880  0.23840  Biso   1.000  H
  H2       1.0000 0.32960  0.91120  0.76160  Biso   1.000  H
  C3       1.0000 0.76820  0.03650  0.35030  Biso   1.000  C
  C4       1.0000 0.23180  0.96350  0.64970  Biso   1.000  C
  H3       1.0000 0.85540  0.08850  0.32440  Biso   1.000  H
  H4       1.0000 0.14460  0.91150  0.67560  Biso   1.000  H
  C5       1.0000 0.74880  0.95970  0.43990  Biso   1.000  C
  C6       1.0000 0.25120  0.04030  0.56010  Biso   1.000  C
  H5       1.0000 0.82320  0.95800  0.47530  Biso   1.000  H
  H6       1.0000 0.17680  0.04200  0.52470  Biso   1.000  H
  C7       1.0000 0.61490  0.88420  0.47700  Biso   1.000  C
  C8       1.0000 0.38510  0.11580  0.52300  Biso   1.000  C
  H7       1.0000 0.59710  0.83250  0.53810  Biso   1.000  H
  H8       1.0000 0.40290  0.16750  0.46190  Biso   1.000  H
  C9       1.0000 0.51030  0.88770  0.42160  Biso   1.000  C
  C10      1.0000 0.48970  0.11230  0.57840  Biso   1.000  C
  C11      1.0000 0.36930  0.81050  0.45350  Biso   1.000  C
  C12      1.0000 0.63070  0.18950  0.54650  Biso   1.000  C
  H9       1.0000 0.34130  0.76030  0.51520  Biso   1.000  H
  H10      1.0000 0.65870  0.23970  0.48480  Biso   1.000  H
  C13      1.0000 0.14450  0.74290  0.42190  Biso   1.000  C
  C14      1.0000 0.85550  0.25710  0.57810  Biso   1.000  C
  C15      1.0000 0.03500  0.74220  0.50480  Biso   1.000  C
  C16      1.0000 0.96500  0.25780  0.49520  Biso   1.000  C
  H11      1.0000 0.05630  0.78380  0.54470  Biso   1.000  H
  H12      1.0000 0.94370  0.21620  0.45530  Biso   1.000  H
  C17      1.0000 0.89460  0.67910  0.52720  Biso   1.000  C
  C18      1.0000 0.10540  0.32090  0.47280  Biso   1.000  C
  H13      1.0000 0.82050  0.67880  0.58230  Biso   1.000  H
  H14      1.0000 0.17950  0.32120  0.41770  Biso   1.000  H
  C19      1.0000 0.86300  0.61610  0.46810  Biso   1.000  C
  C20      1.0000 0.13700  0.38390  0.53190  Biso   1.000  C
  C21      1.0000 0.97490  0.61280  0.38770  Biso   1.000  C
  C22      1.0000 0.02510  0.38720  0.61230  Biso   1.000  C
  H15      1.0000 0.95560  0.56790  0.34960  Biso   1.000  H
  H16      1.0000 0.04440  0.43210  0.65040  Biso   1.000  H
  C23      1.0000 0.11570  0.67690  0.36430  Biso   1.000  C
  C24      1.0000 0.88430  0.32310  0.63570  Biso   1.000  C
  H17      1.0000 0.19080  0.67560  0.31010  Biso   1.000  H
  H18      1.0000 0.80920  0.32440  0.68990  Biso   1.000  H
  C25      1.0000 0.70690  0.55770  0.48900  Biso   1.000  C
  C26      1.0000 0.29310  0.44230  0.51100  Biso   1.000  C
  C27      1.0000 0.62890  0.62690  0.78300  Biso   1.000  C
  C28      1.0000 0.37110  0.37310  0.21700  Biso   1.000  C
  H19      1.0000 0.61200  0.68340  0.72970  Biso   1.000  H
  H20      1.0000 0.38800  0.31660  0.27030  Biso   1.000  H
  C29      1.0000 0.58450  0.51270  0.79690  Biso   1.000  C
  C30      1.0000 0.41550  0.48730  0.20310  Biso   1.000  C
  H21      1.0000 0.53950  0.49260  0.75300  Biso   1.000  H
  H22      1.0000 0.46050  0.50740  0.24700  Biso   1.000  H
  C31      1.0000 0.60600  0.42780  0.87530  Biso   1.000  C
  C32      1.0000 0.39400  0.57220  0.12470  Biso   1.000  C
  H23      1.0000 0.57750  0.34970  0.88480  Biso   1.000  H
  H24      1.0000 0.42250  0.65030  0.11520  Biso   1.000  H
  C33      1.0000 0.67150  0.46090  0.94060  Biso   1.000  C
  C34      1.0000 0.32850  0.53910  0.05940  Biso   1.000  C
  H25      1.0000 0.68620  0.40580  0.99520  Biso   1.000  H
  H26      1.0000 0.31380  0.59420  0.00480  Biso   1.000  H
  C35      1.0000 0.71390  0.57780  0.92190  Biso   1.000  C
  C36      1.0000 0.28610  0.42220  0.07810  Biso   1.000  C
  C37      1.0000 0.77750  0.62400  0.98700  Biso   1.000  C
  C38      1.0000 0.22250  0.37600  0.01300  Biso   1.000  C
  H27      1.0000 0.79540  0.57450  0.04320  Biso   1.000  H
  H28      1.0000 0.20460  0.42550  0.95680  Biso   1.000  H
  C39      1.0000 0.87190  0.78260  0.02510  Biso   1.000  C
  C40      1.0000 0.12810  0.21740  0.97490  Biso   1.000  C
  C41      1.0000 0.99820  0.73260  0.05940  Biso   1.000  C
  C42      1.0000 0.00180  0.26740  0.94060  Biso   1.000  C
  H29      1.0000 0.03680  0.66460  0.04630  Biso   1.000  H
  H30      1.0000 0.96320  0.33540  0.95370  Biso   1.000  H
  C43      1.0000 0.06570  0.78440  0.11300  Biso   1.000  C
  C44      1.0000 0.93430  0.21560  0.88700  Biso   1.000  C
  H31      1.0000 0.14890  0.75030  0.13700  Biso   1.000  H
  H32      1.0000 0.85110  0.24970  0.86300  Biso   1.000  H
  C45      1.0000 0.01120  0.88660  0.13170  Biso   1.000  C
  C46      1.0000 0.98880  0.11340  0.86830  Biso   1.000  C
  C47      1.0000 0.88320  0.93560  0.09770  Biso   1.000  C
  C48      1.0000 0.11680  0.06440  0.90230  Biso   1.000  C
  H33      1.0000 0.84470  0.00340  0.11110  Biso   1.000  H
  H34      1.0000 0.15530  0.99660  0.88890  Biso   1.000  H
  C49      1.0000 0.81350  0.88420  0.04450  Biso   1.000  C
  C50      1.0000 0.18650  0.11580  0.95550  Biso   1.000  C
  H35      1.0000 0.72850  0.91710  0.02190  Biso   1.000  H
  H36      1.0000 0.27150  0.08290  0.97810  Biso   1.000  H
  C51      1.0000 0.10190  0.95120  0.17680  Biso   1.000  C
  C52      1.0000 0.89810  0.04880  0.82320  Biso   1.000  C
  C53      1.0000 0.61780  0.70930  0.27070  Biso   1.000  C
  C54      1.0000 0.38220  0.29070  0.72930  Biso   1.000  C
  N1       1.0000 0.53030  0.96260  0.33283  Biso   1.000  N
  N2       1.0000 0.46970  0.03740  0.66717  Biso   1.000  N
  N3       1.0000 0.28510  0.81380  0.39381  Biso   1.000  N
  N4       1.0000 0.71490  0.18620  0.60619  Biso   1.000  N
  N5       1.0000 0.69570  0.66050  0.84327  Biso   1.000  N
  N6       1.0000 0.30430  0.33950  0.15673  Biso   1.000  N
  N7       1.0000 0.80770  0.73440  0.96430  Biso   1.000  N
  N8       1.0000 0.19230  0.26560  0.03570  Biso   1.000  N
  O1       1.0000 0.68890  0.48970  0.43940  Biso   1.000  O
  O2       1.0000 0.31110  0.51030  0.56060  Biso   1.000  O
  O3       1.0000 0.59820  0.57870  0.55110  Biso   1.000  O
  O4       1.0000 0.40180  0.42130  0.44890  Biso   1.000  O
  O5       1.0000 0.20450  0.89540  0.21390  Biso   1.000  O
  O6       1.0000 0.79550  0.10460  0.78610  Biso   1.000  O
  O7       1.0000 0.07340  0.05598  0.17016  Biso   1.000  O
  O8       1.0000 0.92660  0.94402  0.82984  Biso   1.000  O
  O9       1.0000 0.79320  0.34040  0.14410  Biso   1.000  O
  O10      1.0000 0.20680  0.65960  0.85590  Biso   1.000  O
  O11      1.0000 0.95390  0.30520  0.24270  Biso   1.000  O
  O12      1.0000 0.04610  0.69480  0.75730  Biso   1.000  O
  O13      1.0000 0.83980  0.48430  0.20410  Biso   1.000  O
  O14      1.0000 0.16020  0.51570  0.79590  Biso   1.000  O
  O15      1.0000 0.69820  0.31990  0.30400  Biso   1.000  O
  O16      1.0000 0.30180  0.68010  0.69600  Biso   1.000  O
  O17      1.0000 0.51940  0.77860  0.21530  Biso   1.000  O
  O18      1.0000 0.48060  0.22140  0.78470  Biso   1.000  O
