data_image0
_cell_length_a       14.239
_cell_length_b       8.707
_cell_length_c       11.717
_cell_angle_alpha    90
_cell_angle_beta     90.244
_cell_angle_gamma    90

_symmetry_space_group_name_H-M    "P 1"
_symmetry_int_tables_number       1

loop_
  _symmetry_equiv_pos_as_xyz
  'x, y, z'

loop_
  _atom_site_label
  _atom_site_occupancy
  _atom_site_fract_x
  _atom_site_fract_y
  _atom_site_fract_z
  _atom_site_thermal_displace_type
  _atom_site_B_iso_or_equiv
  _atom_site_type_symbol
  Cu1      1.0000 0.27920  0.15060  0.07460  Biso   1.000  Cu
  Cu2      1.0000 0.22080  0.65060  0.42540  Biso   1.000  Cu
  Cu3      1.0000 0.72080  0.84940  0.92540  Biso   1.000  Cu
  Cu4      1.0000 0.77920  0.34940  0.57460  Biso   1.000  Cu
  C1       1.0000 0.35640  0.46400  0.10960  Biso   1.000  C
  C2       1.0000 0.14360  0.96400  0.39040  Biso   1.000  C
  C3       1.0000 0.64360  0.53600  0.89040  Biso   1.000  C
  C4       1.0000 0.85640  0.03600  0.60960  Biso   1.000  C
  C5       1.0000 0.50470  0.43840  0.15130  Biso   1.000  C
  C6       1.0000 0.99530  0.93840  0.34870  Biso   1.000  C
  C7       1.0000 0.49530  0.56160  0.84870  Biso   1.000  C
  C8       1.0000 0.00470  0.06160  0.65130  Biso   1.000  C
  C9       1.0000 0.46640  0.29930  0.13210  Biso   1.000  C
  C10      1.0000 0.03360  0.79930  0.36790  Biso   1.000  C
  C11      1.0000 0.53360  0.70070  0.86790  Biso   1.000  C
  C12      1.0000 0.96640  0.20070  0.63210  Biso   1.000  C
  C13      1.0000 0.17480  0.85720  0.10820  Biso   1.000  C
  C14      1.0000 0.32520  0.35720  0.39180  Biso   1.000  C
  C15      1.0000 0.82520  0.14280  0.89180  Biso   1.000  C
  C16      1.0000 0.67480  0.64280  0.60820  Biso   1.000  C
  C17      1.0000 0.08110  0.82890  0.96210  Biso   1.000  C
  C18      1.0000 0.41890  0.32890  0.53790  Biso   1.000  C
  C19      1.0000 0.91890  0.17110  0.03790  Biso   1.000  C
  C20      1.0000 0.58110  0.67110  0.46210  Biso   1.000  C
  C21      1.0000 0.12900  0.96080  0.95160  Biso   1.000  C
  C22      1.0000 0.37100  0.46080  0.54840  Biso   1.000  C
  C23      1.0000 0.87100  0.03920  0.04840  Biso   1.000  C
  C24      1.0000 0.62900  0.53920  0.45160  Biso   1.000  C
  C25      1.0000 0.15220  0.34640  0.93530  Biso   1.000  C
  C26      1.0000 0.34780  0.84640  0.56470  Biso   1.000  C
  C27      1.0000 0.84780  0.65360  0.06470  Biso   1.000  C
  C28      1.0000 0.65220  0.15360  0.43530  Biso   1.000  C
  C29      1.0000 0.21010  0.35060  0.76270  Biso   1.000  C
  C30      1.0000 0.28990  0.85060  0.73730  Biso   1.000  C
  C31      1.0000 0.78990  0.64940  0.23730  Biso   1.000  C
  C32      1.0000 0.71010  0.14940  0.26270  Biso   1.000  C
  C33      1.0000 0.26890  0.27070  0.83210  Biso   1.000  C
  C34      1.0000 0.23110  0.77070  0.66790  Biso   1.000  C
  C35      1.0000 0.73110  0.72930  0.16790  Biso   1.000  C
  C36      1.0000 0.76890  0.22930  0.33210  Biso   1.000  C
  H1       1.0000 0.29910  0.51320  0.09510  Biso   1.000  H
  H2       1.0000 0.20090  0.01320  0.40490  Biso   1.000  H
  H3       1.0000 0.70090  0.48680  0.90490  Biso   1.000  H
  H4       1.0000 0.79910  0.98680  0.59510  Biso   1.000  H
  H5       1.0000 0.21420  0.37620  0.68390  Biso   1.000  H
  H6       1.0000 0.28580  0.87620  0.81610  Biso   1.000  H
  H7       1.0000 0.78580  0.62380  0.31610  Biso   1.000  H
  H8       1.0000 0.71420  0.12380  0.18390  Biso   1.000  H
  H9       1.0000 0.32360  0.23300  0.81600  Biso   1.000  H
  H10      1.0000 0.17640  0.73300  0.68400  Biso   1.000  H
  H11      1.0000 0.67640  0.76700  0.18400  Biso   1.000  H
  H12      1.0000 0.82360  0.26700  0.31600  Biso   1.000  H
  H13      1.0000 0.08420  0.45030  0.80860  Biso   1.000  H
  H14      1.0000 0.41580  0.95030  0.69140  Biso   1.000  H
  H15      1.0000 0.91580  0.54970  0.19140  Biso   1.000  H
  H16      1.0000 0.58420  0.04970  0.30860  Biso   1.000  H
  H17      1.0000 0.44510  0.05710  0.91630  Biso   1.000  H
  H18      1.0000 0.05490  0.55710  0.58370  Biso   1.000  H
  H19      1.0000 0.55490  0.94290  0.08370  Biso   1.000  H
  H20      1.0000 0.94510  0.44290  0.41630  Biso   1.000  H
  H21      1.0000 0.41790  0.95950  0.00230  Biso   1.000  H
  H22      1.0000 0.08210  0.45950  0.49770  Biso   1.000  H
  H23      1.0000 0.58210  0.04050  0.99770  Biso   1.000  H
  H24      1.0000 0.91790  0.54050  0.50230  Biso   1.000  H
  H25      1.0000 0.56550  0.46780  0.16550  Biso   1.000  H
  H26      1.0000 0.93450  0.96780  0.33450  Biso   1.000  H
  H27      1.0000 0.43450  0.53220  0.83450  Biso   1.000  H
  H28      1.0000 0.06550  0.03220  0.66550  Biso   1.000  H
  H29      1.0000 0.49350  0.20160  0.12870  Biso   1.000  H
  H30      1.0000 0.00650  0.70160  0.37130  Biso   1.000  H
  H31      1.0000 0.50650  0.79840  0.87130  Biso   1.000  H
  H32      1.0000 0.99350  0.29840  0.62870  Biso   1.000  H
  H33      1.0000 0.44130  0.63350  0.14460  Biso   1.000  H
  H34      1.0000 0.05870  0.13350  0.35540  Biso   1.000  H
  H35      1.0000 0.55870  0.36650  0.85540  Biso   1.000  H
  H36      1.0000 0.94130  0.86650  0.64460  Biso   1.000  H
  H37      1.0000 0.19980  0.85000  0.17750  Biso   1.000  H
  H38      1.0000 0.30020  0.35000  0.32250  Biso   1.000  H
  H39      1.0000 0.80020  0.15000  0.82250  Biso   1.000  H
  H40      1.0000 0.69980  0.65000  0.67750  Biso   1.000  H
  H41      1.0000 0.03360  0.79040  0.91230  Biso   1.000  H
  H42      1.0000 0.46640  0.29040  0.58770  Biso   1.000  H
  H43      1.0000 0.96640  0.20960  0.08770  Biso   1.000  H
  H44      1.0000 0.53360  0.70960  0.41230  Biso   1.000  H
  H45      1.0000 0.12370  0.03790  0.89330  Biso   1.000  H
  H46      1.0000 0.37630  0.53790  0.60670  Biso   1.000  H
  H47      1.0000 0.87630  0.96210  0.10670  Biso   1.000  H
  H48      1.0000 0.62370  0.46210  0.39330  Biso   1.000  H
  H49      1.0000 0.09060  0.67790  0.09800  Biso   1.000  H
  H50      1.0000 0.40940  0.17790  0.40200  Biso   1.000  H
  H51      1.0000 0.90940  0.32210  0.90200  Biso   1.000  H
  H52      1.0000 0.59060  0.82210  0.59800  Biso   1.000  H
  H53      1.0000 0.11510  0.37430  0.99980  Biso   1.000  H
  H54      1.0000 0.38490  0.87430  0.50020  Biso   1.000  H
  H55      1.0000 0.88490  0.62570  0.00020  Biso   1.000  H
  H56      1.0000 0.61510  0.12570  0.49980  Biso   1.000  H
  N1       1.0000 0.37340  0.31590  0.10560  Biso   1.000  N
  N2       1.0000 0.12660  0.81590  0.39440  Biso   1.000  N
  N3       1.0000 0.62660  0.68410  0.89440  Biso   1.000  N
  N4       1.0000 0.87340  0.18410  0.60560  Biso   1.000  N
  N5       1.0000 0.43440  0.54170  0.13670  Biso   1.000  N
  N6       1.0000 0.06560  0.04170  0.36330  Biso   1.000  N
  N7       1.0000 0.56560  0.45830  0.86330  Biso   1.000  N
  N8       1.0000 0.93440  0.95830  0.63670  Biso   1.000  N
  N9       1.0000 0.18840  0.97990  0.04410  Biso   1.000  N
  N10      1.0000 0.31160  0.47990  0.45590  Biso   1.000  N
  N11      1.0000 0.81160  0.02010  0.95590  Biso   1.000  N
  N12      1.0000 0.68840  0.52010  0.54410  Biso   1.000  N
  N13      1.0000 0.11130  0.76280  0.06180  Biso   1.000  N
  N14      1.0000 0.38870  0.26280  0.43820  Biso   1.000  N
  N15      1.0000 0.88870  0.23720  0.93820  Biso   1.000  N
  N16      1.0000 0.61130  0.73720  0.56180  Biso   1.000  N
  N17      1.0000 0.23150  0.26850  0.94030  Biso   1.000  N
  N18      1.0000 0.26850  0.76850  0.55970  Biso   1.000  N
  N19      1.0000 0.76850  0.73150  0.05970  Biso   1.000  N
  N20      1.0000 0.73150  0.23150  0.44030  Biso   1.000  N
  N21      1.0000 0.13740  0.39800  0.82900  Biso   1.000  N
  N22      1.0000 0.36260  0.89800  0.67100  Biso   1.000  N
  N23      1.0000 0.86260  0.60200  0.17100  Biso   1.000  N
  N24      1.0000 0.63740  0.10200  0.32900  Biso   1.000  N
  O1       1.0000 0.45720  0.98520  0.33560  Biso   1.000  O
  O2       1.0000 0.04280  0.48520  0.16440  Biso   1.000  O
  O3       1.0000 0.54280  0.01480  0.66440  Biso   1.000  O
  O4       1.0000 0.95720  0.51480  0.83560  Biso   1.000  O
  O5       1.0000 0.32590  0.04230  0.21580  Biso   1.000  O
  O6       1.0000 0.17410  0.54230  0.28420  Biso   1.000  O
  O7       1.0000 0.67410  0.95770  0.78420  Biso   1.000  O
  O8       1.0000 0.82590  0.45770  0.71580  Biso   1.000  O
  O9       1.0000 0.34140  0.79010  0.29890  Biso   1.000  O
  O10      1.0000 0.15860  0.29010  0.20110  Biso   1.000  O
  O11      1.0000 0.65860  0.20990  0.70110  Biso   1.000  O
  O12      1.0000 0.84140  0.70990  0.79890  Biso   1.000  O
  O13      1.0000 0.44610  0.86780  0.14910  Biso   1.000  O
  O14      1.0000 0.05390  0.36780  0.35090  Biso   1.000  O
  O15      1.0000 0.55390  0.13220  0.85090  Biso   1.000  O
  O16      1.0000 0.94610  0.63220  0.64910  Biso   1.000  O
  O17      1.0000 0.38960  0.01130  0.94870  Biso   1.000  O
  O18      1.0000 0.11040  0.51130  0.55130  Biso   1.000  O
  O19      1.0000 0.61040  0.98870  0.05130  Biso   1.000  O
  O20      1.0000 0.88960  0.48870  0.44870  Biso   1.000  O
  S1       1.0000 0.39210  0.91980  0.25050  Biso   1.000  S
  S2       1.0000 0.10790  0.41980  0.24950  Biso   1.000  S
  S3       1.0000 0.60790  0.08020  0.74950  Biso   1.000  S
  S4       1.0000 0.89210  0.58020  0.75050  Biso   1.000  S
