data_image0
_cell_length_a       11.723
_cell_length_b       8.6507
_cell_length_c       13.839
_cell_angle_alpha    90
_cell_angle_beta     91.703
_cell_angle_gamma    90

_symmetry_space_group_name_H-M    "P 1"
_symmetry_int_tables_number       1

loop_
  _symmetry_equiv_pos_as_xyz
  'x, y, z'

loop_
  _atom_site_label
  _atom_site_occupancy
  _atom_site_fract_x
  _atom_site_fract_y
  _atom_site_fract_z
  _atom_site_thermal_displace_type
  _atom_site_B_iso_or_equiv
  _atom_site_type_symbol
  Cu1      1.0000 0.57914  0.65540  0.78070  Biso   1.000  Cu
  Cu2      1.0000 0.92086  0.15540  0.71930  Biso   1.000  Cu
  Cu3      1.0000 0.42086  0.34460  0.21930  Biso   1.000  Cu
  Cu4      1.0000 0.07914  0.84460  0.28070  Biso   1.000  Cu
  S1       1.0000 0.75828  0.42368  0.89478  Biso   1.000  S
  S2       1.0000 0.74172  0.92368  0.60522  Biso   1.000  S
  S3       1.0000 0.24172  0.57632  0.10522  Biso   1.000  S
  S4       1.0000 0.25828  0.07632  0.39478  Biso   1.000  S
  N1       1.0000 0.54130  0.48330  0.68900  Biso   1.000  N
  N2       1.0000 0.95870  0.98330  0.81100  Biso   1.000  N
  N3       1.0000 0.45870  0.51670  0.31100  Biso   1.000  N
  N4       1.0000 0.04130  0.01670  0.18900  Biso   1.000  N
  N5       1.0000 0.55290  0.26840  0.60800  Biso   1.000  N
  N6       1.0000 0.94710  0.76840  0.89200  Biso   1.000  N
  N7       1.0000 0.44710  0.73160  0.39200  Biso   1.000  N
  N8       1.0000 0.05290  0.23160  0.10800  Biso   1.000  N
  H1       1.0000 0.57870  0.18160  0.58760  Biso   1.000  H
  H2       1.0000 0.92130  0.68160  0.91240  Biso   1.000  H
  H3       1.0000 0.42130  0.81840  0.41240  Biso   1.000  H
  H4       1.0000 0.07870  0.31840  0.08760  Biso   1.000  H
  N9       1.0000 0.61260  0.81890  0.87800  Biso   1.000  N
  N10      1.0000 0.88740  0.31890  0.62200  Biso   1.000  N
  N11      1.0000 0.38740  0.18110  0.12200  Biso   1.000  N
  N12      1.0000 0.11260  0.68110  0.37800  Biso   1.000  N
  N13      1.0000 0.64520  0.04520  0.94310  Biso   1.000  N
  N14      1.0000 0.85480  0.54520  0.55690  Biso   1.000  N
  N15      1.0000 0.35480  0.95480  0.05690  Biso   1.000  N
  N16      1.0000 0.14520  0.45480  0.44310  Biso   1.000  N
  H5       1.0000 0.65560  0.14320  0.94870  Biso   1.000  H
  H6       1.0000 0.84440  0.64320  0.55130  Biso   1.000  H
  H7       1.0000 0.34440  0.85680  0.05130  Biso   1.000  H
  H8       1.0000 0.15560  0.35680  0.44870  Biso   1.000  H
  N17      1.0000 0.43930  0.77080  0.73720  Biso   1.000  N
  N18      1.0000 0.06070  0.27080  0.76280  Biso   1.000  N
  N19      1.0000 0.56070  0.22920  0.26280  Biso   1.000  N
  N20      1.0000 0.93930  0.72920  0.23720  Biso   1.000  N
  N21      1.0000 0.32320  0.89960  0.64330  Biso   1.000  N
  N22      1.0000 0.17680  0.39960  0.85670  Biso   1.000  N
  N23      1.0000 0.67680  0.10040  0.35670  Biso   1.000  N
  N24      1.0000 0.82320  0.60040  0.14330  Biso   1.000  N
  H9       1.0000 0.29880  0.95450  0.59520  Biso   1.000  H
  H10      1.0000 0.20120  0.45450  0.90480  Biso   1.000  H
  H11      1.0000 0.70120  0.04550  0.40480  Biso   1.000  H
  H12      1.0000 0.79880  0.54550  0.09520  Biso   1.000  H
  O1       1.0000 0.72160  0.54620  0.82610  Biso   1.000  O
  O2       1.0000 0.77840  0.04620  0.67390  Biso   1.000  O
  O3       1.0000 0.27840  0.45380  0.17390  Biso   1.000  O
  O4       1.0000 0.22160  0.95380  0.32610  Biso   1.000  O
  O5       1.0000 0.80010  0.29130  0.84220  Biso   1.000  O
  O6       1.0000 0.69990  0.79130  0.65780  Biso   1.000  O
  O7       1.0000 0.19990  0.70870  0.15780  Biso   1.000  O
  O8       1.0000 0.30010  0.20870  0.34220  Biso   1.000  O
  O9       1.0000 0.66250  0.37600  0.95430  Biso   1.000  O
  O10      1.0000 0.83750  0.87600  0.54570  Biso   1.000  O
  O11      1.0000 0.33750  0.62400  0.04570  Biso   1.000  O
  O12      1.0000 0.16250  0.12400  0.45430  Biso   1.000  O
  O13      1.0000 0.84790  0.48850  0.95830  Biso   1.000  O
  O14      1.0000 0.65210  0.98850  0.54170  Biso   1.000  O
  O15      1.0000 0.15210  0.51150  0.04170  Biso   1.000  O
  O16      1.0000 0.34790  0.01150  0.45830  Biso   1.000  O
  O17      1.0000 0.45980  0.50720  0.90090  Biso   1.000  O
  O18      1.0000 0.04020  0.00720  0.59910  Biso   1.000  O
  O19      1.0000 0.54020  0.49280  0.09910  Biso   1.000  O
  O20      1.0000 0.95980  0.99280  0.40090  Biso   1.000  O
  H13      1.0000 0.51590  0.49330  0.93670  Biso   1.000  H
  H14      1.0000 0.98410  0.99330  0.56330  Biso   1.000  H
  H15      1.0000 0.48410  0.50670  0.06330  Biso   1.000  H
  H16      1.0000 0.01590  0.00670  0.43670  Biso   1.000  H
  H17      1.0000 0.40130  0.51890  0.93440  Biso   1.000  H
  H18      1.0000 0.09870  0.01890  0.56560  Biso   1.000  H
  H19      1.0000 0.59870  0.48110  0.06560  Biso   1.000  H
  H20      1.0000 0.90130  0.98110  0.43440  Biso   1.000  H
  C1       1.0000 0.60280  0.35740  0.67480  Biso   1.000  C
  C2       1.0000 0.89720  0.85740  0.82520  Biso   1.000  C
  C3       1.0000 0.39720  0.64260  0.32520  Biso   1.000  C
  C4       1.0000 0.10280  0.14260  0.17480  Biso   1.000  C
  H21      1.0000 0.67140  0.33450  0.70720  Biso   1.000  H
  H22      1.0000 0.82860  0.83450  0.79280  Biso   1.000  H
  H23      1.0000 0.32860  0.66550  0.29280  Biso   1.000  H
  H24      1.0000 0.17140  0.16550  0.20720  Biso   1.000  H
  C5       1.0000 0.45400  0.33730  0.57700  Biso   1.000  C
  C6       1.0000 0.04600  0.83730  0.92300  Biso   1.000  C
  C7       1.0000 0.54600  0.66270  0.42300  Biso   1.000  C
  C8       1.0000 0.95400  0.16270  0.07700  Biso   1.000  C
  H25      1.0000 0.40190  0.29950  0.53090  Biso   1.000  H
  H26      1.0000 0.09810  0.79950  0.96910  Biso   1.000  H
  H27      1.0000 0.59810  0.70050  0.46910  Biso   1.000  H
  H28      1.0000 0.90190  0.20050  0.03090  Biso   1.000  H
  C9       1.0000 0.44660  0.47070  0.62600  Biso   1.000  C
  C10      1.0000 0.05340  0.97070  0.87400  Biso   1.000  C
  C11      1.0000 0.55340  0.52930  0.37400  Biso   1.000  C
  C12      1.0000 0.94660  0.02930  0.12600  Biso   1.000  C
  H29      1.0000 0.38810  0.54270  0.61910  Biso   1.000  H
  H30      1.0000 0.11190  0.04270  0.88090  Biso   1.000  H
  H31      1.0000 0.61190  0.45730  0.38090  Biso   1.000  H
  H32      1.0000 0.88810  0.95730  0.11910  Biso   1.000  H
  C13      1.0000 0.62080  0.96930  0.86260  Biso   1.000  C
  C14      1.0000 0.87920  0.46930  0.63740  Biso   1.000  C
  C15      1.0000 0.37920  0.03070  0.13740  Biso   1.000  C
  C16      1.0000 0.12080  0.53070  0.36260  Biso   1.000  C
  H33      1.0000 0.61050  0.01580  0.80240  Biso   1.000  H
  H34      1.0000 0.88950  0.51580  0.69760  Biso   1.000  H
  H35      1.0000 0.38950  0.98420  0.19760  Biso   1.000  H
  H36      1.0000 0.11050  0.48420  0.30240  Biso   1.000  H
  C17      1.0000 0.65100  0.94060  0.01480  Biso   1.000  C
  C18      1.0000 0.84900  0.44060  0.48520  Biso   1.000  C
  C19      1.0000 0.34900  0.05940  0.98520  Biso   1.000  C
  C20      1.0000 0.15100  0.55940  0.51480  Biso   1.000  C
  H37      1.0000 0.66560  0.96090  0.08000  Biso   1.000  H
  H38      1.0000 0.83440  0.46090  0.42000  Biso   1.000  H
  H39      1.0000 0.33440  0.03910  0.92000  Biso   1.000  H
  H40      1.0000 0.16560  0.53910  0.58000  Biso   1.000  H
  C21      1.0000 0.63190  0.80290  0.97520  Biso   1.000  C
  C22      1.0000 0.86810  0.30290  0.52480  Biso   1.000  C
  C23      1.0000 0.36810  0.19710  0.02480  Biso   1.000  C
  C24      1.0000 0.13190  0.69710  0.47520  Biso   1.000  C
  H41      1.0000 0.63160  0.70970  0.00870  Biso   1.000  H
  H42      1.0000 0.86840  0.20970  0.49130  Biso   1.000  H
  H43      1.0000 0.36840  0.29030  0.99130  Biso   1.000  H
  H44      1.0000 0.13160  0.79030  0.50870  Biso   1.000  H
  C25      1.0000 0.43010  0.85210  0.65930  Biso   1.000  C
  C26      1.0000 0.06990  0.35210  0.84070  Biso   1.000  C
  C27      1.0000 0.56990  0.14790  0.34070  Biso   1.000  C
  C28      1.0000 0.93010  0.64790  0.15930  Biso   1.000  C
  H45      1.0000 0.49040  0.87470  0.61950  Biso   1.000  H
  H46      1.0000 0.00960  0.37470  0.88050  Biso   1.000  H
  H47      1.0000 0.50960  0.12530  0.38050  Biso   1.000  H
  H48      1.0000 0.99040  0.62530  0.11950  Biso   1.000  H
  C29      1.0000 0.26040  0.84620  0.71580  Biso   1.000  C
  C30      1.0000 0.23960  0.34620  0.78420  Biso   1.000  C
  C31      1.0000 0.73960  0.15380  0.28420  Biso   1.000  C
  C32      1.0000 0.76040  0.65380  0.21580  Biso   1.000  C
  H49      1.0000 0.18270  0.86130  0.72360  Biso   1.000  H
  H50      1.0000 0.31730  0.36130  0.77640  Biso   1.000  H
  H51      1.0000 0.81730  0.13870  0.27640  Biso   1.000  H
  H52      1.0000 0.68270  0.63870  0.22360  Biso   1.000  H
  C33      1.0000 0.33230  0.76620  0.77530  Biso   1.000  C
  C34      1.0000 0.16770  0.26620  0.72470  Biso   1.000  C
  C35      1.0000 0.66770  0.23380  0.22470  Biso   1.000  C
  C36      1.0000 0.83230  0.73380  0.27530  Biso   1.000  C
  H53      1.0000 0.31290  0.71670  0.83210  Biso   1.000  H
  H54      1.0000 0.18710  0.21670  0.66790  Biso   1.000  H
  H55      1.0000 0.68710  0.28330  0.16790  Biso   1.000  H
  H56      1.0000 0.81290  0.78330  0.33210  Biso   1.000  H
