data_image0
_cell_length_a       9.176
_cell_length_b       17.529
_cell_length_c       10.501
_cell_angle_alpha    90
_cell_angle_beta     93.667
_cell_angle_gamma    90

_symmetry_space_group_name_H-M    "P 1"
_symmetry_int_tables_number       1

loop_
  _symmetry_equiv_pos_as_xyz
  'x, y, z'

loop_
  _atom_site_label
  _atom_site_occupancy
  _atom_site_fract_x
  _atom_site_fract_y
  _atom_site_fract_z
  _atom_site_thermal_displace_type
  _atom_site_B_iso_or_equiv
  _atom_site_type_symbol
  Cu1      1.0000 0.25000  0.25000  0.00000  Biso   1.000  Cu
  Cu2      1.0000 0.75000  0.25000  0.50000  Biso   1.000  Cu
  Cu3      1.0000 0.75000  0.75000  0.00000  Biso   1.000  Cu
  Cu4      1.0000 0.25000  0.75000  0.50000  Biso   1.000  Cu
  N1       1.0000 0.21710  0.33471  0.12200  Biso   1.000  N
  N2       1.0000 0.78290  0.33471  0.37800  Biso   1.000  N
  N3       1.0000 0.71710  0.83471  0.12200  Biso   1.000  N
  N4       1.0000 0.28290  0.83471  0.37800  Biso   1.000  N
  N5       1.0000 0.78290  0.66529  0.87800  Biso   1.000  N
  N6       1.0000 0.21710  0.66529  0.62200  Biso   1.000  N
  N7       1.0000 0.28290  0.16529  0.87800  Biso   1.000  N
  N8       1.0000 0.71710  0.16529  0.62200  Biso   1.000  N
  N9       1.0000 0.16030  0.44786  0.18770  Biso   1.000  N
  N10      1.0000 0.83970  0.44786  0.31230  Biso   1.000  N
  N11      1.0000 0.66030  0.94786  0.18770  Biso   1.000  N
  N12      1.0000 0.33970  0.94786  0.31230  Biso   1.000  N
  N13      1.0000 0.83970  0.55214  0.81230  Biso   1.000  N
  N14      1.0000 0.16030  0.55214  0.68770  Biso   1.000  N
  N15      1.0000 0.33970  0.05214  0.81230  Biso   1.000  N
  N16      1.0000 0.66030  0.05214  0.68770  Biso   1.000  N
  H1       1.0000 0.12000  0.49210  0.19000  Biso   1.000  H
  H2       1.0000 0.88000  0.49210  0.31000  Biso   1.000  H
  H3       1.0000 0.62000  0.99210  0.19000  Biso   1.000  H
  H4       1.0000 0.38000  0.99210  0.31000  Biso   1.000  H
  H5       1.0000 0.88000  0.50790  0.81000  Biso   1.000  H
  H6       1.0000 0.12000  0.50790  0.69000  Biso   1.000  H
  H7       1.0000 0.38000  0.00790  0.81000  Biso   1.000  H
  H8       1.0000 0.62000  0.00790  0.69000  Biso   1.000  H
  N17      1.0000 0.06860  0.19494  0.04870  Biso   1.000  N
  N18      1.0000 0.93140  0.19494  0.45130  Biso   1.000  N
  N19      1.0000 0.56860  0.69494  0.04870  Biso   1.000  N
  N20      1.0000 0.43140  0.69494  0.45130  Biso   1.000  N
  N21      1.0000 0.93140  0.80506  0.95130  Biso   1.000  N
  N22      1.0000 0.06860  0.80506  0.54870  Biso   1.000  N
  N23      1.0000 0.43140  0.30506  0.95130  Biso   1.000  N
  N24      1.0000 0.56860  0.30506  0.54870  Biso   1.000  N
  N25      1.0000 0.85950  0.16980  0.12570  Biso   1.000  N
  N26      1.0000 0.14050  0.16980  0.37430  Biso   1.000  N
  N27      1.0000 0.35950  0.66980  0.12570  Biso   1.000  N
  N28      1.0000 0.64050  0.66980  0.37430  Biso   1.000  N
  N29      1.0000 0.14050  0.83020  0.87430  Biso   1.000  N
  N30      1.0000 0.85950  0.83020  0.62570  Biso   1.000  N
  N31      1.0000 0.64050  0.33020  0.87430  Biso   1.000  N
  N32      1.0000 0.35950  0.33020  0.62570  Biso   1.000  N
  H9       1.0000 0.77680  0.17680  0.15810  Biso   1.000  H
  H10      1.0000 0.22320  0.17680  0.34190  Biso   1.000  H
  H11      1.0000 0.27680  0.67680  0.15810  Biso   1.000  H
  H12      1.0000 0.72320  0.67680  0.34190  Biso   1.000  H
  H13      1.0000 0.22320  0.82320  0.84190  Biso   1.000  H
  H14      1.0000 0.77680  0.82320  0.65810  Biso   1.000  H
  H15      1.0000 0.72320  0.32320  0.84190  Biso   1.000  H
  H16      1.0000 0.27680  0.32320  0.65810  Biso   1.000  H
  C1       1.0000 0.13900  0.39610  0.09640  Biso   1.000  C
  C2       1.0000 0.86100  0.39610  0.40360  Biso   1.000  C
  C3       1.0000 0.63900  0.89610  0.09640  Biso   1.000  C
  C4       1.0000 0.36100  0.89610  0.40360  Biso   1.000  C
  C5       1.0000 0.86100  0.60390  0.90360  Biso   1.000  C
  C6       1.0000 0.13900  0.60390  0.59640  Biso   1.000  C
  C7       1.0000 0.36100  0.10390  0.90360  Biso   1.000  C
  C8       1.0000 0.63900  0.10390  0.59640  Biso   1.000  C
  H17      1.0000 0.07690  0.40250  0.02370  Biso   1.000  H
  H18      1.0000 0.92310  0.40250  0.47630  Biso   1.000  H
  H19      1.0000 0.57690  0.90250  0.02370  Biso   1.000  H
  H20      1.0000 0.42310  0.90250  0.47630  Biso   1.000  H
  H21      1.0000 0.92310  0.59750  0.97630  Biso   1.000  H
  H22      1.0000 0.07690  0.59750  0.52370  Biso   1.000  H
  H23      1.0000 0.42310  0.09750  0.97630  Biso   1.000  H
  H24      1.0000 0.57690  0.09750  0.52370  Biso   1.000  H
  C9       1.0000 0.25670  0.41830  0.27590  Biso   1.000  C
  C10      1.0000 0.74330  0.41830  0.22410  Biso   1.000  C
  C11      1.0000 0.75670  0.91830  0.27590  Biso   1.000  C
  C12      1.0000 0.24330  0.91830  0.22410  Biso   1.000  C
  C13      1.0000 0.74330  0.58170  0.72410  Biso   1.000  C
  C14      1.0000 0.25670  0.58170  0.77590  Biso   1.000  C
  C15      1.0000 0.24330  0.08170  0.72410  Biso   1.000  C
  C16      1.0000 0.75670  0.08170  0.77590  Biso   1.000  C
  H25      1.0000 0.29210  0.44180  0.35100  Biso   1.000  H
  H26      1.0000 0.70790  0.44180  0.14900  Biso   1.000  H
  H27      1.0000 0.79210  0.94180  0.35100  Biso   1.000  H
  H28      1.0000 0.20790  0.94180  0.14900  Biso   1.000  H
  H29      1.0000 0.70790  0.55820  0.64900  Biso   1.000  H
  H30      1.0000 0.29210  0.55820  0.85100  Biso   1.000  H
  H31      1.0000 0.20790  0.05820  0.64900  Biso   1.000  H
  H32      1.0000 0.79210  0.05820  0.85100  Biso   1.000  H
  C17      1.0000 0.29280  0.34760  0.23520  Biso   1.000  C
  C18      1.0000 0.70720  0.34760  0.26480  Biso   1.000  C
  C19      1.0000 0.79280  0.84760  0.23520  Biso   1.000  C
  C20      1.0000 0.20720  0.84760  0.26480  Biso   1.000  C
  C21      1.0000 0.70720  0.65240  0.76480  Biso   1.000  C
  C22      1.0000 0.29280  0.65240  0.73520  Biso   1.000  C
  C23      1.0000 0.20720  0.15240  0.76480  Biso   1.000  C
  C24      1.0000 0.79280  0.15240  0.73520  Biso   1.000  C
  H33      1.0000 0.35780  0.31410  0.27740  Biso   1.000  H
  H34      1.0000 0.64220  0.31410  0.22260  Biso   1.000  H
  H35      1.0000 0.85780  0.81410  0.27740  Biso   1.000  H
  H36      1.0000 0.14220  0.81410  0.22260  Biso   1.000  H
  H37      1.0000 0.64220  0.68590  0.72260  Biso   1.000  H
  H38      1.0000 0.35780  0.68590  0.77740  Biso   1.000  H
  H39      1.0000 0.14220  0.18590  0.72260  Biso   1.000  H
  H40      1.0000 0.85780  0.18590  0.77740  Biso   1.000  H
  C25      1.0000 0.95100  0.22310  0.09320  Biso   1.000  C
  C26      1.0000 0.04900  0.22310  0.40680  Biso   1.000  C
  C27      1.0000 0.45100  0.72310  0.09320  Biso   1.000  C
  C28      1.0000 0.54900  0.72310  0.40680  Biso   1.000  C
  C29      1.0000 0.04900  0.77690  0.90680  Biso   1.000  C
  C30      1.0000 0.95100  0.77690  0.59320  Biso   1.000  C
  C31      1.0000 0.54900  0.27690  0.90680  Biso   1.000  C
  C32      1.0000 0.45100  0.27690  0.59320  Biso   1.000  C
  H41      1.0000 0.93360  0.27510  0.10110  Biso   1.000  H
  H42      1.0000 0.06640  0.27510  0.39890  Biso   1.000  H
  H43      1.0000 0.43360  0.77510  0.10110  Biso   1.000  H
  H44      1.0000 0.56640  0.77510  0.39890  Biso   1.000  H
  H45      1.0000 0.06640  0.72490  0.89890  Biso   1.000  H
  H46      1.0000 0.93360  0.72490  0.60110  Biso   1.000  H
  H47      1.0000 0.56640  0.22490  0.89890  Biso   1.000  H
  H48      1.0000 0.43360  0.22490  0.60110  Biso   1.000  H
  C33      1.0000 0.91830  0.10380  0.09930  Biso   1.000  C
  C34      1.0000 0.08170  0.10380  0.40070  Biso   1.000  C
  C35      1.0000 0.41830  0.60380  0.09930  Biso   1.000  C
  C36      1.0000 0.58170  0.60380  0.40070  Biso   1.000  C
  C37      1.0000 0.08170  0.89620  0.90070  Biso   1.000  C
  C38      1.0000 0.91830  0.89620  0.59930  Biso   1.000  C
  C39      1.0000 0.58170  0.39620  0.90070  Biso   1.000  C
  C40      1.0000 0.41830  0.39620  0.59930  Biso   1.000  C
  H49      1.0000 0.87830  0.05570  0.11120  Biso   1.000  H
  H50      1.0000 0.12170  0.05570  0.38880  Biso   1.000  H
  H51      1.0000 0.37830  0.55570  0.11120  Biso   1.000  H
  H52      1.0000 0.62170  0.55570  0.38880  Biso   1.000  H
  H53      1.0000 0.12170  0.94430  0.88880  Biso   1.000  H
  H54      1.0000 0.87830  0.94430  0.61120  Biso   1.000  H
  H55      1.0000 0.62170  0.44430  0.88880  Biso   1.000  H
  H56      1.0000 0.37830  0.44430  0.61120  Biso   1.000  H
  C41      1.0000 0.04770  0.11930  0.05170  Biso   1.000  C
  C42      1.0000 0.95230  0.11930  0.44830  Biso   1.000  C
  C43      1.0000 0.54770  0.61930  0.05170  Biso   1.000  C
  C44      1.0000 0.45230  0.61930  0.44830  Biso   1.000  C
  C45      1.0000 0.95230  0.88070  0.94830  Biso   1.000  C
  C46      1.0000 0.04770  0.88070  0.55170  Biso   1.000  C
  C47      1.0000 0.45230  0.38070  0.94830  Biso   1.000  C
  C48      1.0000 0.54770  0.38070  0.55170  Biso   1.000  C
  H57      1.0000 0.11280  0.08290  0.02480  Biso   1.000  H
  H58      1.0000 0.88720  0.08290  0.47520  Biso   1.000  H
  H59      1.0000 0.61280  0.58290  0.02480  Biso   1.000  H
  H60      1.0000 0.38720  0.58290  0.47520  Biso   1.000  H
  H61      1.0000 0.88720  0.91710  0.97520  Biso   1.000  H
  H62      1.0000 0.11280  0.91710  0.52480  Biso   1.000  H
  H63      1.0000 0.38720  0.41710  0.97520  Biso   1.000  H
  H64      1.0000 0.61280  0.41710  0.52480  Biso   1.000  H
  O1       1.0000 0.11980  0.31750  0.80760  Biso   1.000  O
  O2       1.0000 0.88020  0.31750  0.69240  Biso   1.000  O
  O3       1.0000 0.61980  0.81750  0.80760  Biso   1.000  O
  O4       1.0000 0.38020  0.81750  0.69240  Biso   1.000  O
  O5       1.0000 0.88020  0.68250  0.19240  Biso   1.000  O
  O6       1.0000 0.11980  0.68250  0.30760  Biso   1.000  O
  O7       1.0000 0.38020  0.18250  0.19240  Biso   1.000  O
  O8       1.0000 0.61980  0.18250  0.30760  Biso   1.000  O
  O9       1.0000 0.05390  0.40930  0.65330  Biso   1.000  O
  O10      1.0000 0.94610  0.40930  0.84670  Biso   1.000  O
  O11      1.0000 0.55390  0.90930  0.65330  Biso   1.000  O
  O12      1.0000 0.44610  0.90930  0.84670  Biso   1.000  O
  O13      1.0000 0.94610  0.59070  0.34670  Biso   1.000  O
  O14      1.0000 0.05390  0.59070  0.15330  Biso   1.000  O
  O15      1.0000 0.44610  0.09070  0.34670  Biso   1.000  O
  O16      1.0000 0.55390  0.09070  0.15330  Biso   1.000  O
  S1       1.0000 0.00000  0.36018  0.75000  Biso   1.000  S
  S2       1.0000 0.50000  0.86018  0.75000  Biso   1.000  S
  S3       1.0000 0.00000  0.63982  0.25000  Biso   1.000  S
  S4       1.0000 0.50000  0.13982  0.25000  Biso   1.000  S
