data_image0
_cell_length_a       9.218
_cell_length_b       17.631
_cell_length_c       10.5455
_cell_angle_alpha    90
_cell_angle_beta     93.447
_cell_angle_gamma    90

_symmetry_space_group_name_H-M    "P 1"
_symmetry_int_tables_number       1

loop_
  _symmetry_equiv_pos_as_xyz
  'x, y, z'

loop_
  _atom_site_label
  _atom_site_occupancy
  _atom_site_fract_x
  _atom_site_fract_y
  _atom_site_fract_z
  _atom_site_thermal_displace_type
  _atom_site_B_iso_or_equiv
  _atom_site_type_symbol
  Cu1      1.0000 0.25000  0.25000  0.00000  Biso   1.000  Cu
  Cu2      1.0000 0.75000  0.25000  0.50000  Biso   1.000  Cu
  Cu3      1.0000 0.75000  0.75000  0.00000  Biso   1.000  Cu
  Cu4      1.0000 0.25000  0.75000  0.50000  Biso   1.000  Cu
  N1       1.0000 0.06850  0.30478  0.04860  Biso   1.000  N
  N2       1.0000 0.93150  0.30478  0.45140  Biso   1.000  N
  N3       1.0000 0.56850  0.80478  0.04860  Biso   1.000  N
  N4       1.0000 0.43150  0.80478  0.45140  Biso   1.000  N
  N5       1.0000 0.93150  0.69522  0.95140  Biso   1.000  N
  N6       1.0000 0.06850  0.69522  0.54860  Biso   1.000  N
  N7       1.0000 0.43150  0.19522  0.95140  Biso   1.000  N
  N8       1.0000 0.56850  0.19522  0.54860  Biso   1.000  N
  N9       1.0000 0.85930  0.33000  0.12530  Biso   1.000  N
  N10      1.0000 0.14070  0.33000  0.37470  Biso   1.000  N
  N11      1.0000 0.35930  0.83000  0.12530  Biso   1.000  N
  N12      1.0000 0.64070  0.83000  0.37470  Biso   1.000  N
  N13      1.0000 0.14070  0.67000  0.87470  Biso   1.000  N
  N14      1.0000 0.85930  0.67000  0.62530  Biso   1.000  N
  N15      1.0000 0.64070  0.17000  0.87470  Biso   1.000  N
  N16      1.0000 0.35930  0.17000  0.62530  Biso   1.000  N
  H1       1.0000 0.77620  0.32290  0.15640  Biso   1.000  H
  H2       1.0000 0.22380  0.32290  0.34360  Biso   1.000  H
  H3       1.0000 0.27620  0.82290  0.15640  Biso   1.000  H
  H4       1.0000 0.72380  0.82290  0.34360  Biso   1.000  H
  H5       1.0000 0.22380  0.67710  0.84360  Biso   1.000  H
  H6       1.0000 0.77620  0.67710  0.65640  Biso   1.000  H
  H7       1.0000 0.72380  0.17710  0.84360  Biso   1.000  H
  H8       1.0000 0.27620  0.17710  0.65640  Biso   1.000  H
  N17      1.0000 0.21640  0.16540  0.12210  Biso   1.000  N
  N18      1.0000 0.78360  0.16540  0.37790  Biso   1.000  N
  N19      1.0000 0.71640  0.66540  0.12210  Biso   1.000  N
  N20      1.0000 0.28360  0.66540  0.37790  Biso   1.000  N
  N21      1.0000 0.78360  0.83460  0.87790  Biso   1.000  N
  N22      1.0000 0.21640  0.83460  0.62210  Biso   1.000  N
  N23      1.0000 0.28360  0.33460  0.87790  Biso   1.000  N
  N24      1.0000 0.71640  0.33460  0.62210  Biso   1.000  N
  N25      1.0000 0.16070  0.05247  0.18750  Biso   1.000  N
  N26      1.0000 0.83930  0.05247  0.31250  Biso   1.000  N
  N27      1.0000 0.66070  0.55247  0.18750  Biso   1.000  N
  N28      1.0000 0.33930  0.55247  0.31250  Biso   1.000  N
  N29      1.0000 0.83930  0.94753  0.81250  Biso   1.000  N
  N30      1.0000 0.16070  0.94753  0.68750  Biso   1.000  N
  N31      1.0000 0.33930  0.44753  0.81250  Biso   1.000  N
  N32      1.0000 0.66070  0.44753  0.68750  Biso   1.000  N
  H9       1.0000 0.12080  0.00840  0.18980  Biso   1.000  H
  H10      1.0000 0.87920  0.00840  0.31020  Biso   1.000  H
  H11      1.0000 0.62080  0.50840  0.18980  Biso   1.000  H
  H12      1.0000 0.37920  0.50840  0.31020  Biso   1.000  H
  H13      1.0000 0.87920  0.99160  0.81020  Biso   1.000  H
  H14      1.0000 0.12080  0.99160  0.68980  Biso   1.000  H
  H15      1.0000 0.37920  0.49160  0.81020  Biso   1.000  H
  H16      1.0000 0.62080  0.49160  0.68980  Biso   1.000  H
  C1       1.0000 0.95180  0.27690  0.09440  Biso   1.000  C
  C2       1.0000 0.04820  0.27690  0.40560  Biso   1.000  C
  C3       1.0000 0.45180  0.77690  0.09440  Biso   1.000  C
  C4       1.0000 0.54820  0.77690  0.40560  Biso   1.000  C
  C5       1.0000 0.04820  0.72310  0.90560  Biso   1.000  C
  C6       1.0000 0.95180  0.72310  0.59440  Biso   1.000  C
  C7       1.0000 0.54820  0.22310  0.90560  Biso   1.000  C
  C8       1.0000 0.45180  0.22310  0.59440  Biso   1.000  C
  H17      1.0000 0.93540  0.22530  0.10420  Biso   1.000  H
  H18      1.0000 0.06460  0.22530  0.39580  Biso   1.000  H
  H19      1.0000 0.43540  0.72530  0.10420  Biso   1.000  H
  H20      1.0000 0.56460  0.72530  0.39580  Biso   1.000  H
  H21      1.0000 0.06460  0.77470  0.89580  Biso   1.000  H
  H22      1.0000 0.93540  0.77470  0.60420  Biso   1.000  H
  H23      1.0000 0.56460  0.27470  0.89580  Biso   1.000  H
  H24      1.0000 0.43540  0.27470  0.60420  Biso   1.000  H
  C9       1.0000 0.91920  0.39680  0.09920  Biso   1.000  C
  C10      1.0000 0.08080  0.39680  0.40080  Biso   1.000  C
  C11      1.0000 0.41920  0.89680  0.09920  Biso   1.000  C
  C12      1.0000 0.58080  0.89680  0.40080  Biso   1.000  C
  C13      1.0000 0.08080  0.60320  0.90080  Biso   1.000  C
  C14      1.0000 0.91920  0.60320  0.59920  Biso   1.000  C
  C15      1.0000 0.58080  0.10320  0.90080  Biso   1.000  C
  C16      1.0000 0.41920  0.10320  0.59920  Biso   1.000  C
  H25      1.0000 0.87970  0.44460  0.11140  Biso   1.000  H
  H26      1.0000 0.12030  0.44460  0.38860  Biso   1.000  H
  H27      1.0000 0.37970  0.94460  0.11140  Biso   1.000  H
  H28      1.0000 0.62030  0.94460  0.38860  Biso   1.000  H
  H29      1.0000 0.12030  0.55540  0.88860  Biso   1.000  H
  H30      1.0000 0.87970  0.55540  0.61140  Biso   1.000  H
  H31      1.0000 0.62030  0.05540  0.88860  Biso   1.000  H
  H32      1.0000 0.37970  0.05540  0.61140  Biso   1.000  H
  C17      1.0000 0.04810  0.38110  0.05180  Biso   1.000  C
  C18      1.0000 0.95190  0.38110  0.44820  Biso   1.000  C
  C19      1.0000 0.54810  0.88110  0.05180  Biso   1.000  C
  C20      1.0000 0.45190  0.88110  0.44820  Biso   1.000  C
  C21      1.0000 0.95190  0.61890  0.94820  Biso   1.000  C
  C22      1.0000 0.04810  0.61890  0.55180  Biso   1.000  C
  C23      1.0000 0.45190  0.11890  0.94820  Biso   1.000  C
  C24      1.0000 0.54810  0.11890  0.55180  Biso   1.000  C
  H33      1.0000 0.11350  0.41710  0.02520  Biso   1.000  H
  H34      1.0000 0.88650  0.41710  0.47480  Biso   1.000  H
  H35      1.0000 0.61350  0.91710  0.02520  Biso   1.000  H
  H36      1.0000 0.38650  0.91710  0.47480  Biso   1.000  H
  H37      1.0000 0.88650  0.58290  0.97480  Biso   1.000  H
  H38      1.0000 0.11350  0.58290  0.52520  Biso   1.000  H
  H39      1.0000 0.38650  0.08290  0.97480  Biso   1.000  H
  H40      1.0000 0.61350  0.08290  0.52520  Biso   1.000  H
  C25      1.0000 0.13900  0.10379  0.09700  Biso   1.000  C
  C26      1.0000 0.86100  0.10379  0.40300  Biso   1.000  C
  C27      1.0000 0.63900  0.60379  0.09700  Biso   1.000  C
  C28      1.0000 0.36100  0.60379  0.40300  Biso   1.000  C
  C29      1.0000 0.86100  0.89621  0.90300  Biso   1.000  C
  C30      1.0000 0.13900  0.89621  0.59700  Biso   1.000  C
  C31      1.0000 0.36100  0.39621  0.90300  Biso   1.000  C
  C32      1.0000 0.63900  0.39621  0.59700  Biso   1.000  C
  H41      1.0000 0.07720  0.09720  0.02490  Biso   1.000  H
  H42      1.0000 0.92280  0.09720  0.47510  Biso   1.000  H
  H43      1.0000 0.57720  0.59720  0.02490  Biso   1.000  H
  H44      1.0000 0.42280  0.59720  0.47510  Biso   1.000  H
  H45      1.0000 0.92280  0.90280  0.97510  Biso   1.000  H
  H46      1.0000 0.07720  0.90280  0.52490  Biso   1.000  H
  H47      1.0000 0.42280  0.40280  0.97510  Biso   1.000  H
  H48      1.0000 0.57720  0.40280  0.52490  Biso   1.000  H
  C33      1.0000 0.25660  0.08180  0.27560  Biso   1.000  C
  C34      1.0000 0.74340  0.08180  0.22440  Biso   1.000  C
  C35      1.0000 0.75660  0.58180  0.27560  Biso   1.000  C
  C36      1.0000 0.24340  0.58180  0.22440  Biso   1.000  C
  C37      1.0000 0.74340  0.91820  0.72440  Biso   1.000  C
  C38      1.0000 0.25660  0.91820  0.77560  Biso   1.000  C
  C39      1.0000 0.24340  0.41820  0.72440  Biso   1.000  C
  C40      1.0000 0.75660  0.41820  0.77560  Biso   1.000  C
  H49      1.0000 0.29190  0.05830  0.35020  Biso   1.000  H
  H50      1.0000 0.70810  0.05830  0.14980  Biso   1.000  H
  H51      1.0000 0.79190  0.55830  0.35020  Biso   1.000  H
  H52      1.0000 0.20810  0.55830  0.14980  Biso   1.000  H
  H53      1.0000 0.70810  0.94170  0.64980  Biso   1.000  H
  H54      1.0000 0.29190  0.94170  0.85020  Biso   1.000  H
  H55      1.0000 0.20810  0.44170  0.64980  Biso   1.000  H
  H56      1.0000 0.79190  0.44170  0.85020  Biso   1.000  H
  C41      1.0000 0.29200  0.15200  0.23500  Biso   1.000  C
  C42      1.0000 0.70800  0.15200  0.26500  Biso   1.000  C
  C43      1.0000 0.79200  0.65200  0.23500  Biso   1.000  C
  C44      1.0000 0.20800  0.65200  0.26500  Biso   1.000  C
  C45      1.0000 0.70800  0.84800  0.76500  Biso   1.000  C
  C46      1.0000 0.29200  0.84800  0.73500  Biso   1.000  C
  C47      1.0000 0.20800  0.34800  0.76500  Biso   1.000  C
  C48      1.0000 0.79200  0.34800  0.73500  Biso   1.000  C
  H57      1.0000 0.35670  0.18540  0.27700  Biso   1.000  H
  H58      1.0000 0.64330  0.18540  0.22300  Biso   1.000  H
  H59      1.0000 0.85670  0.68540  0.27700  Biso   1.000  H
  H60      1.0000 0.14330  0.68540  0.22300  Biso   1.000  H
  H61      1.0000 0.64330  0.81460  0.72300  Biso   1.000  H
  H62      1.0000 0.35670  0.81460  0.77700  Biso   1.000  H
  H63      1.0000 0.14330  0.31460  0.72300  Biso   1.000  H
  H64      1.0000 0.85670  0.31460  0.77700  Biso   1.000  H
  S1       1.0000 0.50000  0.36040  0.25000  Biso   1.000  S
  S2       1.0000 0.00000  0.86040  0.25000  Biso   1.000  S
  S3       1.0000 0.50000  0.63960  0.75000  Biso   1.000  S
  S4       1.0000 0.00000  0.13960  0.75000  Biso   1.000  S
  O1       1.0000 0.44500  0.40950  0.34740  Biso   1.000  O
  O2       1.0000 0.55500  0.40950  0.15260  Biso   1.000  O
  O3       1.0000 0.94500  0.90950  0.34740  Biso   1.000  O
  O4       1.0000 0.05500  0.90950  0.15260  Biso   1.000  O
  O5       1.0000 0.55500  0.59050  0.65260  Biso   1.000  O
  O6       1.0000 0.44500  0.59050  0.84740  Biso   1.000  O
  O7       1.0000 0.05500  0.09050  0.65260  Biso   1.000  O
  O8       1.0000 0.94500  0.09050  0.84740  Biso   1.000  O
  O9       1.0000 0.38200  0.31670  0.19270  Biso   1.000  O
  O10      1.0000 0.61800  0.31670  0.30730  Biso   1.000  O
  O11      1.0000 0.88200  0.81670  0.19270  Biso   1.000  O
  O12      1.0000 0.11800  0.81670  0.30730  Biso   1.000  O
  O13      1.0000 0.61800  0.68330  0.80730  Biso   1.000  O
  O14      1.0000 0.38200  0.68330  0.69270  Biso   1.000  O
  O15      1.0000 0.11800  0.18330  0.80730  Biso   1.000  O
  O16      1.0000 0.88200  0.18330  0.69270  Biso   1.000  O
