data_image0
_cell_length_a       8.01
_cell_length_b       10.117
_cell_length_c       5.1621
_cell_angle_alpha    94.4
_cell_angle_beta     97.49
_cell_angle_gamma    112.64

_symmetry_space_group_name_H-M    "P 1"
_symmetry_int_tables_number       1

loop_
  _symmetry_equiv_pos_as_xyz
  'x, y, z'

loop_
  _atom_site_label
  _atom_site_occupancy
  _atom_site_fract_x
  _atom_site_fract_y
  _atom_site_fract_z
  _atom_site_thermal_displace_type
  _atom_site_B_iso_or_equiv
  _atom_site_type_symbol
  Cu1      1.0000 0.00000  0.00000  0.00000  Biso   1.000  Cu
  Cl1      1.0000 0.60500  0.23127  0.60210  Biso   1.000  Cl
  Cl2      1.0000 0.39500  0.76873  0.39790  Biso   1.000  Cl
  O1       1.0000 0.75550  0.91430  0.22610  Biso   1.000  O
  O2       1.0000 0.24450  0.08570  0.77390  Biso   1.000  O
  O3       1.0000 0.84220  0.10110  0.87780  Biso   1.000  O
  O4       1.0000 0.15780  0.89890  0.12220  Biso   1.000  O
  O5       1.0000 0.14540  0.16070  0.28410  Biso   1.000  O
  O6       1.0000 0.85460  0.83930  0.71590  Biso   1.000  O
  N1       1.0000 0.94370  0.60730  0.58280  Biso   1.000  N
  N2       1.0000 0.05630  0.39270  0.41720  Biso   1.000  N
  C1       1.0000 0.68070  0.05860  0.92880  Biso   1.000  C
  C2       1.0000 0.31930  0.94140  0.07120  Biso   1.000  C
  C3       1.0000 0.62950  0.94770  0.12370  Biso   1.000  C
  C4       1.0000 0.37050  0.05230  0.87630  Biso   1.000  C
  C5       1.0000 0.55000  0.10650  0.82260  Biso   1.000  C
  C6       1.0000 0.45000  0.89350  0.17740  Biso   1.000  C
  C7       1.0000 0.86910  0.52590  0.34760  Biso   1.000  C
  C8       1.0000 0.13090  0.47410  0.65240  Biso   1.000  C
  C9       1.0000 0.07290  0.57990  0.73100  Biso   1.000  C
  C10      1.0000 0.92710  0.42010  0.26900  Biso   1.000  C
  C11      1.0000 0.71920  0.55100  0.18000  Biso   1.000  C
  C12      1.0000 0.28080  0.44900  0.82000  Biso   1.000  C
  H1       1.0000 0.11600  0.24100  0.31900  Biso   1.000  H
  H2       1.0000 0.88400  0.75900  0.68100  Biso   1.000  H
  H3       1.0000 0.18400  0.14700  0.42300  Biso   1.000  H
  H4       1.0000 0.81600  0.85300  0.57700  Biso   1.000  H
  H5       1.0000 0.11900  0.63300  0.90300  Biso   1.000  H
  H6       1.0000 0.88100  0.36700  0.09700  Biso   1.000  H
  H7       1.0000 0.76100  0.63400  0.14000  Biso   1.000  H
  H8       1.0000 0.23900  0.36600  0.86000  Biso   1.000  H
  H9       1.0000 0.62700  0.54500  0.28000  Biso   1.000  H
  H10      1.0000 0.37300  0.45500  0.72000  Biso   1.000  H
  H11      1.0000 0.67800  0.49400  0.02000  Biso   1.000  H
  H12      1.0000 0.32200  0.50600  0.98000  Biso   1.000  H
