data_image0
_cell_length_a       17.79
_cell_length_b       7.639
_cell_length_c       10.307
_cell_angle_alpha    90
_cell_angle_beta     108.08
_cell_angle_gamma    90

_symmetry_space_group_name_H-M    "P 1"
_symmetry_int_tables_number       1

loop_
  _symmetry_equiv_pos_as_xyz
  'x, y, z'

loop_
  _atom_site_label
  _atom_site_occupancy
  _atom_site_fract_x
  _atom_site_fract_y
  _atom_site_fract_z
  _atom_site_thermal_displace_type
  _atom_site_B_iso_or_equiv
  _atom_site_type_symbol
  Cu1      1.0000 0.50000  0.04600  0.25000  Biso   1.000  Cu
  Cu2      1.0000 0.00000  0.54600  0.25000  Biso   1.000  Cu
  Cu3      1.0000 0.50000  0.95400  0.75000  Biso   1.000  Cu
  Cu4      1.0000 0.00000  0.45400  0.75000  Biso   1.000  Cu
  Cl1      1.0000 0.37500  0.54600  0.95400  Biso   1.000  Cl
  Cl2      1.0000 0.62500  0.54600  0.54600  Biso   1.000  Cl
  Cl3      1.0000 0.87500  0.04600  0.95400  Biso   1.000  Cl
  Cl4      1.0000 0.12500  0.04600  0.54600  Biso   1.000  Cl
  Cl5      1.0000 0.62500  0.45400  0.04600  Biso   1.000  Cl
  Cl6      1.0000 0.37500  0.45400  0.45400  Biso   1.000  Cl
  Cl7      1.0000 0.12500  0.95400  0.04600  Biso   1.000  Cl
  Cl8      1.0000 0.87500  0.95400  0.45400  Biso   1.000  Cl
  O1       1.0000 0.45200  0.23900  0.12900  Biso   1.000  O
  O2       1.0000 0.54800  0.23900  0.37100  Biso   1.000  O
  O3       1.0000 0.95200  0.73900  0.12900  Biso   1.000  O
  O4       1.0000 0.04800  0.73900  0.37100  Biso   1.000  O
  O5       1.0000 0.54800  0.76100  0.87100  Biso   1.000  O
  O6       1.0000 0.45200  0.76100  0.62900  Biso   1.000  O
  O7       1.0000 0.04800  0.26100  0.87100  Biso   1.000  O
  O8       1.0000 0.95200  0.26100  0.62900  Biso   1.000  O
  O9       1.0000 0.54900  0.85400  0.37200  Biso   1.000  O
  O10      1.0000 0.45100  0.85400  0.12800  Biso   1.000  O
  O11      1.0000 0.04900  0.35400  0.37200  Biso   1.000  O
  O12      1.0000 0.95100  0.35400  0.12800  Biso   1.000  O
  O13      1.0000 0.45100  0.14600  0.62800  Biso   1.000  O
  O14      1.0000 0.54900  0.14600  0.87200  Biso   1.000  O
  O15      1.0000 0.95100  0.64600  0.62800  Biso   1.000  O
  O16      1.0000 0.04900  0.64600  0.87200  Biso   1.000  O
  O17      1.0000 0.60700  0.03500  0.15800  Biso   1.000  O
  O18      1.0000 0.39300  0.03500  0.34200  Biso   1.000  O
  O19      1.0000 0.10700  0.53500  0.15800  Biso   1.000  O
  O20      1.0000 0.89300  0.53500  0.34200  Biso   1.000  O
  O21      1.0000 0.39300  0.96500  0.84200  Biso   1.000  O
  O22      1.0000 0.60700  0.96500  0.65800  Biso   1.000  O
  O23      1.0000 0.89300  0.46500  0.84200  Biso   1.000  O
  O24      1.0000 0.10700  0.46500  0.65800  Biso   1.000  O
  C1       1.0000 0.47100  0.39400  0.18100  Biso   1.000  C
  C2       1.0000 0.52900  0.39400  0.31900  Biso   1.000  C
  C3       1.0000 0.97100  0.89400  0.18100  Biso   1.000  C
  C4       1.0000 0.02900  0.89400  0.31900  Biso   1.000  C
  C5       1.0000 0.52900  0.60600  0.81900  Biso   1.000  C
  C6       1.0000 0.47100  0.60600  0.68100  Biso   1.000  C
  C7       1.0000 0.02900  0.10600  0.81900  Biso   1.000  C
  C8       1.0000 0.97100  0.10600  0.68100  Biso   1.000  C
  C9       1.0000 0.44300  0.55400  0.11500  Biso   1.000  C
  C10      1.0000 0.55700  0.55400  0.38500  Biso   1.000  C
  C11      1.0000 0.94300  0.05400  0.11500  Biso   1.000  C
  C12      1.0000 0.05700  0.05400  0.38500  Biso   1.000  C
  C13      1.0000 0.55700  0.44600  0.88500  Biso   1.000  C
  C14      1.0000 0.44300  0.44600  0.61500  Biso   1.000  C
  C15      1.0000 0.05700  0.94600  0.88500  Biso   1.000  C
  C16      1.0000 0.94300  0.94600  0.61500  Biso   1.000  C
  C17      1.0000 0.53000  0.69900  0.32200  Biso   1.000  C
  C18      1.0000 0.47000  0.69900  0.17800  Biso   1.000  C
  C19      1.0000 0.03000  0.19900  0.32200  Biso   1.000  C
  C20      1.0000 0.97000  0.19900  0.17800  Biso   1.000  C
  C21      1.0000 0.47000  0.30100  0.67800  Biso   1.000  C
  C22      1.0000 0.53000  0.30100  0.82200  Biso   1.000  C
  C23      1.0000 0.97000  0.80100  0.67800  Biso   1.000  C
  C24      1.0000 0.03000  0.80100  0.82200  Biso   1.000  C
