data_image0
_cell_length_a       8.0712
_cell_length_b       11.266
_cell_length_c       4.9905
_cell_angle_alpha    97.8
_cell_angle_beta     99.58
_cell_angle_gamma    83.017

_symmetry_space_group_name_H-M    "P 1"
_symmetry_int_tables_number       1

loop_
  _symmetry_equiv_pos_as_xyz
  'x, y, z'

loop_
  _atom_site_label
  _atom_site_occupancy
  _atom_site_fract_x
  _atom_site_fract_y
  _atom_site_fract_z
  _atom_site_thermal_displace_type
  _atom_site_B_iso_or_equiv
  _atom_site_type_symbol
  Cu1      1.0000 0.00000  0.00000  0.00000  Biso   1.000  Cu
  Cl1      1.0000 0.41367  0.19319  0.57740  Biso   1.000  Cl
  Cl2      1.0000 0.58633  0.80681  0.42260  Biso   1.000  Cl
  O1       1.0000 0.75040  0.08510  0.81770  Biso   1.000  O
  O2       1.0000 0.24960  0.91490  0.18230  Biso   1.000  O
  O3       1.0000 0.82820  0.92140  0.16820  Biso   1.000  O
  O4       1.0000 0.17180  0.07860  0.83180  Biso   1.000  O
  O5       1.0000 0.00630  0.12460  0.31620  Biso   1.000  O
  O6       1.0000 0.99370  0.87540  0.68380  Biso   1.000  O
  N1       1.0000 0.00480  0.37580  0.40490  Biso   1.000  N
  N2       1.0000 0.99520  0.62420  0.59510  Biso   1.000  N
  C1       1.0000 0.37020  0.95170  0.10430  Biso   1.000  C
  C2       1.0000 0.62980  0.04830  0.89570  Biso   1.000  C
  C3       1.0000 0.32810  0.04580  0.90190  Biso   1.000  C
  C4       1.0000 0.67190  0.95420  0.09810  Biso   1.000  C
  C5       1.0000 0.45870  0.08820  0.80940  Biso   1.000  C
  C6       1.0000 0.54130  0.91180  0.19060  Biso   1.000  C
  C7       1.0000 0.71260  0.40350  0.89130  Biso   1.000  C
  C8       1.0000 0.28740  0.59650  0.10870  Biso   1.000  C
  C9       1.0000 0.80630  0.35440  0.69710  Biso   1.000  C
  C10      1.0000 0.19370  0.64560  0.30290  Biso   1.000  C
  C11      1.0000 0.90590  0.42630  0.58950  Biso   1.000  C
  C12      1.0000 0.09410  0.57370  0.41050  Biso   1.000  C
  C13      1.0000 0.09850  0.44740  0.31480  Biso   1.000  C
  C14      1.0000 0.90150  0.55260  0.68520  Biso   1.000  C
  C15      1.0000 0.20140  0.39900  0.11300  Biso   1.000  C
  C16      1.0000 0.79860  0.60100  0.88700  Biso   1.000  C
  C17      1.0000 0.70820  0.52820  0.98610  Biso   1.000  C
  C18      1.0000 0.29180  0.47180  0.01390  Biso   1.000  C
  H1       1.0000 0.05500  0.11300  0.42900  Biso   1.000  H
  H2       1.0000 0.94500  0.88700  0.57100  Biso   1.000  H
  H3       1.0000 0.00600  0.20700  0.29700  Biso   1.000  H
  H4       1.0000 0.99400  0.79300  0.70300  Biso   1.000  H
  H5       1.0000 0.65600  0.35600  0.96700  Biso   1.000  H
  H6       1.0000 0.34400  0.64400  0.03300  Biso   1.000  H
  H7       1.0000 0.81200  0.27700  0.63700  Biso   1.000  H
  H8       1.0000 0.18800  0.72300  0.36300  Biso   1.000  H
  H9       1.0000 0.19700  0.31400  0.04400  Biso   1.000  H
  H10      1.0000 0.80300  0.68600  0.95600  Biso   1.000  H
  H11      1.0000 0.64700  0.55900  0.11000  Biso   1.000  H
  H12      1.0000 0.35300  0.44100  0.89000  Biso   1.000  H
