data_image0
_cell_length_a       8.028
_cell_length_b       10.269
_cell_length_c       4.78
_cell_angle_alpha    93.85
_cell_angle_beta     101.01
_cell_angle_gamma    90.04

_symmetry_space_group_name_H-M    "P 1"
_symmetry_int_tables_number       1

loop_
  _symmetry_equiv_pos_as_xyz
  'x, y, z'

loop_
  _atom_site_label
  _atom_site_occupancy
  _atom_site_fract_x
  _atom_site_fract_y
  _atom_site_fract_z
  _atom_site_thermal_displace_type
  _atom_site_B_iso_or_equiv
  _atom_site_type_symbol
  Cu1      1.0000 0.00000  0.00000  0.00000  Biso   1.000  Cu
  Cl1      1.0000 0.55977  0.77175  0.42310  Biso   1.000  Cl
  Cl2      1.0000 0.44023  0.22825  0.57690  Biso   1.000  Cl
  O1       1.0000 0.23850  0.90730  0.20590  Biso   1.000  O
  O2       1.0000 0.76150  0.09270  0.79410  Biso   1.000  O
  O3       1.0000 0.18370  0.09720  0.84550  Biso   1.000  O
  O4       1.0000 0.81630  0.90280  0.15450  Biso   1.000  O
  O5       1.0000 0.00740  0.13510  0.31170  Biso   1.000  O
  O6       1.0000 0.99260  0.86490  0.68830  Biso   1.000  O
  N1       1.0000 0.00770  0.38000  0.11680  Biso   1.000  N
  N2       1.0000 0.99230  0.62000  0.88320  Biso   1.000  N
  C1       1.0000 0.36340  0.94690  0.11490  Biso   1.000  C
  C2       1.0000 0.63660  0.05310  0.88510  Biso   1.000  C
  C3       1.0000 0.33450  0.05600  0.90770  Biso   1.000  C
  C4       1.0000 0.66550  0.94400  0.09230  Biso   1.000  C
  C5       1.0000 0.52870  0.89680  0.19150  Biso   1.000  C
  C6       1.0000 0.47130  0.10320  0.80850  Biso   1.000  C
  C7       1.0000 0.87610  0.45780  0.12920  Biso   1.000  C
  C8       1.0000 0.12390  0.54220  0.87080  Biso   1.000  C
  C9       1.0000 0.12890  0.42190  0.98750  Biso   1.000  C
  C10      1.0000 0.87110  0.57810  0.01250  Biso   1.000  C
  C11      1.0000 0.73680  0.40920  0.26900  Biso   1.000  C
  C12      1.0000 0.26320  0.59080  0.73100  Biso   1.000  C
  H1       1.0000 0.06700  0.13100  0.45900  Biso   1.000  H
  H2       1.0000 0.93300  0.86900  0.54100  Biso   1.000  H
  H3       1.0000 0.01200  0.21800  0.24800  Biso   1.000  H
  H4       1.0000 0.98800  0.78200  0.75200  Biso   1.000  H
  H5       1.0000 0.22100  0.36600  0.99200  Biso   1.000  H
  H6       1.0000 0.77900  0.63400  0.00800  Biso   1.000  H
  H7       1.0000 0.78500  0.38900  0.45000  Biso   1.000  H
  H8       1.0000 0.21500  0.61100  0.55000  Biso   1.000  H
  H9       1.0000 0.66800  0.47600  0.31500  Biso   1.000  H
  H10      1.0000 0.33200  0.52400  0.68500  Biso   1.000  H
  H11      1.0000 0.65800  0.36100  0.13900  Biso   1.000  H
  H12      1.0000 0.34200  0.63900  0.86100  Biso   1.000  H
