data_image0
_cell_length_a       7.601
_cell_length_b       13.884
_cell_length_c       17.676
_cell_angle_alpha    90
_cell_angle_beta     90
_cell_angle_gamma    90

_symmetry_space_group_name_H-M    "P 1"
_symmetry_int_tables_number       1

loop_
  _symmetry_equiv_pos_as_xyz
  'x, y, z'

loop_
  _atom_site_label
  _atom_site_occupancy
  _atom_site_fract_x
  _atom_site_fract_y
  _atom_site_fract_z
  _atom_site_thermal_displace_type
  _atom_site_B_iso_or_equiv
  _atom_site_type_symbol
  Cu1      1.0000 0.00000  0.39860  0.25000  Biso   1.000  Cu
  Cu2      1.0000 0.00000  0.60140  0.75000  Biso   1.000  Cu
  Cu3      1.0000 0.50000  0.89860  0.25000  Biso   1.000  Cu
  Cu4      1.0000 0.50000  0.10140  0.75000  Biso   1.000  Cu
  Cl1      1.0000 0.50000  0.42700  0.42920  Biso   1.000  Cl
  Cl2      1.0000 0.50000  0.57300  0.92920  Biso   1.000  Cl
  Cl3      1.0000 0.50000  0.57300  0.57080  Biso   1.000  Cl
  Cl4      1.0000 0.50000  0.42700  0.07080  Biso   1.000  Cl
  Cl5      1.0000 0.00000  0.92700  0.42920  Biso   1.000  Cl
  Cl6      1.0000 0.00000  0.07300  0.92920  Biso   1.000  Cl
  Cl7      1.0000 0.00000  0.07300  0.57080  Biso   1.000  Cl
  Cl8      1.0000 0.00000  0.92700  0.07080  Biso   1.000  Cl
  O1       1.0000 0.00000  0.24600  0.25000  Biso   1.000  O
  O2       1.0000 0.00000  0.75400  0.75000  Biso   1.000  O
  O3       1.0000 0.50000  0.74600  0.25000  Biso   1.000  O
  O4       1.0000 0.50000  0.25400  0.75000  Biso   1.000  O
  O5       1.0000 0.18960  0.41480  0.32370  Biso   1.000  O
  O6       1.0000 0.81040  0.58520  0.82370  Biso   1.000  O
  O7       1.0000 0.18960  0.58520  0.67630  Biso   1.000  O
  O8       1.0000 0.81040  0.41480  0.17630  Biso   1.000  O
  O9       1.0000 0.68960  0.91480  0.32370  Biso   1.000  O
  O10      1.0000 0.31040  0.08520  0.82370  Biso   1.000  O
  O11      1.0000 0.68960  0.08520  0.67630  Biso   1.000  O
  O12      1.0000 0.31040  0.91480  0.17630  Biso   1.000  O
  O13      1.0000 0.81040  0.58520  0.67630  Biso   1.000  O
  O14      1.0000 0.18960  0.41480  0.17630  Biso   1.000  O
  O15      1.0000 0.81040  0.41480  0.32370  Biso   1.000  O
  O16      1.0000 0.18960  0.58520  0.82370  Biso   1.000  O
  O17      1.0000 0.31040  0.08520  0.67630  Biso   1.000  O
  O18      1.0000 0.68960  0.91480  0.17630  Biso   1.000  O
  O19      1.0000 0.31040  0.91480  0.32370  Biso   1.000  O
  O20      1.0000 0.68960  0.08520  0.82370  Biso   1.000  O
  N1       1.0000 0.32200  0.15610  0.25000  Biso   1.000  N
  N2       1.0000 0.67800  0.84390  0.75000  Biso   1.000  N
  N3       1.0000 0.32200  0.84390  0.75000  Biso   1.000  N
  N4       1.0000 0.67800  0.15610  0.25000  Biso   1.000  N
  N5       1.0000 0.82200  0.65610  0.25000  Biso   1.000  N
  N6       1.0000 0.17800  0.34390  0.75000  Biso   1.000  N
  N7       1.0000 0.82200  0.34390  0.75000  Biso   1.000  N
  N8       1.0000 0.17800  0.65610  0.25000  Biso   1.000  N
  C1       1.0000 0.50000  0.42100  0.33320  Biso   1.000  C
  C2       1.0000 0.50000  0.57900  0.83320  Biso   1.000  C
  C3       1.0000 0.50000  0.57900  0.66680  Biso   1.000  C
  C4       1.0000 0.50000  0.42100  0.16680  Biso   1.000  C
  C5       1.0000 0.00000  0.92100  0.33320  Biso   1.000  C
  C6       1.0000 0.00000  0.07900  0.83320  Biso   1.000  C
  C7       1.0000 0.00000  0.07900  0.66680  Biso   1.000  C
  C8       1.0000 0.00000  0.92100  0.16680  Biso   1.000  C
  C9       1.0000 0.34200  0.41780  0.29410  Biso   1.000  C
  C10      1.0000 0.65800  0.58220  0.79410  Biso   1.000  C
  C11      1.0000 0.34200  0.58220  0.70590  Biso   1.000  C
  C12      1.0000 0.65800  0.41780  0.20590  Biso   1.000  C
  C13      1.0000 0.84200  0.91780  0.29410  Biso   1.000  C
  C14      1.0000 0.15800  0.08220  0.79410  Biso   1.000  C
  C15      1.0000 0.84200  0.08220  0.70590  Biso   1.000  C
  C16      1.0000 0.15800  0.91780  0.20590  Biso   1.000  C
  C17      1.0000 0.65800  0.58220  0.70590  Biso   1.000  C
  C18      1.0000 0.34200  0.41780  0.20590  Biso   1.000  C
  C19      1.0000 0.65800  0.41780  0.29410  Biso   1.000  C
  C20      1.0000 0.34200  0.58220  0.79410  Biso   1.000  C
  C21      1.0000 0.15800  0.08220  0.70590  Biso   1.000  C
  C22      1.0000 0.84200  0.91780  0.20590  Biso   1.000  C
  C23      1.0000 0.15800  0.91780  0.29410  Biso   1.000  C
  C24      1.0000 0.84200  0.08220  0.79410  Biso   1.000  C
  C25      1.0000 0.40900  0.15510  0.18330  Biso   1.000  C
  C26      1.0000 0.59100  0.84490  0.68330  Biso   1.000  C
  C27      1.0000 0.40900  0.84490  0.81670  Biso   1.000  C
  C28      1.0000 0.59100  0.15510  0.31670  Biso   1.000  C
  C29      1.0000 0.90900  0.65510  0.18330  Biso   1.000  C
  C30      1.0000 0.09100  0.34490  0.68330  Biso   1.000  C
  C31      1.0000 0.90900  0.34490  0.81670  Biso   1.000  C
  C32      1.0000 0.09100  0.65510  0.31670  Biso   1.000  C
  C33      1.0000 0.59100  0.84490  0.81670  Biso   1.000  C
  C34      1.0000 0.40900  0.15510  0.31670  Biso   1.000  C
  C35      1.0000 0.59100  0.15510  0.18330  Biso   1.000  C
  C36      1.0000 0.40900  0.84490  0.68330  Biso   1.000  C
  C37      1.0000 0.09100  0.34490  0.81670  Biso   1.000  C
  C38      1.0000 0.90900  0.65510  0.31670  Biso   1.000  C
  C39      1.0000 0.09100  0.65510  0.18330  Biso   1.000  C
  C40      1.0000 0.90900  0.34490  0.68330  Biso   1.000  C
  C41      1.0000 0.30900  0.15250  0.10890  Biso   1.000  C
  C42      1.0000 0.69100  0.84750  0.60890  Biso   1.000  C
  C43      1.0000 0.30900  0.84750  0.89110  Biso   1.000  C
  C44      1.0000 0.69100  0.15250  0.39110  Biso   1.000  C
  C45      1.0000 0.80900  0.65250  0.10890  Biso   1.000  C
  C46      1.0000 0.19100  0.34750  0.60890  Biso   1.000  C
  C47      1.0000 0.80900  0.34750  0.89110  Biso   1.000  C
  C48      1.0000 0.19100  0.65250  0.39110  Biso   1.000  C
  C49      1.0000 0.69100  0.84750  0.89110  Biso   1.000  C
  C50      1.0000 0.30900  0.15250  0.39110  Biso   1.000  C
  C51      1.0000 0.69100  0.15250  0.10890  Biso   1.000  C
  C52      1.0000 0.30900  0.84750  0.60890  Biso   1.000  C
  C53      1.0000 0.19100  0.34750  0.89110  Biso   1.000  C
  C54      1.0000 0.80900  0.65250  0.39110  Biso   1.000  C
  C55      1.0000 0.19100  0.65250  0.10890  Biso   1.000  C
  C56      1.0000 0.80900  0.34750  0.60890  Biso   1.000  C
  C57      1.0000 0.42100  0.16500  0.03700  Biso   1.000  C
  C58      1.0000 0.57900  0.83500  0.53700  Biso   1.000  C
  C59      1.0000 0.42100  0.83500  0.96300  Biso   1.000  C
  C60      1.0000 0.57900  0.16500  0.46300  Biso   1.000  C
  C61      1.0000 0.92100  0.66500  0.03700  Biso   1.000  C
  C62      1.0000 0.07900  0.33500  0.53700  Biso   1.000  C
  C63      1.0000 0.92100  0.33500  0.96300  Biso   1.000  C
  C64      1.0000 0.07900  0.66500  0.46300  Biso   1.000  C
  C65      1.0000 0.57900  0.83500  0.96300  Biso   1.000  C
  C66      1.0000 0.42100  0.16500  0.46300  Biso   1.000  C
  C67      1.0000 0.57900  0.16500  0.03700  Biso   1.000  C
  C68      1.0000 0.42100  0.83500  0.53700  Biso   1.000  C
  C69      1.0000 0.07900  0.33500  0.96300  Biso   1.000  C
  C70      1.0000 0.92100  0.66500  0.46300  Biso   1.000  C
  C71      1.0000 0.07900  0.66500  0.03700  Biso   1.000  C
  C72      1.0000 0.92100  0.33500  0.53700  Biso   1.000  C
  C73      1.0000 0.41200  0.11100  0.04400  Biso   1.000  C
  C74      1.0000 0.58800  0.88900  0.54400  Biso   1.000  C
  C75      1.0000 0.41200  0.88900  0.95600  Biso   1.000  C
  C76      1.0000 0.58800  0.11100  0.45600  Biso   1.000  C
  C77      1.0000 0.91200  0.61100  0.04400  Biso   1.000  C
  C78      1.0000 0.08800  0.38900  0.54400  Biso   1.000  C
  C79      1.0000 0.91200  0.38900  0.95600  Biso   1.000  C
  C80      1.0000 0.08800  0.61100  0.45600  Biso   1.000  C
  C81      1.0000 0.58800  0.88900  0.95600  Biso   1.000  C
  C82      1.0000 0.41200  0.11100  0.45600  Biso   1.000  C
  C83      1.0000 0.58800  0.11100  0.04400  Biso   1.000  C
  C84      1.0000 0.41200  0.88900  0.54400  Biso   1.000  C
  C85      1.0000 0.08800  0.38900  0.95600  Biso   1.000  C
  C86      1.0000 0.91200  0.61100  0.45600  Biso   1.000  C
  C87      1.0000 0.08800  0.61100  0.04400  Biso   1.000  C
  C88      1.0000 0.91200  0.38900  0.54400  Biso   1.000  C
  H1       1.0000 0.20650  0.09220  0.11580  Biso   1.000  H
  H2       1.0000 0.79350  0.90780  0.61580  Biso   1.000  H
  H3       1.0000 0.20650  0.90780  0.88420  Biso   1.000  H
  H4       1.0000 0.79350  0.09220  0.38420  Biso   1.000  H
  H5       1.0000 0.70650  0.59220  0.11580  Biso   1.000  H
  H6       1.0000 0.29350  0.40780  0.61580  Biso   1.000  H
  H7       1.0000 0.70650  0.40780  0.88420  Biso   1.000  H
  H8       1.0000 0.29350  0.59220  0.38420  Biso   1.000  H
  H9       1.0000 0.79350  0.90780  0.88420  Biso   1.000  H
  H10      1.0000 0.20650  0.09220  0.38420  Biso   1.000  H
  H11      1.0000 0.79350  0.09220  0.11580  Biso   1.000  H
  H12      1.0000 0.20650  0.90780  0.61580  Biso   1.000  H
  H13      1.0000 0.29350  0.40780  0.88420  Biso   1.000  H
  H14      1.0000 0.70650  0.59220  0.38420  Biso   1.000  H
  H15      1.0000 0.29350  0.59220  0.11580  Biso   1.000  H
  H16      1.0000 0.70650  0.40780  0.61580  Biso   1.000  H
  H17      1.0000 0.24710  0.21630  0.11130  Biso   1.000  H
  H18      1.0000 0.75290  0.78370  0.61130  Biso   1.000  H
  H19      1.0000 0.24710  0.78370  0.88870  Biso   1.000  H
  H20      1.0000 0.75290  0.21630  0.38870  Biso   1.000  H
  H21      1.0000 0.74710  0.71630  0.11130  Biso   1.000  H
  H22      1.0000 0.25290  0.28370  0.61130  Biso   1.000  H
  H23      1.0000 0.74710  0.28370  0.88870  Biso   1.000  H
  H24      1.0000 0.25290  0.71630  0.38870  Biso   1.000  H
  H25      1.0000 0.75290  0.78370  0.88870  Biso   1.000  H
  H26      1.0000 0.24710  0.21630  0.38870  Biso   1.000  H
  H27      1.0000 0.75290  0.21630  0.11130  Biso   1.000  H
  H28      1.0000 0.24710  0.78370  0.61130  Biso   1.000  H
  H29      1.0000 0.25290  0.28370  0.88870  Biso   1.000  H
  H30      1.0000 0.74710  0.71630  0.38870  Biso   1.000  H
  H31      1.0000 0.25290  0.71630  0.11130  Biso   1.000  H
  H32      1.0000 0.74710  0.28370  0.61130  Biso   1.000  H
  H33      1.0000 0.13390  0.21790  0.25000  Biso   1.000  H
  H34      1.0000 0.86610  0.78210  0.75000  Biso   1.000  H
  H35      1.0000 0.13390  0.78210  0.75000  Biso   1.000  H
  H36      1.0000 0.86610  0.21790  0.25000  Biso   1.000  H
  H37      1.0000 0.63390  0.71790  0.25000  Biso   1.000  H
  H38      1.0000 0.36610  0.28210  0.75000  Biso   1.000  H
  H39      1.0000 0.63390  0.28210  0.75000  Biso   1.000  H
  H40      1.0000 0.36610  0.71790  0.25000  Biso   1.000  H
  H41      1.0000 0.41270  0.07990  0.04120  Biso   1.000  H
  H42      1.0000 0.58730  0.92010  0.54120  Biso   1.000  H
  H43      1.0000 0.41270  0.92010  0.95880  Biso   1.000  H
  H44      1.0000 0.58730  0.07990  0.45880  Biso   1.000  H
  H45      1.0000 0.91270  0.57990  0.04120  Biso   1.000  H
  H46      1.0000 0.08730  0.42010  0.54120  Biso   1.000  H
  H47      1.0000 0.91270  0.42010  0.95880  Biso   1.000  H
  H48      1.0000 0.08730  0.57990  0.45880  Biso   1.000  H
  H49      1.0000 0.58730  0.92010  0.95880  Biso   1.000  H
  H50      1.0000 0.41270  0.07990  0.45880  Biso   1.000  H
  H51      1.0000 0.58730  0.07990  0.04120  Biso   1.000  H
  H52      1.0000 0.41270  0.92010  0.54120  Biso   1.000  H
  H53      1.0000 0.08730  0.42010  0.95880  Biso   1.000  H
  H54      1.0000 0.91270  0.57990  0.45880  Biso   1.000  H
  H55      1.0000 0.08730  0.57990  0.04120  Biso   1.000  H
  H56      1.0000 0.91270  0.42010  0.54120  Biso   1.000  H
  H57      1.0000 0.37770  0.13770  0.00010  Biso   1.000  H
  H58      1.0000 0.62230  0.86230  0.50010  Biso   1.000  H
  H59      1.0000 0.37770  0.86230  0.99990  Biso   1.000  H
  H60      1.0000 0.62230  0.13770  0.49990  Biso   1.000  H
  H61      1.0000 0.87770  0.63770  0.00010  Biso   1.000  H
  H62      1.0000 0.12230  0.36230  0.50010  Biso   1.000  H
  H63      1.0000 0.87770  0.36230  0.99990  Biso   1.000  H
  H64      1.0000 0.12230  0.63770  0.49990  Biso   1.000  H
  H65      1.0000 0.62230  0.86230  0.99990  Biso   1.000  H
  H66      1.0000 0.37770  0.13770  0.49990  Biso   1.000  H
  H67      1.0000 0.62230  0.13770  0.00010  Biso   1.000  H
  H68      1.0000 0.37770  0.86230  0.50010  Biso   1.000  H
  H69      1.0000 0.12230  0.36230  0.99990  Biso   1.000  H
  H70      1.0000 0.87770  0.63770  0.49990  Biso   1.000  H
  H71      1.0000 0.12230  0.63770  0.00010  Biso   1.000  H
  H72      1.0000 0.87770  0.36230  0.50010  Biso   1.000  H
