data_image0
_cell_length_a       9.1982
_cell_length_b       6.7004
_cell_length_c       9.3453
_cell_angle_alpha    90
_cell_angle_beta     102.653
_cell_angle_gamma    90

_symmetry_space_group_name_H-M    "P 1"
_symmetry_int_tables_number       1

loop_
  _symmetry_equiv_pos_as_xyz
  'x, y, z'

loop_
  _atom_site_label
  _atom_site_occupancy
  _atom_site_fract_x
  _atom_site_fract_y
  _atom_site_fract_z
  _atom_site_thermal_displace_type
  _atom_site_B_iso_or_equiv
  _atom_site_type_symbol
  Cu1      1.0000 0.00000  0.00000  0.00000  Biso   1.000  Cu
  Cu2      1.0000 0.00000  0.50000  0.50000  Biso   1.000  Cu
  O1       1.0000 0.13780  0.06370  0.26880  Biso   1.000  O
  O2       1.0000 0.86220  0.56370  0.23120  Biso   1.000  O
  O3       1.0000 0.86220  0.93630  0.73120  Biso   1.000  O
  O4       1.0000 0.13780  0.43630  0.76880  Biso   1.000  O
  O5       1.0000 0.10966  0.27480  0.43730  Biso   1.000  O
  O6       1.0000 0.89034  0.77480  0.06270  Biso   1.000  O
  O7       1.0000 0.89034  0.72520  0.56270  Biso   1.000  O
  O8       1.0000 0.10966  0.22520  0.93730  Biso   1.000  O
  N1       1.0000 0.70250  0.33740  0.52330  Biso   1.000  N
  N2       1.0000 0.29750  0.83740  0.97670  Biso   1.000  N
  N3       1.0000 0.29750  0.66260  0.47670  Biso   1.000  N
  N4       1.0000 0.70250  0.16260  0.02330  Biso   1.000  N
  N5       1.0000 0.91860  0.07000  0.32100  Biso   1.000  N
  N6       1.0000 0.08140  0.57000  0.17900  Biso   1.000  N
  N7       1.0000 0.08140  0.93000  0.67900  Biso   1.000  N
  N8       1.0000 0.91860  0.43000  0.82100  Biso   1.000  N
  N9       1.0000 0.05430  0.13960  0.34250  Biso   1.000  N
  N10      1.0000 0.94570  0.63960  0.15750  Biso   1.000  N
  N11      1.0000 0.94570  0.86040  0.65750  Biso   1.000  N
  N12      1.0000 0.05430  0.36040  0.84250  Biso   1.000  N
  N13      1.0000 0.61500  0.19370  0.46850  Biso   1.000  N
  N14      1.0000 0.38500  0.69370  0.03150  Biso   1.000  N
  N15      1.0000 0.38500  0.80630  0.53150  Biso   1.000  N
  N16      1.0000 0.61500  0.30630  0.96850  Biso   1.000  N
  N17      1.0000 0.68860  0.07950  0.38830  Biso   1.000  N
  N18      1.0000 0.31140  0.57950  0.11170  Biso   1.000  N
  N19      1.0000 0.31140  0.92050  0.61170  Biso   1.000  N
  N20      1.0000 0.68860  0.42050  0.88830  Biso   1.000  N
  N21      1.0000 0.83510  0.31830  0.48170  Biso   1.000  N
  N22      1.0000 0.16490  0.81830  0.01830  Biso   1.000  N
  N23      1.0000 0.16490  0.68170  0.51830  Biso   1.000  N
  N24      1.0000 0.83510  0.18170  0.98170  Biso   1.000  N
  C1       1.0000 0.62000  0.90210  0.30930  Biso   1.000  C
  C2       1.0000 0.38000  0.40210  0.19070  Biso   1.000  C
  C3       1.0000 0.38000  0.09790  0.69070  Biso   1.000  C
  C4       1.0000 0.62000  0.59790  0.80930  Biso   1.000  C
  C5       1.0000 0.82480  0.15640  0.39710  Biso   1.000  C
  C6       1.0000 0.17520  0.65640  0.10290  Biso   1.000  C
  C7       1.0000 0.17520  0.84360  0.60290  Biso   1.000  C
  C8       1.0000 0.82480  0.34360  0.89710  Biso   1.000  C
  H1       1.0000 0.66600  0.87500  0.23100  Biso   1.000  H
  H2       1.0000 0.33400  0.37500  0.26900  Biso   1.000  H
  H3       1.0000 0.33400  0.12500  0.76900  Biso   1.000  H
  H4       1.0000 0.66600  0.62500  0.73100  Biso   1.000  H
  H5       1.0000 0.63000  0.80500  0.37200  Biso   1.000  H
  H6       1.0000 0.37000  0.30500  0.12800  Biso   1.000  H
  H7       1.0000 0.37000  0.19500  0.62800  Biso   1.000  H
  H8       1.0000 0.63000  0.69500  0.87200  Biso   1.000  H
  H9       1.0000 0.52200  0.93200  0.26500  Biso   1.000  H
  H10      1.0000 0.47800  0.43200  0.23500  Biso   1.000  H
  H11      1.0000 0.47800  0.06800  0.73500  Biso   1.000  H
  H12      1.0000 0.52200  0.56800  0.76500  Biso   1.000  H
