data_image0
_cell_length_a       14.2604
_cell_length_b       10.1663
_cell_length_c       10.5637
_cell_angle_alpha    90
_cell_angle_beta     91.803
_cell_angle_gamma    90

_symmetry_space_group_name_H-M    "P 1"
_symmetry_int_tables_number       1

loop_
  _symmetry_equiv_pos_as_xyz
  'x, y, z'

loop_
  _atom_site_label
  _atom_site_occupancy
  _atom_site_fract_x
  _atom_site_fract_y
  _atom_site_fract_z
  _atom_site_thermal_displace_type
  _atom_site_B_iso_or_equiv
  _atom_site_type_symbol
  Cu1      1.0000 0.50000  0.00000  0.50000  Biso   1.000  Cu
  Cu2      1.0000 0.50000  0.50000  0.00000  Biso   1.000  Cu
  Cu3      1.0000 0.50000  0.00000  0.00000  Biso   1.000  Cu
  Cu4      1.0000 0.50000  0.50000  0.50000  Biso   1.000  Cu
  O1       1.0000 0.34366  0.97825  0.53733  Biso   1.000  O
  O2       1.0000 0.65634  0.47825  0.96267  Biso   1.000  O
  O3       1.0000 0.65634  0.02175  0.46267  Biso   1.000  O
  O4       1.0000 0.34366  0.52175  0.03733  Biso   1.000  O
  O5       1.0000 0.49916  0.98464  0.68680  Biso   1.000  O
  O6       1.0000 0.50084  0.48464  0.81320  Biso   1.000  O
  O7       1.0000 0.50084  0.01536  0.31320  Biso   1.000  O
  O8       1.0000 0.49916  0.51536  0.18680  Biso   1.000  O
  O9       1.0000 0.41871  0.04445  0.85600  Biso   1.000  O
  O10      1.0000 0.58129  0.54445  0.64400  Biso   1.000  O
  O11      1.0000 0.58129  0.95555  0.14400  Biso   1.000  O
  O12      1.0000 0.41871  0.45555  0.35600  Biso   1.000  O
  O13      1.0000 0.12464  0.07462  0.76046  Biso   1.000  O
  O14      1.0000 0.87536  0.57462  0.73954  Biso   1.000  O
  O15      1.0000 0.87536  0.92538  0.23954  Biso   1.000  O
  O16      1.0000 0.12464  0.42538  0.26046  Biso   1.000  O
  O17      1.0000 0.12910  0.97364  0.57099  Biso   1.000  O
  O18      1.0000 0.87090  0.47364  0.92901  Biso   1.000  O
  O19      1.0000 0.87090  0.02636  0.42901  Biso   1.000  O
  O20      1.0000 0.12910  0.52636  0.07099  Biso   1.000  O
  O21      1.0000 0.13081  0.72740  0.73036  Biso   1.000  O
  O22      1.0000 0.86919  0.22740  0.76964  Biso   1.000  O
  O23      1.0000 0.86919  0.27260  0.26964  Biso   1.000  O
  O24      1.0000 0.13081  0.77260  0.23036  Biso   1.000  O
  O25      1.0000 0.19016  0.63898  0.55445  Biso   1.000  O
  O26      1.0000 0.80984  0.13898  0.94555  Biso   1.000  O
  O27      1.0000 0.80984  0.36102  0.44555  Biso   1.000  O
  O28      1.0000 0.19016  0.86102  0.05445  Biso   1.000  O
  O29      1.0000 0.40557  0.63671  0.53590  Biso   1.000  O
  O30      1.0000 0.59443  0.13671  0.96410  Biso   1.000  O
  O31      1.0000 0.59443  0.36329  0.46410  Biso   1.000  O
  O32      1.0000 0.40557  0.86329  0.03590  Biso   1.000  O
  O33      1.0000 0.48698  0.81212  0.48060  Biso   1.000  O
  O34      1.0000 0.51302  0.31212  0.01940  Biso   1.000  O
  O35      1.0000 0.51302  0.18788  0.51940  Biso   1.000  O
  O36      1.0000 0.48698  0.68788  0.98060  Biso   1.000  O
  C1       1.0000 0.33297  0.02750  0.66410  Biso   1.000  C
  C2       1.0000 0.66703  0.52750  0.83590  Biso   1.000  C
  C3       1.0000 0.66703  0.97250  0.33590  Biso   1.000  C
  C4       1.0000 0.33297  0.47250  0.16410  Biso   1.000  C
  H1       1.0000 0.31400  0.12400  0.65100  Biso   1.000  H
  H2       1.0000 0.68600  0.62400  0.84900  Biso   1.000  H
  H3       1.0000 0.68600  0.87600  0.34900  Biso   1.000  H
  H4       1.0000 0.31400  0.37600  0.15100  Biso   1.000  H
  C5       1.0000 0.25598  0.94220  0.72030  Biso   1.000  C
  C6       1.0000 0.74402  0.44220  0.77970  Biso   1.000  C
  C7       1.0000 0.74402  0.05780  0.27970  Biso   1.000  C
  C8       1.0000 0.25598  0.55780  0.22030  Biso   1.000  C
  H5       1.0000 0.26100  0.93500  0.80700  Biso   1.000  H
  H6       1.0000 0.73900  0.43500  0.69300  Biso   1.000  H
  H7       1.0000 0.73900  0.06500  0.19300  Biso   1.000  H
  H8       1.0000 0.26100  0.56500  0.30700  Biso   1.000  H
  C9       1.0000 0.27628  0.80770  0.66150  Biso   1.000  C
  C10      1.0000 0.72372  0.30770  0.83850  Biso   1.000  C
  C11      1.0000 0.72372  0.19230  0.33850  Biso   1.000  C
  C12      1.0000 0.27628  0.69230  0.16150  Biso   1.000  C
  H9       1.0000 0.31800  0.76300  0.71100  Biso   1.000  H
  H10      1.0000 0.68200  0.26300  0.78900  Biso   1.000  H
  H11      1.0000 0.68200  0.23700  0.28900  Biso   1.000  H
  H12      1.0000 0.31800  0.73700  0.21100  Biso   1.000  H
  C13      1.0000 0.32423  0.83820  0.53690  Biso   1.000  C
  C14      1.0000 0.67577  0.33820  0.96310  Biso   1.000  C
  C15      1.0000 0.67577  0.16180  0.46310  Biso   1.000  C
  C16      1.0000 0.32423  0.66180  0.03690  Biso   1.000  C
  H13      1.0000 0.28100  0.82500  0.46100  Biso   1.000  H
  H14      1.0000 0.71900  0.32500  0.03900  Biso   1.000  H
  H15      1.0000 0.71900  0.17500  0.53900  Biso   1.000  H
  H16      1.0000 0.28100  0.67500  0.96100  Biso   1.000  H
  C17      1.0000 0.42552  0.01780  0.74100  Biso   1.000  C
  C18      1.0000 0.57448  0.51780  0.75900  Biso   1.000  C
  C19      1.0000 0.57448  0.98220  0.25900  Biso   1.000  C
  C20      1.0000 0.42552  0.48220  0.24100  Biso   1.000  C
  C21      1.0000 0.16057  0.00040  0.67990  Biso   1.000  C
  C22      1.0000 0.83943  0.50040  0.82010  Biso   1.000  C
  C23      1.0000 0.83943  0.99960  0.32010  Biso   1.000  C
  C24      1.0000 0.16057  0.49960  0.17990  Biso   1.000  C
  C25      1.0000 0.19122  0.71750  0.64690  Biso   1.000  C
  C26      1.0000 0.80878  0.21750  0.85310  Biso   1.000  C
  C27      1.0000 0.80878  0.28250  0.35310  Biso   1.000  C
  C28      1.0000 0.19122  0.78250  0.14690  Biso   1.000  C
  C29      1.0000 0.41338  0.75630  0.51750  Biso   1.000  C
  C30      1.0000 0.58662  0.25630  0.98250  Biso   1.000  C
  C31      1.0000 0.58662  0.24370  0.48250  Biso   1.000  C
  C32      1.0000 0.41338  0.74370  0.01750  Biso   1.000  C
  Cu5      1.0000 0.99902  0.15424  0.76357  Biso   1.000  Cu
  Cu6      1.0000 0.00098  0.65424  0.73643  Biso   1.000  Cu
  Cu7      1.0000 0.00098  0.84576  0.23643  Biso   1.000  Cu
  Cu8      1.0000 0.99902  0.34576  0.26357  Biso   1.000  Cu
  Cu9      1.0000 0.10132  0.49776  0.52568  Biso   1.000  Cu
  Cu10     1.0000 0.89868  0.99776  0.97432  Biso   1.000  Cu
  Cu11     1.0000 0.89868  0.50224  0.47432  Biso   1.000  Cu
  Cu12     1.0000 0.10132  0.00224  0.02568  Biso   1.000  Cu
  O37      1.0000 0.00609  0.11633  0.94746  Biso   1.000  O
  O38      1.0000 0.99391  0.61633  0.55254  Biso   1.000  O
  O39      1.0000 0.99391  0.88367  0.05254  Biso   1.000  O
  O40      1.0000 0.00609  0.38367  0.44746  Biso   1.000  O
  O41      1.0000 0.20379  0.37060  0.50560  Biso   1.000  O
  O42      1.0000 0.79621  0.87060  0.99440  Biso   1.000  O
  O43      1.0000 0.79621  0.62940  0.49440  Biso   1.000  O
  O44      1.0000 0.20379  0.12940  0.00560  Biso   1.000  O
  Cl1      1.0000 0.92625  0.89960  0.73544  Biso   1.000  Cl
  Cl2      1.0000 0.07375  0.39960  0.76456  Biso   1.000  Cl
  Cl3      1.0000 0.07375  0.10040  0.26456  Biso   1.000  Cl
  Cl4      1.0000 0.92625  0.60040  0.23544  Biso   1.000  Cl
  H17      1.0000 0.20400  0.33700  0.42670  Biso   1.000  H
  H18      1.0000 0.79600  0.83700  0.07330  Biso   1.000  H
  H19      1.0000 0.79600  0.66300  0.57330  Biso   1.000  H
  H20      1.0000 0.20400  0.16300  0.92670  Biso   1.000  H
  H21      1.0000 0.26120  0.38600  0.54000  Biso   1.000  H
  H22      1.0000 0.73880  0.88600  0.96000  Biso   1.000  H
  H23      1.0000 0.73880  0.61400  0.46000  Biso   1.000  H
  H24      1.0000 0.26120  0.11400  0.04000  Biso   1.000  H
  H25      1.0000 0.00400  0.16900  0.98100  Biso   1.000  H
  H26      1.0000 0.99600  0.66900  0.51900  Biso   1.000  H
  H27      1.0000 0.99600  0.83100  0.01900  Biso   1.000  H
  H28      1.0000 0.00400  0.33100  0.48100  Biso   1.000  H
  O45      1.0000 0.98136  0.16662  0.58118  Biso   1.000  O
  O46      1.0000 0.01864  0.66662  0.91882  Biso   1.000  O
  O47      1.0000 0.01864  0.83338  0.41882  Biso   1.000  O
  O48      1.0000 0.98136  0.33338  0.08118  Biso   1.000  O
  H29      1.0000 0.93500  0.18100  0.58000  Biso   1.000  H
  H30      1.0000 0.06500  0.68100  0.92000  Biso   1.000  H
  H31      1.0000 0.06500  0.81900  0.42000  Biso   1.000  H
  H32      1.0000 0.93500  0.31900  0.08000  Biso   1.000  H
  Cu13     1.0000 0.00000  0.00000  0.50000  Biso   1.000  Cu
  Cu14     1.0000 0.00000  0.50000  0.00000  Biso   1.000  Cu
  O49      1.0000 0.28269  0.16410  0.33410  Biso   1.000  O
  O50      1.0000 0.71731  0.66410  0.16590  Biso   1.000  O
  O51      1.0000 0.71731  0.83590  0.66590  Biso   1.000  O
  O52      1.0000 0.28269  0.33590  0.83410  Biso   1.000  O
  H33      1.0000 0.30810  0.13900  0.24200  Biso   1.000  H
  H34      1.0000 0.69190  0.63900  0.25800  Biso   1.000  H
  H35      1.0000 0.69190  0.86100  0.75800  Biso   1.000  H
  H36      1.0000 0.30810  0.36100  0.74200  Biso   1.000  H
  H37      1.0000 0.22010  0.13400  0.31100  Biso   1.000  H
  H38      1.0000 0.77990  0.63400  0.18900  Biso   1.000  H
  H39      1.0000 0.77990  0.86600  0.68900  Biso   1.000  H
  H40      1.0000 0.22010  0.36600  0.81100  Biso   1.000  H
  O53      1.0000 0.38408  0.13550  0.10360  Biso   1.000  O
  O54      1.0000 0.61592  0.63550  0.39640  Biso   1.000  O
  O55      1.0000 0.61592  0.86450  0.89640  Biso   1.000  O
  O56      1.0000 0.38408  0.36450  0.60360  Biso   1.000  O
  H41      1.0000 0.37900  0.12500  0.19560  Biso   1.000  H
  H42      1.0000 0.62100  0.62500  0.30440  Biso   1.000  H
  H43      1.0000 0.62100  0.87500  0.80440  Biso   1.000  H
  H44      1.0000 0.37900  0.37500  0.69560  Biso   1.000  H
  H45      1.0000 0.42300  0.21500  0.09900  Biso   1.000  H
  H46      1.0000 0.57700  0.71500  0.40100  Biso   1.000  H
  H47      1.0000 0.57700  0.78500  0.90100  Biso   1.000  H
  H48      1.0000 0.42300  0.28500  0.59900  Biso   1.000  H
