data_image0
_cell_length_a       14.1601
_cell_length_b       10.0452
_cell_length_c       10.2294
_cell_angle_alpha    90
_cell_angle_beta     92.258
_cell_angle_gamma    90

_symmetry_space_group_name_H-M    "P 1"
_symmetry_int_tables_number       1

loop_
  _symmetry_equiv_pos_as_xyz
  'x, y, z'

loop_
  _atom_site_label
  _atom_site_occupancy
  _atom_site_fract_x
  _atom_site_fract_y
  _atom_site_fract_z
  _atom_site_thermal_displace_type
  _atom_site_B_iso_or_equiv
  _atom_site_type_symbol
  Cu1      1.0000 0.71465  0.75117  0.07438  Biso   1.000  Cu
  Cu2      1.0000 0.71465  0.24883  0.57438  Biso   1.000  Cu
  Cu3      1.0000 0.21149  0.76772  0.06765  Biso   1.000  Cu
  Cu4      1.0000 0.21149  0.23228  0.56765  Biso   1.000  Cu
  Cu5      1.0000 0.22966  0.12341  0.29936  Biso   1.000  Cu
  Cu6      1.0000 0.22966  0.87659  0.79936  Biso   1.000  Cu
  Cu7      1.0000 0.21828  0.59336  0.34395  Biso   1.000  Cu
  Cu8      1.0000 0.21828  0.40664  0.84395  Biso   1.000  Cu
  Cu9      1.0000 0.33564  0.71889  0.59231  Biso   1.000  Cu
  Cu10     1.0000 0.33564  0.28111  0.09231  Biso   1.000  Cu
  Cu11     1.0000 0.12383  0.73614  0.55891  Biso   1.000  Cu
  Cu12     1.0000 0.12383  0.26386  0.05891  Biso   1.000  Cu
  Cu13     1.0000 0.71256  0.74266  0.56207  Biso   1.000  Cu
  Cu14     1.0000 0.71256  0.25734  0.06207  Biso   1.000  Cu
  Cl1      1.0000 0.03218  0.89243  0.47000  Biso   1.000  Cl
  Cl2      1.0000 0.03218  0.10757  0.97000  Biso   1.000  Cl
  Cl3      1.0000 0.30909  0.37338  0.34853  Biso   1.000  Cl
  Cl4      1.0000 0.30909  0.62662  0.84853  Biso   1.000  Cl
  C1       1.0000 0.53750  0.72500  0.23190  Biso   1.000  C
  C2       1.0000 0.53750  0.27500  0.73190  Biso   1.000  C
  H1       1.0000 0.50740  0.63520  0.22280  Biso   1.000  H
  H2       1.0000 0.50740  0.36480  0.72280  Biso   1.000  H
  C3       1.0000 0.46840  0.82350  0.29380  Biso   1.000  C
  C4       1.0000 0.46840  0.17650  0.79380  Biso   1.000  C
  H3       1.0000 0.47890  0.82500  0.39110  Biso   1.000  H
  H4       1.0000 0.47890  0.17500  0.89110  Biso   1.000  H
  C5       1.0000 0.49810  0.95590  0.23510  Biso   1.000  C
  C6       1.0000 0.49810  0.04410  0.73510  Biso   1.000  C
  H5       1.0000 0.54960  0.99470  0.29290  Biso   1.000  H
  H6       1.0000 0.54960  0.00530  0.79290  Biso   1.000  H
  C7       1.0000 0.54030  0.91920  0.10290  Biso   1.000  C
  C8       1.0000 0.54030  0.08080  0.60290  Biso   1.000  C
  H7       1.0000 0.49290  0.94060  0.03090  Biso   1.000  H
  H8       1.0000 0.49290  0.05940  0.53090  Biso   1.000  H
  C9       1.0000 0.62800  0.71560  0.31660  Biso   1.000  C
  C10      1.0000 0.62800  0.28440  0.81660  Biso   1.000  C
  C11      1.0000 0.36760  0.78130  0.25770  Biso   1.000  C
  C12      1.0000 0.36760  0.21870  0.75770  Biso   1.000  C
  C13      1.0000 0.41840  0.05730  0.22160  Biso   1.000  C
  C14      1.0000 0.41840  0.94270  0.72160  Biso   1.000  C
  C15      1.0000 0.63080  0.99830  0.08090  Biso   1.000  C
  C16      1.0000 0.63080  0.00170  0.58090  Biso   1.000  C
  C17      1.0000 0.88350  0.78160  0.90250  Biso   1.000  C
  C18      1.0000 0.88350  0.21840  0.40250  Biso   1.000  C
  H9       1.0000 0.90690  0.87540  0.90690  Biso   1.000  H
  H10      1.0000 0.90690  0.12460  0.40690  Biso   1.000  H
  C19      1.0000 0.95790  0.69010  0.84130  Biso   1.000  C
  C20      1.0000 0.95790  0.30990  0.34130  Biso   1.000  C
  H11      1.0000 0.94680  0.68320  0.74440  Biso   1.000  H
  H12      1.0000 0.94680  0.31680  0.24440  Biso   1.000  H
  C21      1.0000 0.93930  0.55440  0.90940  Biso   1.000  C
  C22      1.0000 0.93930  0.44560  0.40940  Biso   1.000  C
  H13      1.0000 0.89390  0.50280  0.85160  Biso   1.000  H
  H14      1.0000 0.89390  0.49720  0.35160  Biso   1.000  H
  C23      1.0000 0.88930  0.59000  0.03340  Biso   1.000  C
  C24      1.0000 0.88930  0.41000  0.53340  Biso   1.000  C
  H15      1.0000 0.93330  0.57040  0.10980  Biso   1.000  H
  H16      1.0000 0.93330  0.42960  0.60980  Biso   1.000  H
  C25      1.0000 0.78950  0.77430  0.82250  Biso   1.000  C
  C26      1.0000 0.78950  0.22570  0.32250  Biso   1.000  C
  C27      1.0000 0.05700  0.74200  0.87560  Biso   1.000  C
  C28      1.0000 0.05700  0.25800  0.37560  Biso   1.000  C
  C29      1.0000 0.02640  0.47000  0.93330  Biso   1.000  C
  C30      1.0000 0.02640  0.53000  0.43330  Biso   1.000  C
  C31      1.0000 0.79920  0.50850  0.04920  Biso   1.000  C
  C32      1.0000 0.79920  0.49150  0.54920  Biso   1.000  C
  O1       1.0000 0.55590  0.77790  0.10520  Biso   1.000  O
  O2       1.0000 0.55590  0.22210  0.60520  Biso   1.000  O
  O3       1.0000 0.70440  0.75640  0.27210  Biso   1.000  O
  O4       1.0000 0.70440  0.24360  0.77210  Biso   1.000  O
  O5       1.0000 0.61950  0.67380  0.43130  Biso   1.000  O
  O6       1.0000 0.61950  0.32620  0.93130  Biso   1.000  O
  O7       1.0000 0.32520  0.72120  0.34670  Biso   1.000  O
  O8       1.0000 0.32520  0.27880  0.84670  Biso   1.000  O
  O9       1.0000 0.33670  0.80290  0.14410  Biso   1.000  O
  O10      1.0000 0.33670  0.19710  0.64410  Biso   1.000  O
  O11      1.0000 0.35530  0.04590  0.30400  Biso   1.000  O
  O12      1.0000 0.35530  0.95410  0.80400  Biso   1.000  O
  O13      1.0000 0.42550  0.14570  0.13620  Biso   1.000  O
  O14      1.0000 0.42550  0.85430  0.63620  Biso   1.000  O
  O15      1.0000 0.61990  0.12160  0.08170  Biso   1.000  O
  O16      1.0000 0.61990  0.87840  0.58170  Biso   1.000  O
  O17      1.0000 0.70680  0.94030  0.06020  Biso   1.000  O
  O18      1.0000 0.70680  0.05970  0.56020  Biso   1.000  O
  O19      1.0000 0.21610  0.93200  0.97620  Biso   1.000  O
  O20      1.0000 0.21610  0.06800  0.47620  Biso   1.000  O
  H17      1.0000 0.16100  0.97700  0.00500  Biso   1.000  H
  H18      1.0000 0.16100  0.02300  0.50500  Biso   1.000  H
  O21      1.0000 0.23120  0.15440  0.11320  Biso   1.000  O
  O22      1.0000 0.23120  0.84560  0.61320  Biso   1.000  O
  H19      1.0000 0.23200  0.07100  0.06800  Biso   1.000  H
  H20      1.0000 0.23200  0.92900  0.56800  Biso   1.000  H
  O23      1.0000 0.87110  0.73070  0.03150  Biso   1.000  O
  O24      1.0000 0.87110  0.26930  0.53150  Biso   1.000  O
  O25      1.0000 0.71540  0.74210  0.87720  Biso   1.000  O
  O26      1.0000 0.71540  0.25790  0.37720  Biso   1.000  O
  O27      1.0000 0.79640  0.79950  0.70250  Biso   1.000  O
  O28      1.0000 0.79640  0.20050  0.20250  Biso   1.000  O
  O29      1.0000 0.10390  0.78900  0.78460  Biso   1.000  O
  O30      1.0000 0.10390  0.21100  0.28460  Biso   1.000  O
  O31      1.0000 0.08400  0.73180  0.99300  Biso   1.000  O
  O32      1.0000 0.08400  0.26820  0.49300  Biso   1.000  O
  O33      1.0000 0.08500  0.47070  0.84340  Biso   1.000  O
  O34      1.0000 0.08500  0.52930  0.34340  Biso   1.000  O
  O35      1.0000 0.03310  0.40460  0.03820  Biso   1.000  O
  O36      1.0000 0.03310  0.59540  0.53820  Biso   1.000  O
  O37      1.0000 0.80870  0.38600  0.02740  Biso   1.000  O
  O38      1.0000 0.80870  0.61400  0.52740  Biso   1.000  O
  O39      1.0000 0.72510  0.56100  0.08750  Biso   1.000  O
  O40      1.0000 0.72510  0.43900  0.58750  Biso   1.000  O
  O41      1.0000 0.19400  0.60620  0.16080  Biso   1.000  O
  O42      1.0000 0.19400  0.39380  0.66080  Biso   1.000  O
  H21      1.0000 0.12900  0.60500  0.13100  Biso   1.000  H
  H22      1.0000 0.12900  0.39500  0.63100  Biso   1.000  H
  O43      1.0000 0.23130  0.60880  0.53240  Biso   1.000  O
  O44      1.0000 0.23130  0.39120  0.03240  Biso   1.000  O
  H23      1.0000 0.21600  0.33900  0.10800  Biso   1.000  H
  H24      1.0000 0.21600  0.66100  0.60800  Biso   1.000  H
  O45      1.0000 0.43610  0.58310  0.55650  Biso   1.000  O
  O46      1.0000 0.43610  0.41690  0.05650  Biso   1.000  O
  H25      1.0000 0.49500  0.62200  0.54100  Biso   1.000  H
  H26      1.0000 0.49500  0.37800  0.04100  Biso   1.000  H
  H27      1.0000 0.40100  0.58500  0.47500  Biso   1.000  H
  H28      1.0000 0.40100  0.41500  0.97500  Biso   1.000  H
  N1       1.0000 0.12900  0.90280  0.24700  Biso   1.000  N
  N2       1.0000 0.12900  0.09720  0.74700  Biso   1.000  N
