data_image0
_cell_length_a       14.2238
_cell_length_b       10.1417
_cell_length_c       10.5474
_cell_angle_alpha    90
_cell_angle_beta     91.795
_cell_angle_gamma    90

_symmetry_space_group_name_H-M    "P 1"
_symmetry_int_tables_number       1

loop_
  _symmetry_equiv_pos_as_xyz
  'x, y, z'

loop_
  _atom_site_label
  _atom_site_occupancy
  _atom_site_fract_x
  _atom_site_fract_y
  _atom_site_fract_z
  _atom_site_thermal_displace_type
  _atom_site_B_iso_or_equiv
  _atom_site_type_symbol
  Cu1      1.0000 0.50000  0.00000  0.50000  Biso   1.000  Cu
  Cu2      1.0000 0.50000  0.50000  0.00000  Biso   1.000  Cu
  Cu3      1.0000 0.00000  0.00000  0.50000  Biso   1.000  Cu
  Cu4      1.0000 0.00000  0.50000  0.00000  Biso   1.000  Cu
  Cu5      1.0000 0.99905  0.15424  0.76354  Biso   1.000  Cu
  Cu6      1.0000 0.00095  0.65424  0.73646  Biso   1.000  Cu
  Cu7      1.0000 0.00095  0.84576  0.23646  Biso   1.000  Cu
  Cu8      1.0000 0.99905  0.34576  0.26354  Biso   1.000  Cu
  Cu9      1.0000 0.10132  0.49774  0.52585  Biso   1.000  Cu
  Cu10     1.0000 0.89868  0.99774  0.97415  Biso   1.000  Cu
  Cu11     1.0000 0.89868  0.50226  0.47415  Biso   1.000  Cu
  Cu12     1.0000 0.10132  0.00226  0.02585  Biso   1.000  Cu
  Cu13     1.0000 0.50000  0.00000  0.00000  Biso   1.000  Cu
  Cu14     1.0000 0.50000  0.50000  0.50000  Biso   1.000  Cu
  Cl1      1.0000 0.07395  0.39967  0.76468  Biso   1.000  Cl
  Cl2      1.0000 0.92605  0.89967  0.73532  Biso   1.000  Cl
  Cl3      1.0000 0.92605  0.60033  0.23532  Biso   1.000  Cl
  Cl4      1.0000 0.07395  0.10033  0.26468  Biso   1.000  Cl
  O1       1.0000 0.34351  0.97809  0.53734  Biso   1.000  O
  O2       1.0000 0.65649  0.47809  0.96266  Biso   1.000  O
  O3       1.0000 0.65649  0.02191  0.46266  Biso   1.000  O
  O4       1.0000 0.34351  0.52191  0.03734  Biso   1.000  O
  O5       1.0000 0.49896  0.98474  0.68695  Biso   1.000  O
  O6       1.0000 0.50104  0.48474  0.81305  Biso   1.000  O
  O7       1.0000 0.50104  0.01526  0.31305  Biso   1.000  O
  O8       1.0000 0.49896  0.51526  0.18695  Biso   1.000  O
  O9       1.0000 0.41871  0.04484  0.85615  Biso   1.000  O
  O10      1.0000 0.58129  0.54484  0.64385  Biso   1.000  O
  O11      1.0000 0.58129  0.95516  0.14385  Biso   1.000  O
  O12      1.0000 0.41871  0.45516  0.35615  Biso   1.000  O
  O13      1.0000 0.12478  0.07504  0.76045  Biso   1.000  O
  O14      1.0000 0.87522  0.57504  0.73955  Biso   1.000  O
  O15      1.0000 0.87522  0.92496  0.23955  Biso   1.000  O
  O16      1.0000 0.12478  0.42496  0.26045  Biso   1.000  O
  O17      1.0000 0.12906  0.97320  0.57129  Biso   1.000  O
  O18      1.0000 0.87094  0.47320  0.92871  Biso   1.000  O
  O19      1.0000 0.87094  0.02680  0.42871  Biso   1.000  O
  O20      1.0000 0.12906  0.52680  0.07129  Biso   1.000  O
  O21      1.0000 0.13090  0.72734  0.73046  Biso   1.000  O
  O22      1.0000 0.86910  0.22734  0.76954  Biso   1.000  O
  O23      1.0000 0.86910  0.27266  0.26954  Biso   1.000  O
  O24      1.0000 0.13090  0.77266  0.23046  Biso   1.000  O
  O25      1.0000 0.19025  0.63886  0.55479  Biso   1.000  O
  O26      1.0000 0.80975  0.13886  0.94521  Biso   1.000  O
  O27      1.0000 0.80975  0.36114  0.44521  Biso   1.000  O
  O28      1.0000 0.19025  0.86114  0.05479  Biso   1.000  O
  O29      1.0000 0.40551  0.63648  0.53572  Biso   1.000  O
  O30      1.0000 0.59449  0.13648  0.96428  Biso   1.000  O
  O31      1.0000 0.59449  0.36352  0.46428  Biso   1.000  O
  O32      1.0000 0.40551  0.86352  0.03572  Biso   1.000  O
  O33      1.0000 0.48727  0.81213  0.48080  Biso   1.000  O
  O34      1.0000 0.51273  0.31213  0.01920  Biso   1.000  O
  O35      1.0000 0.51273  0.18787  0.51920  Biso   1.000  O
  O36      1.0000 0.48727  0.68787  0.98080  Biso   1.000  O
  O37      1.0000 0.98140  0.16676  0.58132  Biso   1.000  O
  O38      1.0000 0.01860  0.66676  0.91868  Biso   1.000  O
  O39      1.0000 0.01860  0.83324  0.41868  Biso   1.000  O
  O40      1.0000 0.98140  0.33324  0.08132  Biso   1.000  O
  H1       1.0000 0.93600  0.17700  0.57500  Biso   1.000  H
  H2       1.0000 0.06400  0.67700  0.92500  Biso   1.000  H
  H3       1.0000 0.06400  0.82300  0.42500  Biso   1.000  H
  H4       1.0000 0.93600  0.32300  0.07500  Biso   1.000  H
  O41      1.0000 0.00597  0.11599  0.94756  Biso   1.000  O
  O42      1.0000 0.99403  0.61599  0.55244  Biso   1.000  O
  O43      1.0000 0.99403  0.88401  0.05244  Biso   1.000  O
  O44      1.0000 0.00597  0.38401  0.44756  Biso   1.000  O
  H5       1.0000 0.00300  0.17700  0.98300  Biso   1.000  H
  H6       1.0000 0.99700  0.67700  0.51700  Biso   1.000  H
  H7       1.0000 0.99700  0.82300  0.01700  Biso   1.000  H
  H8       1.0000 0.00300  0.32300  0.48300  Biso   1.000  H
  O45      1.0000 0.20363  0.37041  0.50547  Biso   1.000  O
  O46      1.0000 0.79637  0.87041  0.99453  Biso   1.000  O
  O47      1.0000 0.79637  0.62959  0.49453  Biso   1.000  O
  O48      1.0000 0.20363  0.12959  0.00547  Biso   1.000  O
  H9       1.0000 0.20410  0.33000  0.42790  Biso   1.000  H
  H10      1.0000 0.79590  0.83000  0.07210  Biso   1.000  H
  H11      1.0000 0.79590  0.67000  0.57210  Biso   1.000  H
  H12      1.0000 0.20410  0.17000  0.92790  Biso   1.000  H
  H13      1.0000 0.26270  0.38300  0.53600  Biso   1.000  H
  H14      1.0000 0.73730  0.88300  0.96400  Biso   1.000  H
  H15      1.0000 0.73730  0.61700  0.46400  Biso   1.000  H
  H16      1.0000 0.26270  0.11700  0.03600  Biso   1.000  H
  O49      1.0000 0.61549  0.86390  0.89621  Biso   1.000  O
  O50      1.0000 0.38451  0.36390  0.60379  Biso   1.000  O
  O51      1.0000 0.38451  0.13610  0.10379  Biso   1.000  O
  O52      1.0000 0.61549  0.63610  0.39621  Biso   1.000  O
  C1       1.0000 0.33304  0.02790  0.66420  Biso   1.000  C
  C2       1.0000 0.66696  0.52790  0.83580  Biso   1.000  C
  C3       1.0000 0.66696  0.97210  0.33580  Biso   1.000  C
  C4       1.0000 0.33304  0.47210  0.16420  Biso   1.000  C
  H17      1.0000 0.31600  0.12200  0.65500  Biso   1.000  H
  H18      1.0000 0.68400  0.62200  0.84500  Biso   1.000  H
  H19      1.0000 0.68400  0.87800  0.34500  Biso   1.000  H
  H20      1.0000 0.31600  0.37800  0.15500  Biso   1.000  H
  C5       1.0000 0.25601  0.94260  0.72010  Biso   1.000  C
  C6       1.0000 0.74399  0.44260  0.77990  Biso   1.000  C
  C7       1.0000 0.74399  0.05740  0.27990  Biso   1.000  C
  C8       1.0000 0.25601  0.55740  0.22010  Biso   1.000  C
  H21      1.0000 0.26000  0.93500  0.80100  Biso   1.000  H
  H22      1.0000 0.74000  0.43500  0.69900  Biso   1.000  H
  H23      1.0000 0.74000  0.06500  0.19900  Biso   1.000  H
  H24      1.0000 0.26000  0.56500  0.30100  Biso   1.000  H
  C9       1.0000 0.27625  0.80740  0.66190  Biso   1.000  C
  C10      1.0000 0.72375  0.30740  0.83810  Biso   1.000  C
  C11      1.0000 0.72375  0.19260  0.33810  Biso   1.000  C
  C12      1.0000 0.27625  0.69260  0.16190  Biso   1.000  C
  H25      1.0000 0.32000  0.76300  0.71300  Biso   1.000  H
  H26      1.0000 0.68000  0.26300  0.78700  Biso   1.000  H
  H27      1.0000 0.68000  0.23700  0.28700  Biso   1.000  H
  H28      1.0000 0.32000  0.73700  0.21300  Biso   1.000  H
  C13      1.0000 0.32430  0.83820  0.53700  Biso   1.000  C
  C14      1.0000 0.67570  0.33820  0.96300  Biso   1.000  C
  C15      1.0000 0.67570  0.16180  0.46300  Biso   1.000  C
  C16      1.0000 0.32430  0.66180  0.03700  Biso   1.000  C
  H29      1.0000 0.28200  0.82000  0.46200  Biso   1.000  H
  H30      1.0000 0.71800  0.32000  0.03800  Biso   1.000  H
  H31      1.0000 0.71800  0.18000  0.53800  Biso   1.000  H
  H32      1.0000 0.28200  0.68000  0.96200  Biso   1.000  H
  C17      1.0000 0.42581  0.01820  0.74090  Biso   1.000  C
  C18      1.0000 0.57419  0.51820  0.75910  Biso   1.000  C
  C19      1.0000 0.57419  0.98180  0.25910  Biso   1.000  C
  C20      1.0000 0.42581  0.48180  0.24090  Biso   1.000  C
  C21      1.0000 0.16090  0.00040  0.68040  Biso   1.000  C
  C22      1.0000 0.83910  0.50040  0.81960  Biso   1.000  C
  C23      1.0000 0.83910  0.99960  0.31960  Biso   1.000  C
  C24      1.0000 0.16090  0.49960  0.18040  Biso   1.000  C
  C25      1.0000 0.19116  0.71780  0.64720  Biso   1.000  C
  C26      1.0000 0.80884  0.21780  0.85280  Biso   1.000  C
  C27      1.0000 0.80884  0.28220  0.35280  Biso   1.000  C
  C28      1.0000 0.19116  0.78220  0.14720  Biso   1.000  C
  C29      1.0000 0.41376  0.75640  0.51770  Biso   1.000  C
  C30      1.0000 0.58624  0.25640  0.98230  Biso   1.000  C
  C31      1.0000 0.58624  0.24360  0.48230  Biso   1.000  C
  C32      1.0000 0.41376  0.74360  0.01770  Biso   1.000  C
  O53      1.0000 0.71685  0.66400  0.16610  Biso   1.000  O
  O54      1.0000 0.28315  0.16400  0.33390  Biso   1.000  O
  O55      1.0000 0.28315  0.33600  0.83390  Biso   1.000  O
  O56      1.0000 0.71685  0.83600  0.66610  Biso   1.000  O
  H33      1.0000 0.69020  0.63700  0.26000  Biso   1.000  H
  H34      1.0000 0.30980  0.13700  0.24000  Biso   1.000  H
  H35      1.0000 0.30980  0.36300  0.74000  Biso   1.000  H
  H36      1.0000 0.69020  0.86300  0.76000  Biso   1.000  H
  H37      1.0000 0.78070  0.64400  0.19000  Biso   1.000  H
  H38      1.0000 0.21930  0.14400  0.31000  Biso   1.000  H
  H39      1.0000 0.21930  0.35600  0.81000  Biso   1.000  H
  H40      1.0000 0.78070  0.85600  0.69000  Biso   1.000  H
