data_image0
_cell_length_a       18.416
_cell_length_b       7.5069
_cell_length_c       13.3548
_cell_angle_alpha    90
_cell_angle_beta     107.644
_cell_angle_gamma    90

_symmetry_space_group_name_H-M    "P 1"
_symmetry_int_tables_number       1

loop_
  _symmetry_equiv_pos_as_xyz
  'x, y, z'

loop_
  _atom_site_label
  _atom_site_occupancy
  _atom_site_fract_x
  _atom_site_fract_y
  _atom_site_fract_z
  _atom_site_thermal_displace_type
  _atom_site_B_iso_or_equiv
  _atom_site_type_symbol
  Cu1      1.0000 0.23842  0.69600  0.29271  Biso   1.000  Cu
  Cu2      1.0000 0.76158  0.19600  0.20729  Biso   1.000  Cu
  Cu3      1.0000 0.76158  0.30400  0.70729  Biso   1.000  Cu
  Cu4      1.0000 0.23842  0.80400  0.79271  Biso   1.000  Cu
  O1       1.0000 0.32108  0.60829  0.24917  Biso   1.000  O
  O2       1.0000 0.67892  0.10829  0.25083  Biso   1.000  O
  O3       1.0000 0.67892  0.39171  0.75083  Biso   1.000  O
  O4       1.0000 0.32108  0.89171  0.74917  Biso   1.000  O
  O5       1.0000 0.00530  0.66109  0.38069  Biso   1.000  O
  O6       1.0000 0.99470  0.16109  0.11931  Biso   1.000  O
  O7       1.0000 0.99470  0.33891  0.61931  Biso   1.000  O
  O8       1.0000 0.00530  0.83891  0.88069  Biso   1.000  O
  N1       1.0000 0.16999  0.51915  0.19364  Biso   1.000  N
  N2       1.0000 0.83001  0.01915  0.30636  Biso   1.000  N
  N3       1.0000 0.83001  0.48085  0.80636  Biso   1.000  N
  N4       1.0000 0.16999  0.98085  0.69364  Biso   1.000  N
  N5       1.0000 0.15301  0.75901  0.35888  Biso   1.000  N
  N6       1.0000 0.84699  0.25901  0.14112  Biso   1.000  N
  N7       1.0000 0.84699  0.24099  0.64112  Biso   1.000  N
  N8       1.0000 0.15301  0.74099  0.85888  Biso   1.000  N
  N9       1.0000 0.30642  0.78794  0.42260  Biso   1.000  N
  N10      1.0000 0.69358  0.28794  0.07740  Biso   1.000  N
  N11      1.0000 0.69358  0.21206  0.57740  Biso   1.000  N
  N12      1.0000 0.30642  0.71206  0.92260  Biso   1.000  N
  N13      1.0000 0.18499  0.23842  0.10783  Biso   1.000  N
  N14      1.0000 0.81501  0.73842  0.39217  Biso   1.000  N
  N15      1.0000 0.81501  0.76158  0.89217  Biso   1.000  N
  N16      1.0000 0.18499  0.26158  0.60783  Biso   1.000  N
  N17      1.0000 0.21387  0.94469  0.19278  Biso   1.000  N
  N18      1.0000 0.78613  0.44469  0.30722  Biso   1.000  N
  N19      1.0000 0.78613  0.05531  0.80722  Biso   1.000  N
  N20      1.0000 0.21387  0.55531  0.69278  Biso   1.000  N
  C1       1.0000 0.17865  0.38200  0.15799  Biso   1.000  C
  C2       1.0000 0.82135  0.88200  0.34201  Biso   1.000  C
  C3       1.0000 0.82135  0.61800  0.84201  Biso   1.000  C
  C4       1.0000 0.17865  0.11800  0.65799  Biso   1.000  C
  C5       1.0000 0.01466  0.82330  0.33048  Biso   1.000  C
  C6       1.0000 0.98534  0.32330  0.16952  Biso   1.000  C
  C7       1.0000 0.98534  0.17670  0.66952  Biso   1.000  C
  C8       1.0000 0.01466  0.67670  0.83048  Biso   1.000  C
  H1       1.0000 0.02586  0.92109  0.38270  Biso   1.000  H
  H2       1.0000 0.97414  0.42109  0.11730  Biso   1.000  H
  H3       1.0000 0.97414  0.07891  0.61730  Biso   1.000  H
  H4       1.0000 0.02586  0.57891  0.88270  Biso   1.000  H
  H5       1.0000 0.96656  0.85256  0.27530  Biso   1.000  H
  H6       1.0000 0.03344  0.35256  0.22470  Biso   1.000  H
  H7       1.0000 0.03344  0.14744  0.72470  Biso   1.000  H
  H8       1.0000 0.96656  0.64744  0.77530  Biso   1.000  H
  C9       1.0000 0.07901  0.80970  0.28122  Biso   1.000  C
  C10      1.0000 0.92099  0.30970  0.21878  Biso   1.000  C
  C11      1.0000 0.92099  0.19030  0.71878  Biso   1.000  C
  C12      1.0000 0.07901  0.69030  0.78122  Biso   1.000  C
  H9       1.0000 0.06531  0.71979  0.22431  Biso   1.000  H
  H10      1.0000 0.93469  0.21979  0.27569  Biso   1.000  H
  H11      1.0000 0.93469  0.28021  0.77569  Biso   1.000  H
  H12      1.0000 0.06531  0.78021  0.72431  Biso   1.000  H
  H13      1.0000 0.08491  0.92577  0.24942  Biso   1.000  H
  H14      1.0000 0.91509  0.42577  0.25058  Biso   1.000  H
  H15      1.0000 0.91509  0.07423  0.75058  Biso   1.000  H
  H16      1.0000 0.08491  0.57423  0.74942  Biso   1.000  H
  C13      1.0000 0.18683  0.90990  0.43022  Biso   1.000  C
  C14      1.0000 0.81317  0.40990  0.06978  Biso   1.000  C
  C15      1.0000 0.81317  0.09010  0.56978  Biso   1.000  C
  C16      1.0000 0.18683  0.59010  0.93022  Biso   1.000  C
  H17      1.0000 0.15581  0.93377  0.47769  Biso   1.000  H
  H18      1.0000 0.84419  0.43377  0.02231  Biso   1.000  H
  H19      1.0000 0.84419  0.06623  0.52231  Biso   1.000  H
  H20      1.0000 0.15581  0.56623  0.97769  Biso   1.000  H
  H21      1.0000 0.18683  0.01862  0.38827  Biso   1.000  H
  H22      1.0000 0.81317  0.51862  0.11173  Biso   1.000  H
  H23      1.0000 0.81317  0.98138  0.61173  Biso   1.000  H
  H24      1.0000 0.18683  0.48138  0.88827  Biso   1.000  H
  C17      1.0000 0.26787  0.86460  0.49463  Biso   1.000  C
  C18      1.0000 0.73213  0.36460  0.00537  Biso   1.000  C
  C19      1.0000 0.73213  0.13540  0.50537  Biso   1.000  C
  C20      1.0000 0.26787  0.63540  0.99463  Biso   1.000  C
  H25      1.0000 0.29483  0.97327  0.52845  Biso   1.000  H
  H26      1.0000 0.70517  0.47327  0.97155  Biso   1.000  H
  H27      1.0000 0.70517  0.02673  0.47155  Biso   1.000  H
  H28      1.0000 0.29483  0.52673  0.02845  Biso   1.000  H
  H29      1.0000 0.26759  0.77764  0.55024  Biso   1.000  H
  H30      1.0000 0.73241  0.27764  0.94976  Biso   1.000  H
  H31      1.0000 0.73241  0.22236  0.44976  Biso   1.000  H
  H32      1.0000 0.26759  0.72236  0.05024  Biso   1.000  H
  C21      1.0000 0.37991  0.77790  0.45364  Biso   1.000  C
  C22      1.0000 0.62009  0.27790  0.04636  Biso   1.000  C
  C23      1.0000 0.62009  0.22210  0.54636  Biso   1.000  C
  C24      1.0000 0.37991  0.72210  0.95364  Biso   1.000  C
  H33      1.0000 0.40545  0.82675  0.52071  Biso   1.000  H
  H34      1.0000 0.59455  0.32675  0.97929  Biso   1.000  H
  H35      1.0000 0.59455  0.17325  0.47929  Biso   1.000  H
  H36      1.0000 0.40545  0.67325  0.02071  Biso   1.000  H
  C25      1.0000 0.42668  0.70025  0.39668  Biso   1.000  C
  C26      1.0000 0.57332  0.20025  0.10332  Biso   1.000  C
  C27      1.0000 0.57332  0.29975  0.60332  Biso   1.000  C
  C28      1.0000 0.42668  0.79975  0.89668  Biso   1.000  C
  C29      1.0000 0.50895  0.69961  0.44316  Biso   1.000  C
  C30      1.0000 0.49105  0.19961  0.05684  Biso   1.000  C
  C31      1.0000 0.49105  0.30039  0.55684  Biso   1.000  C
  C32      1.0000 0.50895  0.80039  0.94316  Biso   1.000  C
  C33      1.0000 0.54725  0.78070  0.54076  Biso   1.000  C
  C34      1.0000 0.45275  0.28070  0.95924  Biso   1.000  C
  C35      1.0000 0.45275  0.21930  0.45924  Biso   1.000  C
  C36      1.0000 0.54725  0.71930  0.04076  Biso   1.000  C
  H37      1.0000 0.51831  0.84105  0.57831  Biso   1.000  H
  H38      1.0000 0.48169  0.34105  0.92169  Biso   1.000  H
  H39      1.0000 0.48169  0.15895  0.42169  Biso   1.000  H
  H40      1.0000 0.51831  0.65895  0.07831  Biso   1.000  H
  C37      1.0000 0.62538  0.77430  0.58249  Biso   1.000  C
  C38      1.0000 0.37462  0.27430  0.91751  Biso   1.000  C
  C39      1.0000 0.37462  0.22570  0.41751  Biso   1.000  C
  C40      1.0000 0.62538  0.72570  0.08249  Biso   1.000  C
  H41      1.0000 0.64928  0.82823  0.64864  Biso   1.000  H
  H42      1.0000 0.35072  0.32823  0.85136  Biso   1.000  H
  H43      1.0000 0.35072  0.17177  0.35136  Biso   1.000  H
  H44      1.0000 0.64928  0.67177  0.14864  Biso   1.000  H
  C41      1.0000 0.67013  0.68890  0.52838  Biso   1.000  C
  C42      1.0000 0.32987  0.18890  0.97162  Biso   1.000  C
  C43      1.0000 0.32987  0.31110  0.47162  Biso   1.000  C
  C44      1.0000 0.67013  0.81110  0.02838  Biso   1.000  C
  H45      1.0000 0.72403  0.68581  0.55724  Biso   1.000  H
  H46      1.0000 0.27597  0.18581  0.94276  Biso   1.000  H
  H47      1.0000 0.27597  0.31419  0.44276  Biso   1.000  H
  H48      1.0000 0.72403  0.81419  0.05724  Biso   1.000  H
  C45      1.0000 0.63519  0.61020  0.43370  Biso   1.000  C
  C46      1.0000 0.36481  0.11020  0.06630  Biso   1.000  C
  C47      1.0000 0.36481  0.38980  0.56630  Biso   1.000  C
  C48      1.0000 0.63519  0.88980  0.93370  Biso   1.000  C
  H49      1.0000 0.66533  0.55273  0.39681  Biso   1.000  H
  H50      1.0000 0.33467  0.05273  0.10319  Biso   1.000  H
  H51      1.0000 0.33467  0.44727  0.60319  Biso   1.000  H
  H52      1.0000 0.66533  0.94727  0.89681  Biso   1.000  H
  C49      1.0000 0.55508  0.61260  0.38966  Biso   1.000  C
  C50      1.0000 0.44492  0.11260  0.11034  Biso   1.000  C
  C51      1.0000 0.44492  0.38740  0.61034  Biso   1.000  C
  C52      1.0000 0.55508  0.88740  0.88966  Biso   1.000  C
  C53      1.0000 0.51935  0.52650  0.29220  Biso   1.000  C
  C54      1.0000 0.48065  0.02650  0.20780  Biso   1.000  C
  C55      1.0000 0.48065  0.47350  0.70780  Biso   1.000  C
  C56      1.0000 0.51935  0.97350  0.79220  Biso   1.000  C
  H53      1.0000 0.55000  0.46705  0.25683  Biso   1.000  H
  H54      1.0000 0.45000  0.96705  0.24317  Biso   1.000  H
  H55      1.0000 0.45000  0.53295  0.74317  Biso   1.000  H
  H56      1.0000 0.55000  0.03295  0.75683  Biso   1.000  H
  C57      1.0000 0.44255  0.52740  0.24862  Biso   1.000  C
  C58      1.0000 0.55745  0.02740  0.25138  Biso   1.000  C
  C59      1.0000 0.55745  0.47260  0.75138  Biso   1.000  C
  C60      1.0000 0.44255  0.97260  0.74862  Biso   1.000  C
  H57      1.0000 0.42071  0.46842  0.18349  Biso   1.000  H
  H58      1.0000 0.57929  0.96842  0.31651  Biso   1.000  H
  H59      1.0000 0.57929  0.53158  0.81651  Biso   1.000  H
  H60      1.0000 0.42071  0.03158  0.68349  Biso   1.000  H
  C61      1.0000 0.39334  0.61550  0.29858  Biso   1.000  C
  C62      1.0000 0.60666  0.11550  0.20142  Biso   1.000  C
  C63      1.0000 0.60666  0.38450  0.70142  Biso   1.000  C
  C64      1.0000 0.39334  0.88450  0.79858  Biso   1.000  C
  C65      1.0000 0.14004  0.59810  0.41664  Biso   1.000  C
  C66      1.0000 0.85996  0.09810  0.08336  Biso   1.000  C
  C67      1.0000 0.85996  0.40190  0.58336  Biso   1.000  C
  C68      1.0000 0.14004  0.90190  0.91664  Biso   1.000  C
  H61      1.0000 0.18710  0.57180  0.47442  Biso   1.000  H
  H62      1.0000 0.81290  0.07180  0.02558  Biso   1.000  H
  H63      1.0000 0.81290  0.42820  0.52558  Biso   1.000  H
  H64      1.0000 0.18710  0.92820  0.97442  Biso   1.000  H
  H65      1.0000 0.12957  0.49496  0.36814  Biso   1.000  H
  H66      1.0000 0.87043  0.99496  0.13186  Biso   1.000  H
  H67      1.0000 0.87043  0.50504  0.63186  Biso   1.000  H
  H68      1.0000 0.12957  0.00504  0.86814  Biso   1.000  H
  C69      1.0000 0.07417  0.61990  0.46223  Biso   1.000  C
  C70      1.0000 0.92583  0.11990  0.03777  Biso   1.000  C
  C71      1.0000 0.92583  0.38010  0.53777  Biso   1.000  C
  C72      1.0000 0.07417  0.88010  0.96223  Biso   1.000  C
  H69      1.0000 0.06728  0.50836  0.49787  Biso   1.000  H
  H70      1.0000 0.93272  0.00836  0.00213  Biso   1.000  H
  H71      1.0000 0.93272  0.49164  0.50213  Biso   1.000  H
  H72      1.0000 0.06728  0.99164  0.99787  Biso   1.000  H
  H73      1.0000 0.08593  0.71674  0.51504  Biso   1.000  H
  H74      1.0000 0.91407  0.21674  0.98496  Biso   1.000  H
  H75      1.0000 0.91407  0.28326  0.48496  Biso   1.000  H
  H76      1.0000 0.08593  0.78326  0.01504  Biso   1.000  H
  C73      1.0000 0.20053  0.08610  0.15819  Biso   1.000  C
  C74      1.0000 0.79947  0.58610  0.34181  Biso   1.000  C
  C75      1.0000 0.79947  0.91390  0.84181  Biso   1.000  C
  C76      1.0000 0.20053  0.41390  0.65819  Biso   1.000  C
