data_image0
_cell_length_a       16.56
_cell_length_b       7.49
_cell_length_c       11.947
_cell_angle_alpha    90
_cell_angle_beta     124.4
_cell_angle_gamma    90

_symmetry_space_group_name_H-M    "P 1"
_symmetry_int_tables_number       1

loop_
  _symmetry_equiv_pos_as_xyz
  'x, y, z'

loop_
  _atom_site_label
  _atom_site_occupancy
  _atom_site_fract_x
  _atom_site_fract_y
  _atom_site_fract_z
  _atom_site_thermal_displace_type
  _atom_site_B_iso_or_equiv
  _atom_site_type_symbol
  Cu1      1.0000 0.50000  0.45800  0.00000  Biso   1.000  Cu
  Cu2      1.0000 0.00000  0.95800  0.00000  Biso   1.000  Cu
  S1       1.0000 0.82640  0.46300  0.39760  Biso   1.000  S
  S2       1.0000 0.17360  0.46300  0.60240  Biso   1.000  S
  S3       1.0000 0.32640  0.96300  0.39760  Biso   1.000  S
  S4       1.0000 0.67360  0.96300  0.60240  Biso   1.000  S
  F1       1.0000 0.41530  0.39400  0.35680  Biso   1.000  F
  F2       1.0000 0.58470  0.39400  0.64320  Biso   1.000  F
  F3       1.0000 0.91530  0.89400  0.35680  Biso   1.000  F
  F4       1.0000 0.08470  0.89400  0.64320  Biso   1.000  F
  F5       1.0000 0.33300  0.60900  0.19000  Biso   1.000  F
  F6       1.0000 0.66700  0.60900  0.81000  Biso   1.000  F
  F7       1.0000 0.83300  0.10900  0.19000  Biso   1.000  F
  F8       1.0000 0.16700  0.10900  0.81000  Biso   1.000  F
  F9       1.0000 0.31480  0.33600  0.16200  Biso   1.000  F
  F10      1.0000 0.68520  0.33600  0.83800  Biso   1.000  F
  F11      1.0000 0.81480  0.83600  0.16200  Biso   1.000  F
  F12      1.0000 0.18520  0.83600  0.83800  Biso   1.000  F
  O1       1.0000 0.62430  0.46200  0.18080  Biso   1.000  O
  O2       1.0000 0.37570  0.46200  0.81920  Biso   1.000  O
  O3       1.0000 0.12430  0.96200  0.18080  Biso   1.000  O
  O4       1.0000 0.87570  0.96200  0.81920  Biso   1.000  O
  O5       1.0000 0.42230  0.45900  0.07550  Biso   1.000  O
  O6       1.0000 0.57770  0.45900  0.92450  Biso   1.000  O
  O7       1.0000 0.92230  0.95900  0.07550  Biso   1.000  O
  O8       1.0000 0.07770  0.95900  0.92450  Biso   1.000  O
  N1       1.0000 0.50000  0.14600  0.00000  Biso   1.000  N
  N2       1.0000 0.00000  0.64600  0.00000  Biso   1.000  N
  N3       1.0000 0.50000  0.78000  0.00000  Biso   1.000  N
  N4       1.0000 0.00000  0.28000  0.00000  Biso   1.000  N
  C1       1.0000 0.90800  0.47000  0.55800  Biso   1.000  C
  C2       1.0000 0.09200  0.47000  0.44200  Biso   1.000  C
  C3       1.0000 0.40800  0.97000  0.55800  Biso   1.000  C
  C4       1.0000 0.59200  0.97000  0.44200  Biso   1.000  C
  C5       1.0000 0.87300  0.43400  0.63100  Biso   1.000  C
  C6       1.0000 0.12700  0.43400  0.36900  Biso   1.000  C
  C7       1.0000 0.37300  0.93400  0.63100  Biso   1.000  C
  C8       1.0000 0.62700  0.93400  0.36900  Biso   1.000  C
  C9       1.0000 0.76820  0.44100  0.56560  Biso   1.000  C
  C10      1.0000 0.23180  0.44100  0.43440  Biso   1.000  C
  C11      1.0000 0.26820  0.94100  0.56560  Biso   1.000  C
  C12      1.0000 0.73180  0.94100  0.43440  Biso   1.000  C
  C13      1.0000 0.73440  0.46800  0.41530  Biso   1.000  C
  C14      1.0000 0.26560  0.46800  0.58470  Biso   1.000  C
  C15      1.0000 0.23440  0.96800  0.41530  Biso   1.000  C
  C16      1.0000 0.76560  0.96800  0.58470  Biso   1.000  C
  C17      1.0000 0.63500  0.48100  0.29370  Biso   1.000  C
  C18      1.0000 0.36500  0.48100  0.70630  Biso   1.000  C
  C19      1.0000 0.13500  0.98100  0.29370  Biso   1.000  C
  C20      1.0000 0.86500  0.98100  0.70630  Biso   1.000  C
  C21      1.0000 0.55610  0.46000  0.31000  Biso   1.000  C
  C22      1.0000 0.44390  0.46000  0.69000  Biso   1.000  C
  C23      1.0000 0.05610  0.96000  0.31000  Biso   1.000  C
  C24      1.0000 0.94390  0.96000  0.69000  Biso   1.000  C
  C25      1.0000 0.45940  0.45200  0.20120  Biso   1.000  C
  C26      1.0000 0.54060  0.45200  0.79880  Biso   1.000  C
  C27      1.0000 0.95940  0.95200  0.20120  Biso   1.000  C
  C28      1.0000 0.04060  0.95200  0.79880  Biso   1.000  C
  C29      1.0000 0.37990  0.44200  0.22800  Biso   1.000  C
  C30      1.0000 0.62010  0.44200  0.77200  Biso   1.000  C
  C31      1.0000 0.87990  0.94200  0.22800  Biso   1.000  C
  C32      1.0000 0.12010  0.94200  0.77200  Biso   1.000  C
  C33      1.0000 0.43200  0.05300  0.98300  Biso   1.000  C
  C34      1.0000 0.56800  0.05300  0.01700  Biso   1.000  C
  C35      1.0000 0.93200  0.55300  0.98300  Biso   1.000  C
  C36      1.0000 0.06800  0.55300  0.01700  Biso   1.000  C
  C37      1.0000 0.42020  0.86400  0.97500  Biso   1.000  C
  C38      1.0000 0.57980  0.86400  0.02500  Biso   1.000  C
  C39      1.0000 0.92020  0.36400  0.97500  Biso   1.000  C
  C40      1.0000 0.07980  0.36400  0.02500  Biso   1.000  C
