data_image0
_cell_length_a       10.2656
_cell_length_b       18.1161
_cell_length_c       10.3473
_cell_angle_alpha    90
_cell_angle_beta     90.528
_cell_angle_gamma    90

_symmetry_space_group_name_H-M    "P 1"
_symmetry_int_tables_number       1

loop_
  _symmetry_equiv_pos_as_xyz
  'x, y, z'

loop_
  _atom_site_label
  _atom_site_occupancy
  _atom_site_fract_x
  _atom_site_fract_y
  _atom_site_fract_z
  _atom_site_thermal_displace_type
  _atom_site_B_iso_or_equiv
  _atom_site_type_symbol
  Cu1      1.0000 0.77527  0.05646  0.29713  Biso   1.000  Cu
  Cu2      1.0000 0.22473  0.55646  0.20287  Biso   1.000  Cu
  Cu3      1.0000 0.22473  0.94354  0.70287  Biso   1.000  Cu
  Cu4      1.0000 0.77527  0.44354  0.79713  Biso   1.000  Cu
  Cu5      1.0000 0.00000  0.00000  0.50000  Biso   1.000  Cu
  Cu6      1.0000 0.00000  0.50000  0.00000  Biso   1.000  Cu
  C1       1.0000 0.60890  0.18430  0.22010  Biso   1.000  C
  C2       1.0000 0.39110  0.68430  0.27990  Biso   1.000  C
  C3       1.0000 0.39110  0.81570  0.77990  Biso   1.000  C
  C4       1.0000 0.60890  0.31570  0.72010  Biso   1.000  C
  H1       1.0000 0.67950  0.19360  0.16360  Biso   1.000  H
  H2       1.0000 0.32050  0.69360  0.33640  Biso   1.000  H
  H3       1.0000 0.32050  0.80640  0.83640  Biso   1.000  H
  H4       1.0000 0.67950  0.30640  0.66360  Biso   1.000  H
  C5       1.0000 0.49870  0.22790  0.21080  Biso   1.000  C
  C6       1.0000 0.50130  0.72790  0.28920  Biso   1.000  C
  C7       1.0000 0.50130  0.77210  0.78920  Biso   1.000  C
  C8       1.0000 0.49870  0.27210  0.71080  Biso   1.000  C
  H5       1.0000 0.49360  0.26700  0.14970  Biso   1.000  H
  H6       1.0000 0.50640  0.76700  0.35030  Biso   1.000  H
  H7       1.0000 0.50640  0.73300  0.85030  Biso   1.000  H
  H8       1.0000 0.49360  0.23300  0.64970  Biso   1.000  H
  C9       1.0000 0.39640  0.21340  0.29240  Biso   1.000  C
  C10      1.0000 0.60360  0.71340  0.20760  Biso   1.000  C
  C11      1.0000 0.60360  0.78660  0.70760  Biso   1.000  C
  C12      1.0000 0.39640  0.28660  0.79240  Biso   1.000  C
  H9       1.0000 0.31830  0.24130  0.28660  Biso   1.000  H
  H10      1.0000 0.68170  0.74130  0.21340  Biso   1.000  H
  H11      1.0000 0.68170  0.75870  0.71340  Biso   1.000  H
  H12      1.0000 0.31830  0.25870  0.78660  Biso   1.000  H
  C13      1.0000 0.40930  0.15680  0.38380  Biso   1.000  C
  C14      1.0000 0.59070  0.65680  0.11620  Biso   1.000  C
  C15      1.0000 0.59070  0.84320  0.61620  Biso   1.000  C
  C16      1.0000 0.40930  0.34320  0.88380  Biso   1.000  C
  H13      1.0000 0.34060  0.14700  0.44230  Biso   1.000  H
  H14      1.0000 0.65940  0.64700  0.05770  Biso   1.000  H
  H15      1.0000 0.65940  0.85300  0.55770  Biso   1.000  H
  H16      1.0000 0.34060  0.35300  0.94230  Biso   1.000  H
  C17      1.0000 0.52140  0.11540  0.38880  Biso   1.000  C
  C18      1.0000 0.47860  0.61540  0.11120  Biso   1.000  C
  C19      1.0000 0.47860  0.88460  0.61120  Biso   1.000  C
  C20      1.0000 0.52140  0.38460  0.88880  Biso   1.000  C
  C21      1.0000 0.54830  0.05290  0.48210  Biso   1.000  C
  C22      1.0000 0.45170  0.55290  0.01790  Biso   1.000  C
  C23      1.0000 0.45170  0.94710  0.51790  Biso   1.000  C
  C24      1.0000 0.54830  0.44710  0.98210  Biso   1.000  C
  H17      1.0000 0.62770  0.06480  0.53490  Biso   1.000  H
  H18      1.0000 0.37230  0.56480  0.96510  Biso   1.000  H
  H19      1.0000 0.37230  0.93520  0.46510  Biso   1.000  H
  H20      1.0000 0.62770  0.43520  0.03490  Biso   1.000  H
  C25      1.0000 0.56020  0.97180  0.42850  Biso   1.000  C
  C26      1.0000 0.43980  0.47180  0.07150  Biso   1.000  C
  C27      1.0000 0.43980  0.02820  0.57150  Biso   1.000  C
  C28      1.0000 0.56020  0.52820  0.92850  Biso   1.000  C
  H21      1.0000 0.64380  0.95040  0.46160  Biso   1.000  H
  H22      1.0000 0.35620  0.45040  0.03840  Biso   1.000  H
  H23      1.0000 0.35620  0.04960  0.53840  Biso   1.000  H
  H24      1.0000 0.64380  0.54960  0.96160  Biso   1.000  H
  C29      1.0000 0.55070  0.95590  0.28380  Biso   1.000  C
  C30      1.0000 0.44930  0.45590  0.21620  Biso   1.000  C
  C31      1.0000 0.44930  0.04410  0.71620  Biso   1.000  C
  C32      1.0000 0.55070  0.54410  0.78380  Biso   1.000  C
  C33      1.0000 0.45780  0.91160  0.22840  Biso   1.000  C
  C34      1.0000 0.54220  0.41160  0.27160  Biso   1.000  C
  C35      1.0000 0.54220  0.08840  0.77160  Biso   1.000  C
  C36      1.0000 0.45780  0.58840  0.72840  Biso   1.000  C
  H25      1.0000 0.38620  0.89460  0.27760  Biso   1.000  H
  H26      1.0000 0.61380  0.39460  0.22240  Biso   1.000  H
  H27      1.0000 0.61380  0.10540  0.72240  Biso   1.000  H
  H28      1.0000 0.38620  0.60540  0.77760  Biso   1.000  H
  C37      1.0000 0.46930  0.89170  0.09810  Biso   1.000  C
  C38      1.0000 0.53070  0.39170  0.40190  Biso   1.000  C
  C39      1.0000 0.53070  0.10830  0.90190  Biso   1.000  C
  C40      1.0000 0.46930  0.60830  0.59810  Biso   1.000  C
  H29      1.0000 0.40630  0.86090  0.05750  Biso   1.000  H
  H30      1.0000 0.59370  0.36090  0.44250  Biso   1.000  H
  H31      1.0000 0.59370  0.13910  0.94250  Biso   1.000  H
  H32      1.0000 0.40630  0.63910  0.55750  Biso   1.000  H
  C41      1.0000 0.57350  0.91770  0.03150  Biso   1.000  C
  C42      1.0000 0.42650  0.41770  0.46850  Biso   1.000  C
  C43      1.0000 0.42650  0.08230  0.96850  Biso   1.000  C
  C44      1.0000 0.57350  0.58230  0.53150  Biso   1.000  C
  H33      1.0000 0.58590  0.90320  0.94430  Biso   1.000  H
  H34      1.0000 0.41410  0.40320  0.55570  Biso   1.000  H
  H35      1.0000 0.41410  0.09680  0.05570  Biso   1.000  H
  H36      1.0000 0.58590  0.59680  0.44430  Biso   1.000  H
  C45      1.0000 0.66010  0.96450  0.08970  Biso   1.000  C
  C46      1.0000 0.33990  0.46450  0.41030  Biso   1.000  C
  C47      1.0000 0.33990  0.03550  0.91030  Biso   1.000  C
  C48      1.0000 0.66010  0.53550  0.58970  Biso   1.000  C
  H37      1.0000 0.73020  0.98360  0.04060  Biso   1.000  H
  H38      1.0000 0.26980  0.48360  0.45940  Biso   1.000  H
  H39      1.0000 0.26980  0.01640  0.95940  Biso   1.000  H
  H40      1.0000 0.73020  0.51640  0.54060  Biso   1.000  H
  N1       1.0000 0.61930  0.12880  0.30710  Biso   1.000  N
  N2       1.0000 0.38070  0.62880  0.19290  Biso   1.000  N
  N3       1.0000 0.38070  0.87120  0.69290  Biso   1.000  N
  N4       1.0000 0.61930  0.37120  0.80710  Biso   1.000  N
  N5       1.0000 0.64920  0.98460  0.21440  Biso   1.000  N
  N6       1.0000 0.35080  0.48460  0.28560  Biso   1.000  N
  N7       1.0000 0.35080  0.01540  0.78560  Biso   1.000  N
  N8       1.0000 0.64920  0.51540  0.71440  Biso   1.000  N
  N9       1.0000 0.89000  0.11860  0.40910  Biso   1.000  N
  N10      1.0000 0.11000  0.61860  0.09090  Biso   1.000  N
  N11      1.0000 0.11000  0.88140  0.59090  Biso   1.000  N
  N12      1.0000 0.89000  0.38140  0.90910  Biso   1.000  N
  N13      1.0000 0.83750  0.15540  0.48990  Biso   1.000  N
  N14      1.0000 0.16250  0.65540  0.01010  Biso   1.000  N
  N15      1.0000 0.16250  0.84460  0.51010  Biso   1.000  N
  N16      1.0000 0.83750  0.34460  0.98990  Biso   1.000  N
  N17      1.0000 0.79060  0.19190  0.56740  Biso   1.000  N
  N18      1.0000 0.20940  0.69190  0.93260  Biso   1.000  N
  N19      1.0000 0.20940  0.80810  0.43260  Biso   1.000  N
  N20      1.0000 0.79060  0.30810  0.06740  Biso   1.000  N
  N21      1.0000 0.90070  0.97070  0.33410  Biso   1.000  N
  N22      1.0000 0.09930  0.47070  0.16590  Biso   1.000  N
  N23      1.0000 0.09930  0.02930  0.66590  Biso   1.000  N
  N24      1.0000 0.90070  0.52930  0.83410  Biso   1.000  N
  N25      1.0000 0.85500  0.90840  0.33390  Biso   1.000  N
  N26      1.0000 0.14500  0.40840  0.16610  Biso   1.000  N
  N27      1.0000 0.14500  0.09160  0.66610  Biso   1.000  N
  N28      1.0000 0.85500  0.59160  0.83390  Biso   1.000  N
  N29      1.0000 0.81400  0.84940  0.33280  Biso   1.000  N
  N30      1.0000 0.18600  0.34940  0.16720  Biso   1.000  N
  N31      1.0000 0.18600  0.15060  0.66720  Biso   1.000  N
  N32      1.0000 0.81400  0.65060  0.83280  Biso   1.000  N
  N33      1.0000 0.16370  0.01710  0.40800  Biso   1.000  N
  N34      1.0000 0.83630  0.51710  0.09200  Biso   1.000  N
  N35      1.0000 0.83630  0.98290  0.59200  Biso   1.000  N
  N36      1.0000 0.16370  0.48290  0.90800  Biso   1.000  N
  N37      1.0000 0.17400  0.03050  0.29510  Biso   1.000  N
  N38      1.0000 0.82600  0.53050  0.20490  Biso   1.000  N
  N39      1.0000 0.82600  0.96950  0.70490  Biso   1.000  N
  N40      1.0000 0.17400  0.46950  0.79510  Biso   1.000  N
  N41      1.0000 0.19270  0.04350  0.18820  Biso   1.000  N
  N42      1.0000 0.80730  0.54350  0.31180  Biso   1.000  N
  N43      1.0000 0.80730  0.95650  0.81180  Biso   1.000  N
  N44      1.0000 0.19270  0.45650  0.68820  Biso   1.000  N
  O1       1.0000 0.83800  0.09870  0.11140  Biso   1.000  O
  O2       1.0000 0.16200  0.59870  0.38860  Biso   1.000  O
  O3       1.0000 0.16200  0.90130  0.88860  Biso   1.000  O
  O4       1.0000 0.83800  0.40130  0.61140  Biso   1.000  O
  C49      1.0000 0.94200  0.13330  0.10010  Biso   1.000  C
  C50      1.0000 0.05800  0.63330  0.39990  Biso   1.000  C
  C51      1.0000 0.05800  0.86670  0.89990  Biso   1.000  C
  C52      1.0000 0.94200  0.36670  0.60010  Biso   1.000  C
  H41      1.0000 0.99570  0.13930  0.17470  Biso   1.000  H
  H42      1.0000 0.00430  0.63930  0.32530  Biso   1.000  H
  H43      1.0000 0.00430  0.86070  0.82530  Biso   1.000  H
  H44      1.0000 0.99570  0.36070  0.67470  Biso   1.000  H
  N45      1.0000 0.98180  0.16190  0.99020  Biso   1.000  N
  N46      1.0000 0.01820  0.66190  0.50980  Biso   1.000  N
  N47      1.0000 0.01820  0.83810  0.00980  Biso   1.000  N
  N48      1.0000 0.98180  0.33810  0.49020  Biso   1.000  N
  C53      1.0000 0.10320  0.20440  0.98330  Biso   1.000  C
  C54      1.0000 0.89680  0.70440  0.51670  Biso   1.000  C
  C55      1.0000 0.89680  0.79560  0.01670  Biso   1.000  C
  C56      1.0000 0.10320  0.29560  0.48330  Biso   1.000  C
  H45      1.0000 0.11620  0.22140  0.89440  Biso   1.000  H
  H46      1.0000 0.88380  0.72140  0.60560  Biso   1.000  H
  H47      1.0000 0.88380  0.77860  0.10560  Biso   1.000  H
  H48      1.0000 0.11620  0.27860  0.39440  Biso   1.000  H
  H49      1.0000 0.17660  0.17300  0.00960  Biso   1.000  H
  H50      1.0000 0.82340  0.67300  0.49040  Biso   1.000  H
  H51      1.0000 0.82340  0.82700  0.99040  Biso   1.000  H
  H52      1.0000 0.17660  0.32700  0.50960  Biso   1.000  H
  H53      1.0000 0.09810  0.24710  0.04120  Biso   1.000  H
  H54      1.0000 0.90190  0.74710  0.45880  Biso   1.000  H
  H55      1.0000 0.90190  0.75290  0.95880  Biso   1.000  H
  H56      1.0000 0.09810  0.25290  0.54120  Biso   1.000  H
  C57      1.0000 0.90460  0.15450  0.87520  Biso   1.000  C
  C58      1.0000 0.09540  0.65450  0.62480  Biso   1.000  C
  C59      1.0000 0.09540  0.84550  0.12480  Biso   1.000  C
  C60      1.0000 0.90460  0.34550  0.37520  Biso   1.000  C
  H57      1.0000 0.94830  0.17920  0.80340  Biso   1.000  H
  H58      1.0000 0.05170  0.67920  0.69660  Biso   1.000  H
  H59      1.0000 0.05170  0.82080  0.19660  Biso   1.000  H
  H60      1.0000 0.94830  0.32080  0.30340  Biso   1.000  H
  H61      1.0000 0.81910  0.17710  0.88860  Biso   1.000  H
  H62      1.0000 0.18090  0.67710  0.61140  Biso   1.000  H
  H63      1.0000 0.18090  0.82290  0.11140  Biso   1.000  H
  H64      1.0000 0.81910  0.32290  0.38860  Biso   1.000  H
  H65      1.0000 0.89350  0.10210  0.85480  Biso   1.000  H
  H66      1.0000 0.10650  0.60210  0.64520  Biso   1.000  H
  H67      1.0000 0.10650  0.89790  0.14520  Biso   1.000  H
  H68      1.0000 0.89350  0.39790  0.35480  Biso   1.000  H
