data_image0
_cell_length_a       12.104
_cell_length_b       11.14
_cell_length_c       3.752
_cell_angle_alpha    90
_cell_angle_beta     90
_cell_angle_gamma    90

_symmetry_space_group_name_H-M    "P 1"
_symmetry_int_tables_number       1

loop_
  _symmetry_equiv_pos_as_xyz
  'x, y, z'

loop_
  _atom_site_label
  _atom_site_occupancy
  _atom_site_fract_x
  _atom_site_fract_y
  _atom_site_fract_z
  _atom_site_thermal_displace_type
  _atom_site_B_iso_or_equiv
  _atom_site_type_symbol
  Cu1      1.0000 0.00000  0.00000  0.00000  Biso   1.000  Cu
  Cu2      1.0000 0.50000  0.50000  0.00000  Biso   1.000  Cu
  Cl1      1.0000 0.15010  0.00000  0.39600  Biso   1.000  Cl
  Cl2      1.0000 0.84990  0.00000  0.39600  Biso   1.000  Cl
  Cl3      1.0000 0.15010  0.00000  0.60400  Biso   1.000  Cl
  Cl4      1.0000 0.84990  0.00000  0.60400  Biso   1.000  Cl
  Cl5      1.0000 0.65010  0.50000  0.39600  Biso   1.000  Cl
  Cl6      1.0000 0.34990  0.50000  0.39600  Biso   1.000  Cl
  Cl7      1.0000 0.65010  0.50000  0.60400  Biso   1.000  Cl
  Cl8      1.0000 0.34990  0.50000  0.60400  Biso   1.000  Cl
  N1       1.0000 0.00000  0.18410  0.00000  Biso   1.000  N
  N2       1.0000 0.00000  0.81590  0.00000  Biso   1.000  N
  N3       1.0000 0.50000  0.68410  0.00000  Biso   1.000  N
  N4       1.0000 0.50000  0.31590  0.00000  Biso   1.000  N
  C1       1.0000 0.09873  0.24600  0.00000  Biso   1.000  C
  C2       1.0000 0.90127  0.75400  0.00000  Biso   1.000  C
  C3       1.0000 0.09873  0.75400  0.00000  Biso   1.000  C
  C4       1.0000 0.90127  0.24600  0.00000  Biso   1.000  C
  C5       1.0000 0.59873  0.74600  0.00000  Biso   1.000  C
  C6       1.0000 0.40127  0.25400  0.00000  Biso   1.000  C
  C7       1.0000 0.59873  0.25400  0.00000  Biso   1.000  C
  C8       1.0000 0.40127  0.74600  0.00000  Biso   1.000  C
  C9       1.0000 0.09862  0.37000  0.00000  Biso   1.000  C
  C10      1.0000 0.90138  0.63000  0.00000  Biso   1.000  C
  C11      1.0000 0.09862  0.63000  0.00000  Biso   1.000  C
  C12      1.0000 0.90138  0.37000  0.00000  Biso   1.000  C
  C13      1.0000 0.59862  0.87000  0.00000  Biso   1.000  C
  C14      1.0000 0.40138  0.13000  0.00000  Biso   1.000  C
  C15      1.0000 0.59862  0.13000  0.00000  Biso   1.000  C
  C16      1.0000 0.40138  0.87000  0.00000  Biso   1.000  C
  C17      1.0000 0.00000  0.43270  0.00000  Biso   1.000  C
  C18      1.0000 0.00000  0.56730  0.00000  Biso   1.000  C
  C19      1.0000 0.50000  0.93270  0.00000  Biso   1.000  C
  C20      1.0000 0.50000  0.06730  0.00000  Biso   1.000  C
