data_image0
_cell_length_a       12.111
_cell_length_b       11.117
_cell_length_c       3.754
_cell_angle_alpha    90
_cell_angle_beta     90
_cell_angle_gamma    92.08

_symmetry_space_group_name_H-M    "P 1"
_symmetry_int_tables_number       1

loop_
  _symmetry_equiv_pos_as_xyz
  'x, y, z'

loop_
  _atom_site_label
  _atom_site_occupancy
  _atom_site_fract_x
  _atom_site_fract_y
  _atom_site_fract_z
  _atom_site_thermal_displace_type
  _atom_site_B_iso_or_equiv
  _atom_site_type_symbol
  Cu1      1.0000 0.00000  0.00000  0.00000  Biso   1.000  Cu
  Cu2      1.0000 0.50000  0.00000  0.50000  Biso   1.000  Cu
  Cl1      1.0000 0.15070  0.00610  0.38400  Biso   1.000  Cl
  Cl2      1.0000 0.84930  0.99390  0.38400  Biso   1.000  Cl
  Cl3      1.0000 0.65070  0.00610  0.88400  Biso   1.000  Cl
  Cl4      1.0000 0.34930  0.99390  0.88400  Biso   1.000  Cl
  Cl5      1.0000 0.84930  0.99390  0.61600  Biso   1.000  Cl
  Cl6      1.0000 0.15070  0.00610  0.61600  Biso   1.000  Cl
  Cl7      1.0000 0.34930  0.99390  0.11600  Biso   1.000  Cl
  Cl8      1.0000 0.65070  0.00610  0.11600  Biso   1.000  Cl
  N1       1.0000 0.00200  0.18530  0.00000  Biso   1.000  N
  N2       1.0000 0.99800  0.81470  0.00000  Biso   1.000  N
  N3       1.0000 0.50200  0.18530  0.50000  Biso   1.000  N
  N4       1.0000 0.49800  0.81470  0.50000  Biso   1.000  N
  C1       1.0000 0.09500  0.25400  0.08900  Biso   1.000  C
  C2       1.0000 0.90500  0.74600  0.08900  Biso   1.000  C
  C3       1.0000 0.59500  0.25400  0.58900  Biso   1.000  C
  C4       1.0000 0.40500  0.74600  0.58900  Biso   1.000  C
  C5       1.0000 0.90500  0.74600  0.91100  Biso   1.000  C
  C6       1.0000 0.09500  0.25400  0.91100  Biso   1.000  C
  C7       1.0000 0.40500  0.74600  0.41100  Biso   1.000  C
  C8       1.0000 0.59500  0.25400  0.41100  Biso   1.000  C
  C9       1.0000 0.09100  0.37800  0.10100  Biso   1.000  C
  C10      1.0000 0.90900  0.62200  0.10100  Biso   1.000  C
  C11      1.0000 0.59100  0.37800  0.60100  Biso   1.000  C
  C12      1.0000 0.40900  0.62200  0.60100  Biso   1.000  C
  C13      1.0000 0.90900  0.62200  0.89900  Biso   1.000  C
  C14      1.0000 0.09100  0.37800  0.89900  Biso   1.000  C
  C15      1.0000 0.40900  0.62200  0.39900  Biso   1.000  C
  C16      1.0000 0.59100  0.37800  0.39900  Biso   1.000  C
  C17      1.0000 0.99500  0.43320  0.00000  Biso   1.000  C
  C18      1.0000 0.00500  0.56680  0.00000  Biso   1.000  C
  C19      1.0000 0.49500  0.43320  0.50000  Biso   1.000  C
  C20      1.0000 0.50500  0.56680  0.50000  Biso   1.000  C
  C21      1.0000 0.90300  0.36400  0.90500  Biso   1.000  C
  C22      1.0000 0.09700  0.63600  0.90500  Biso   1.000  C
  C23      1.0000 0.40300  0.36400  0.40500  Biso   1.000  C
  C24      1.0000 0.59700  0.63600  0.40500  Biso   1.000  C
  C25      1.0000 0.09700  0.63600  0.09500  Biso   1.000  C
  C26      1.0000 0.90300  0.36400  0.09500  Biso   1.000  C
  C27      1.0000 0.59700  0.63600  0.59500  Biso   1.000  C
  C28      1.0000 0.40300  0.36400  0.59500  Biso   1.000  C
  C29      1.0000 0.90500  0.24000  0.91600  Biso   1.000  C
  C30      1.0000 0.09500  0.76000  0.91600  Biso   1.000  C
  C31      1.0000 0.40500  0.24000  0.41600  Biso   1.000  C
  C32      1.0000 0.59500  0.76000  0.41600  Biso   1.000  C
  C33      1.0000 0.09500  0.76000  0.08400  Biso   1.000  C
  C34      1.0000 0.90500  0.24000  0.08400  Biso   1.000  C
  C35      1.0000 0.59500  0.76000  0.58400  Biso   1.000  C
  C36      1.0000 0.40500  0.24000  0.58400  Biso   1.000  C
