data_image0
_cell_length_a       12.291
_cell_length_b       11.1302
_cell_length_c       3.9747
_cell_angle_alpha    90
_cell_angle_beta     99.653
_cell_angle_gamma    90

_symmetry_space_group_name_H-M    "P 1"
_symmetry_int_tables_number       1

loop_
  _symmetry_equiv_pos_as_xyz
  'x, y, z'

loop_
  _atom_site_label
  _atom_site_occupancy
  _atom_site_fract_x
  _atom_site_fract_y
  _atom_site_fract_z
  _atom_site_thermal_displace_type
  _atom_site_B_iso_or_equiv
  _atom_site_type_symbol
  Cu1      1.0000 0.00000  0.00000  0.00000  Biso   1.000  Cu
  Cu2      1.0000 0.50000  0.50000  0.00000  Biso   1.000  Cu
  Br1      1.0000 0.16190  0.00000  0.44970  Biso   1.000  Br
  Br2      1.0000 0.83810  0.00000  0.55030  Biso   1.000  Br
  Br3      1.0000 0.66190  0.50000  0.44970  Biso   1.000  Br
  Br4      1.0000 0.33810  0.50000  0.55030  Biso   1.000  Br
  N1       1.0000 0.00000  0.18670  0.00000  Biso   1.000  N
  N2       1.0000 0.50000  0.68670  0.00000  Biso   1.000  N
  N3       1.0000 0.00000  0.81330  0.00000  Biso   1.000  N
  N4       1.0000 0.50000  0.31330  0.00000  Biso   1.000  N
  C1       1.0000 0.09030  0.24750  0.92800  Biso   1.000  C
  C2       1.0000 0.90970  0.24750  0.07200  Biso   1.000  C
  C3       1.0000 0.59030  0.74750  0.92800  Biso   1.000  C
  C4       1.0000 0.40970  0.74750  0.07200  Biso   1.000  C
  C5       1.0000 0.90970  0.75250  0.07200  Biso   1.000  C
  C6       1.0000 0.09030  0.75250  0.92800  Biso   1.000  C
  C7       1.0000 0.40970  0.25250  0.07200  Biso   1.000  C
  C8       1.0000 0.59030  0.25250  0.92800  Biso   1.000  C
  C9       1.0000 0.08760  0.37220  0.90800  Biso   1.000  C
  C10      1.0000 0.91240  0.37220  0.09200  Biso   1.000  C
  C11      1.0000 0.58760  0.87220  0.90800  Biso   1.000  C
  C12      1.0000 0.41240  0.87220  0.09200  Biso   1.000  C
  C13      1.0000 0.91240  0.62780  0.09200  Biso   1.000  C
  C14      1.0000 0.08760  0.62780  0.90800  Biso   1.000  C
  C15      1.0000 0.41240  0.12780  0.09200  Biso   1.000  C
  C16      1.0000 0.58760  0.12780  0.90800  Biso   1.000  C
  C17      1.0000 0.00000  0.43530  0.00000  Biso   1.000  C
  C18      1.0000 0.50000  0.93530  0.00000  Biso   1.000  C
  C19      1.0000 0.00000  0.56470  0.00000  Biso   1.000  C
  C20      1.0000 0.50000  0.06470  0.00000  Biso   1.000  C
