data_image0
_cell_length_a       6.6857
_cell_length_b       7.8251
_cell_length_c       9.9188
_cell_angle_alpha    82.6561
_cell_angle_beta     84.0079
_cell_angle_gamma    71.952

_symmetry_space_group_name_H-M    "P 1"
_symmetry_int_tables_number       1

loop_
  _symmetry_equiv_pos_as_xyz
  'x, y, z'

loop_
  _atom_site_label
  _atom_site_occupancy
  _atom_site_fract_x
  _atom_site_fract_y
  _atom_site_fract_z
  _atom_site_thermal_displace_type
  _atom_site_B_iso_or_equiv
  _atom_site_type_symbol
  Cu1      1.0000 0.00000  0.00000  0.00000  Biso   1.000  Cu
  O1       1.0000 0.15290  0.09090  0.84180  Biso   1.000  O
  O2       1.0000 0.84710  0.90910  0.15820  Biso   1.000  O
  O3       1.0000 0.47430  0.03370  0.73300  Biso   1.000  O
  O4       1.0000 0.52570  0.96630  0.26700  Biso   1.000  O
  O5       1.0000 0.78570  0.66030  0.71520  Biso   1.000  O
  O6       1.0000 0.21430  0.33970  0.28480  Biso   1.000  O
  O7       1.0000 0.95070  0.79230  0.83650  Biso   1.000  O
  O8       1.0000 0.04930  0.20770  0.16350  Biso   1.000  O
  N1       1.0000 0.28050  0.83000  0.03510  Biso   1.000  N
  N2       1.0000 0.71950  0.17000  0.96490  Biso   1.000  N
  C1       1.0000 0.42910  0.84570  0.93490  Biso   1.000  C
  C2       1.0000 0.57090  0.15430  0.06510  Biso   1.000  C
  C3       1.0000 0.63520  0.73320  0.93420  Biso   1.000  C
  C4       1.0000 0.36480  0.26680  0.06580  Biso   1.000  C
  C5       1.0000 0.68890  0.60390  0.04720  Biso   1.000  C
  C6       1.0000 0.31110  0.39610  0.95280  Biso   1.000  C
  H1       1.0000 0.82920  0.52600  0.05250  Biso   1.000  H
  H2       1.0000 0.17080  0.47400  0.94750  Biso   1.000  H
  C7       1.0000 0.53870  0.59030  0.14940  Biso   1.000  C
  C8       1.0000 0.46130  0.40970  0.85060  Biso   1.000  C
  H3       1.0000 0.57430  0.50310  0.22590  Biso   1.000  H
  H4       1.0000 0.42570  0.49690  0.77410  Biso   1.000  H
  C9       1.0000 0.33530  0.70390  0.14060  Biso   1.000  C
  C10      1.0000 0.66470  0.29610  0.85940  Biso   1.000  C
  H5       1.0000 0.23140  0.69240  0.21120  Biso   1.000  H
  H6       1.0000 0.76860  0.30760  0.78880  Biso   1.000  H
  C11      1.0000 0.35150  0.00150  0.82610  Biso   1.000  C
  C12      1.0000 0.64850  0.99850  0.17390  Biso   1.000  C
  C13      1.0000 0.80240  0.73370  0.81800  Biso   1.000  C
  C14      1.0000 0.19760  0.26630  0.18200  Biso   1.000  C
  N3       1.0000 0.47570  0.76360  0.51890  Biso   1.000  N
  N4       1.0000 0.52430  0.23640  0.48110  Biso   1.000  N
  H7       1.0000 0.55740  0.73190  0.59130  Biso   1.000  H
  H8       1.0000 0.44260  0.26810  0.40870  Biso   1.000  H
  H9       1.0000 0.53690  0.82360  0.45040  Biso   1.000  H
  H10      1.0000 0.46310  0.17640  0.54960  Biso   1.000  H
  H11      1.0000 0.46270  0.66240  0.48920  Biso   1.000  H
  H12      1.0000 0.53730  0.33760  0.51080  Biso   1.000  H
  C15      1.0000 0.26180  0.88360  0.56110  Biso   1.000  C
  C16      1.0000 0.73820  0.11640  0.43890  Biso   1.000  C
  H13      1.0000 0.26730  0.00860  0.56100  Biso   1.000  H
  H14      1.0000 0.73270  0.99140  0.43900  Biso   1.000  H
  H15      1.0000 0.21880  0.84150  0.65490  Biso   1.000  H
  H16      1.0000 0.78120  0.15850  0.34510  Biso   1.000  H
  C17      1.0000 0.10140  0.88160  0.46480  Biso   1.000  C
  C18      1.0000 0.89860  0.11840  0.53520  Biso   1.000  C
  H17      1.0000 0.08840  0.75820  0.47040  Biso   1.000  H
  H18      1.0000 0.91160  0.24180  0.52960  Biso   1.000  H
  H19      1.0000 0.15060  0.91400  0.37020  Biso   1.000  H
  H20      1.0000 0.84940  0.08600  0.62980  Biso   1.000  H
  C19      1.0000 0.11380  0.98610  0.50070  Biso   1.000  C
  C20      1.0000 0.88620  0.01390  0.49930  Biso   1.000  C
  H21      1.0000 0.77740  0.98320  0.45500  Biso   1.000  H
  H22      1.0000 0.22260  0.01680  0.54500  Biso   1.000  H
  H23      1.0000 0.85330  0.00080  0.59900  Biso   1.000  H
  H24      1.0000 0.14670  0.99920  0.40100  Biso   1.000  H
  N5       1.0000 0.12320  0.79480  0.54590  Biso   1.000  N
  N6       1.0000 0.87680  0.20520  0.45410  Biso   1.000  N
  H25      1.0000 0.74040  0.27640  0.46030  Biso   1.000  H
  H26      1.0000 0.25960  0.72360  0.53970  Biso   1.000  H
  H27      1.0000 0.06960  0.78620  0.63380  Biso   1.000  H
  H28      1.0000 0.93040  0.21380  0.36620  Biso   1.000  H
  H29      1.0000 0.95390  0.24220  0.50830  Biso   1.000  H
  H30      1.0000 0.04610  0.75780  0.49170  Biso   1.000  H
  O9       1.0000 0.08110  0.36490  0.63060  Biso   1.000  O
  O10      1.0000 0.91890  0.63510  0.36940  Biso   1.000  O
  O11      1.0000 0.14900  0.39490  0.63120  Biso   1.000  O
  O12      1.0000 0.85100  0.60510  0.36880  Biso   1.000  O
  H31      1.0000 0.12760  0.33210  0.71410  Biso   1.000  H
  H32      1.0000 0.87240  0.66790  0.28590  Biso   1.000  H
  H33      1.0000 0.98920  0.47940  0.65690  Biso   1.000  H
  H34      1.0000 0.01080  0.52060  0.34310  Biso   1.000  H
  O13      1.0000 0.44090  0.40570  0.48000  Biso   1.000  O
  O14      1.0000 0.55910  0.59430  0.52000  Biso   1.000  O
  H35      1.0000 0.36640  0.35850  0.54220  Biso   1.000  H
  H36      1.0000 0.63360  0.64150  0.45780  Biso   1.000  H
  H37      1.0000 0.37010  0.38700  0.42010  Biso   1.000  H
  H38      1.0000 0.62990  0.61300  0.57990  Biso   1.000  H
