data_image0
_cell_length_a       14.119
_cell_length_b       10.043
_cell_length_c       10.21
_cell_angle_alpha    90
_cell_angle_beta     92.16
_cell_angle_gamma    90

_symmetry_space_group_name_H-M    "P 1"
_symmetry_int_tables_number       1

loop_
  _symmetry_equiv_pos_as_xyz
  'x, y, z'

loop_
  _atom_site_label
  _atom_site_occupancy
  _atom_site_fract_x
  _atom_site_fract_y
  _atom_site_fract_z
  _atom_site_thermal_displace_type
  _atom_site_B_iso_or_equiv
  _atom_site_type_symbol
  Cu1      1.0000 0.71423  0.75127  0.07449  Biso   1.000  Cu
  Cu2      1.0000 0.71423  0.24873  0.57449  Biso   1.000  Cu
  Cu3      1.0000 0.21111  0.76750  0.06658  Biso   1.000  Cu
  Cu4      1.0000 0.21111  0.23250  0.56658  Biso   1.000  Cu
  Cu5      1.0000 0.23054  0.12650  0.30052  Biso   1.000  Cu
  Cu6      1.0000 0.23054  0.87350  0.80052  Biso   1.000  Cu
  Cu7      1.0000 0.21768  0.59410  0.34521  Biso   1.000  Cu
  Cu8      1.0000 0.21768  0.40590  0.84521  Biso   1.000  Cu
  Cu9      1.0000 0.33612  0.71825  0.59318  Biso   1.000  Cu
  Cu10     1.0000 0.33612  0.28175  0.09318  Biso   1.000  Cu
  Cu11     1.0000 0.12391  0.73651  0.55785  Biso   1.000  Cu
  Cu12     1.0000 0.12391  0.26349  0.05785  Biso   1.000  Cu
  Cu13     1.0000 0.71219  0.74263  0.56187  Biso   1.000  Cu
  Cu14     1.0000 0.71219  0.25737  0.06187  Biso   1.000  Cu
  Cl1      1.0000 0.03745  0.88866  0.45285  Biso   1.000  Cl
  Cl2      1.0000 0.03745  0.11134  0.95285  Biso   1.000  Cl
  Cl3      1.0000 0.30883  0.37204  0.35087  Biso   1.000  Cl
  Cl4      1.0000 0.30883  0.62796  0.85087  Biso   1.000  Cl
  C1       1.0000 0.53630  0.72560  0.23180  Biso   1.000  C
  C2       1.0000 0.53630  0.27440  0.73180  Biso   1.000  C
  H1       1.0000 0.50600  0.63590  0.22260  Biso   1.000  H
  H2       1.0000 0.50600  0.36410  0.72260  Biso   1.000  H
  C3       1.0000 0.46760  0.82370  0.29490  Biso   1.000  C
  C4       1.0000 0.46760  0.17630  0.79490  Biso   1.000  C
  H3       1.0000 0.47830  0.82510  0.39230  Biso   1.000  H
  H4       1.0000 0.47830  0.17490  0.89230  Biso   1.000  H
  C5       1.0000 0.49760  0.95650  0.23510  Biso   1.000  C
  C6       1.0000 0.49760  0.04350  0.73510  Biso   1.000  C
  H5       1.0000 0.54960  0.99450  0.29280  Biso   1.000  H
  H6       1.0000 0.54960  0.00550  0.79280  Biso   1.000  H
  C7       1.0000 0.54030  0.91940  0.10250  Biso   1.000  C
  C8       1.0000 0.54030  0.08060  0.60250  Biso   1.000  C
  H7       1.0000 0.49310  0.94130  0.03030  Biso   1.000  H
  H8       1.0000 0.49310  0.05870  0.53030  Biso   1.000  H
  C9       1.0000 0.62760  0.71560  0.31750  Biso   1.000  C
  C10      1.0000 0.62760  0.28440  0.81750  Biso   1.000  C
  C11      1.0000 0.36720  0.78190  0.25880  Biso   1.000  C
  C12      1.0000 0.36720  0.21810  0.75880  Biso   1.000  C
  C13      1.0000 0.41900  0.05880  0.22420  Biso   1.000  C
  C14      1.0000 0.41900  0.94120  0.72420  Biso   1.000  C
  C15      1.0000 0.63080  0.99760  0.08120  Biso   1.000  C
  C16      1.0000 0.63080  0.00240  0.58120  Biso   1.000  C
  C17      1.0000 0.88290  0.78080  0.90180  Biso   1.000  C
  C18      1.0000 0.88290  0.21920  0.40180  Biso   1.000  C
  H9       1.0000 0.90650  0.87460  0.90610  Biso   1.000  H
  H10      1.0000 0.90650  0.12540  0.40610  Biso   1.000  H
  C19      1.0000 0.95760  0.69010  0.84090  Biso   1.000  C
  C20      1.0000 0.95760  0.30990  0.34090  Biso   1.000  C
  H11      1.0000 0.94630  0.68290  0.74390  Biso   1.000  H
  H12      1.0000 0.94630  0.31710  0.24390  Biso   1.000  H
  C21      1.0000 0.93910  0.55560  0.90820  Biso   1.000  C
  C22      1.0000 0.93910  0.44440  0.40820  Biso   1.000  C
  H13      1.0000 0.89410  0.50380  0.84990  Biso   1.000  H
  H14      1.0000 0.89410  0.49620  0.34990  Biso   1.000  H
  C23      1.0000 0.88740  0.59060  0.03400  Biso   1.000  C
  C24      1.0000 0.88740  0.40940  0.53400  Biso   1.000  C
  H15      1.0000 0.93180  0.57120  0.11020  Biso   1.000  H
  H16      1.0000 0.93180  0.42880  0.61020  Biso   1.000  H
  C25      1.0000 0.78930  0.77480  0.82150  Biso   1.000  C
  C26      1.0000 0.78930  0.22520  0.32150  Biso   1.000  C
  C27      1.0000 0.05640  0.74180  0.87360  Biso   1.000  C
  C28      1.0000 0.05640  0.25820  0.37360  Biso   1.000  C
  C29      1.0000 0.02720  0.47020  0.93370  Biso   1.000  C
  C30      1.0000 0.02720  0.52980  0.43370  Biso   1.000  C
  C31      1.0000 0.79830  0.50830  0.05120  Biso   1.000  C
  C32      1.0000 0.79830  0.49170  0.55120  Biso   1.000  C
  O1       1.0000 0.55500  0.77880  0.10460  Biso   1.000  O
  O2       1.0000 0.55500  0.22120  0.60460  Biso   1.000  O
  O3       1.0000 0.70370  0.75590  0.27230  Biso   1.000  O
  O4       1.0000 0.70370  0.24410  0.77230  Biso   1.000  O
  O5       1.0000 0.61812  0.67280  0.43260  Biso   1.000  O
  O6       1.0000 0.61812  0.32720  0.93260  Biso   1.000  O
  O7       1.0000 0.32450  0.72160  0.34820  Biso   1.000  O
  O8       1.0000 0.32450  0.27840  0.84820  Biso   1.000  O
  O9       1.0000 0.33579  0.80530  0.14450  Biso   1.000  O
  O10      1.0000 0.33579  0.19470  0.64450  Biso   1.000  O
  O11      1.0000 0.35502  0.04650  0.30600  Biso   1.000  O
  O12      1.0000 0.35502  0.95350  0.80600  Biso   1.000  O
  O13      1.0000 0.42596  0.14640  0.13780  Biso   1.000  O
  O14      1.0000 0.42596  0.85360  0.63780  Biso   1.000  O
  O15      1.0000 0.61955  0.12090  0.08110  Biso   1.000  O
  O16      1.0000 0.61955  0.87910  0.58110  Biso   1.000  O
  O17      1.0000 0.70700  0.94130  0.06080  Biso   1.000  O
  O18      1.0000 0.70700  0.05870  0.56080  Biso   1.000  O
  O19      1.0000 0.21317  0.93290  0.97570  Biso   1.000  O
  O20      1.0000 0.21317  0.06710  0.47570  Biso   1.000  O
  H17      1.0000 0.15200  0.97500  0.98100  Biso   1.000  H
  H18      1.0000 0.15200  0.02500  0.48100  Biso   1.000  H
  O21      1.0000 0.23191  0.15450  0.11300  Biso   1.000  O
  O22      1.0000 0.23191  0.84550  0.61300  Biso   1.000  O
  H19      1.0000 0.24600  0.07300  0.07100  Biso   1.000  H
  H20      1.0000 0.24600  0.92700  0.57100  Biso   1.000  H
  O23      1.0000 0.87062  0.73050  0.03220  Biso   1.000  O
  O24      1.0000 0.87062  0.26950  0.53220  Biso   1.000  O
  O25      1.0000 0.71530  0.74220  0.87660  Biso   1.000  O
  O26      1.0000 0.71530  0.25780  0.37660  Biso   1.000  O
  O27      1.0000 0.79635  0.80120  0.70150  Biso   1.000  O
  O28      1.0000 0.79635  0.19880  0.20150  Biso   1.000  O
  O29      1.0000 0.10380  0.78940  0.78360  Biso   1.000  O
  O30      1.0000 0.10380  0.21060  0.28360  Biso   1.000  O
  O31      1.0000 0.08366  0.73210  0.99330  Biso   1.000  O
  O32      1.0000 0.08366  0.26790  0.49330  Biso   1.000  O
  O33      1.0000 0.08577  0.47290  0.84490  Biso   1.000  O
  O34      1.0000 0.08577  0.52710  0.34490  Biso   1.000  O
  O35      1.0000 0.03268  0.40460  0.03850  Biso   1.000  O
  O36      1.0000 0.03268  0.59540  0.53850  Biso   1.000  O
  O37      1.0000 0.80840  0.38670  0.02820  Biso   1.000  O
  O38      1.0000 0.80840  0.61330  0.52820  Biso   1.000  O
  O39      1.0000 0.72431  0.56110  0.08780  Biso   1.000  O
  O40      1.0000 0.72431  0.43890  0.58780  Biso   1.000  O
  O41      1.0000 0.19352  0.60720  0.16130  Biso   1.000  O
  O42      1.0000 0.19352  0.39280  0.66130  Biso   1.000  O
  H21      1.0000 0.12720  0.59600  0.15100  Biso   1.000  H
  H22      1.0000 0.12720  0.40400  0.65100  Biso   1.000  H
  O43      1.0000 0.23184  0.60860  0.53410  Biso   1.000  O
  O44      1.0000 0.23184  0.39140  0.03410  Biso   1.000  O
  H23      1.0000 0.22300  0.52700  0.58200  Biso   1.000  H
  H24      1.0000 0.22300  0.47300  0.08200  Biso   1.000  H
  O45      1.0000 0.43740  0.58220  0.55680  Biso   1.000  O
  O46      1.0000 0.43740  0.41780  0.05680  Biso   1.000  O
  H25      1.0000 0.48400  0.63100  0.51300  Biso   1.000  H
  H26      1.0000 0.48400  0.36900  0.01300  Biso   1.000  H
  H27      1.0000 0.41100  0.52200  0.49100  Biso   1.000  H
  H28      1.0000 0.41100  0.47800  0.99100  Biso   1.000  H
