data_image0
_cell_length_a       14.2291
_cell_length_b       10.0388
_cell_length_c       10.3413
_cell_angle_alpha    90
_cell_angle_beta     92.449
_cell_angle_gamma    90

_symmetry_space_group_name_H-M    "P 1"
_symmetry_int_tables_number       1

loop_
  _symmetry_equiv_pos_as_xyz
  'x, y, z'

loop_
  _atom_site_label
  _atom_site_occupancy
  _atom_site_fract_x
  _atom_site_fract_y
  _atom_site_fract_z
  _atom_site_thermal_displace_type
  _atom_site_B_iso_or_equiv
  _atom_site_type_symbol
  Cu1      1.0000 0.71752  0.75301  0.07550  Biso   1.000  Cu
  Cu2      1.0000 0.71752  0.24699  0.57550  Biso   1.000  Cu
  Cu3      1.0000 0.21314  0.76710  0.07140  Biso   1.000  Cu
  Cu4      1.0000 0.21314  0.23290  0.57140  Biso   1.000  Cu
  Cu5      1.0000 0.22647  0.11337  0.29468  Biso   1.000  Cu
  Cu6      1.0000 0.22647  0.88663  0.79468  Biso   1.000  Cu
  Cu7      1.0000 0.21959  0.59097  0.34233  Biso   1.000  Cu
  Cu8      1.0000 0.21959  0.40903  0.84233  Biso   1.000  Cu
  Cu9      1.0000 0.33275  0.72299  0.59025  Biso   1.000  Cu
  Cu10     1.0000 0.33275  0.27701  0.09025  Biso   1.000  Cu
  Cu11     1.0000 0.12302  0.73466  0.56056  Biso   1.000  Cu
  Cu12     1.0000 0.12302  0.26534  0.06056  Biso   1.000  Cu
  Cu13     1.0000 0.71383  0.74228  0.56415  Biso   1.000  Cu
  Cu14     1.0000 0.71383  0.25772  0.06415  Biso   1.000  Cu
  Cl1      1.0000 0.02592  0.89601  0.48887  Biso   1.000  Cl
  Cl2      1.0000 0.02592  0.10399  0.98887  Biso   1.000  Cl
  Cl3      1.0000 0.30988  0.37499  0.34339  Biso   1.000  Cl
  Cl4      1.0000 0.30988  0.62501  0.84339  Biso   1.000  Cl
  C1       1.0000 0.54220  0.72320  0.23080  Biso   1.000  C
  C2       1.0000 0.54220  0.27680  0.73080  Biso   1.000  C
  H1       1.0000 0.51400  0.63220  0.22240  Biso   1.000  H
  H2       1.0000 0.51400  0.36780  0.72240  Biso   1.000  H
  C3       1.0000 0.47160  0.82130  0.29230  Biso   1.000  C
  C4       1.0000 0.47160  0.17870  0.79230  Biso   1.000  C
  H3       1.0000 0.48220  0.82410  0.38850  Biso   1.000  H
  H4       1.0000 0.48220  0.17590  0.88850  Biso   1.000  H
  C5       1.0000 0.49850  0.95420  0.23230  Biso   1.000  C
  C6       1.0000 0.49850  0.04580  0.73230  Biso   1.000  C
  H5       1.0000 0.54870  0.99570  0.28970  Biso   1.000  H
  H6       1.0000 0.54870  0.00430  0.78970  Biso   1.000  H
  C7       1.0000 0.54240  0.91720  0.10310  Biso   1.000  C
  C8       1.0000 0.54240  0.08280  0.60310  Biso   1.000  C
  H7       1.0000 0.49560  0.93730  0.03090  Biso   1.000  H
  H8       1.0000 0.49560  0.06270  0.53090  Biso   1.000  H
  C9       1.0000 0.63270  0.71880  0.31540  Biso   1.000  C
  C10      1.0000 0.63270  0.28120  0.81540  Biso   1.000  C
  C11      1.0000 0.37180  0.77560  0.25670  Biso   1.000  C
  C12      1.0000 0.37180  0.22440  0.75670  Biso   1.000  C
  C13      1.0000 0.41840  0.05280  0.21610  Biso   1.000  C
  C14      1.0000 0.41840  0.94720  0.71610  Biso   1.000  C
  C15      1.0000 0.63190  0.99880  0.08210  Biso   1.000  C
  C16      1.0000 0.63190  0.00120  0.58210  Biso   1.000  C
  C17      1.0000 0.88440  0.78270  0.90280  Biso   1.000  C
  C18      1.0000 0.88440  0.21730  0.40280  Biso   1.000  C
  H9       1.0000 0.90710  0.87700  0.90560  Biso   1.000  H
  H10      1.0000 0.90710  0.12300  0.40560  Biso   1.000  H
  C19      1.0000 0.95850  0.69210  0.84400  Biso   1.000  C
  C20      1.0000 0.95850  0.30790  0.34400  Biso   1.000  C
  H11      1.0000 0.94740  0.68560  0.74810  Biso   1.000  H
  H12      1.0000 0.94740  0.31440  0.24810  Biso   1.000  H
  C21      1.0000 0.94000  0.55540  0.90900  Biso   1.000  C
  C22      1.0000 0.94000  0.44460  0.40900  Biso   1.000  C
  H13      1.0000 0.89420  0.50490  0.85170  Biso   1.000  H
  H14      1.0000 0.89420  0.49510  0.35170  Biso   1.000  H
  C23      1.0000 0.89060  0.59210  0.03430  Biso   1.000  C
  C24      1.0000 0.89060  0.40790  0.53430  Biso   1.000  C
  H15      1.0000 0.93530  0.57270  0.10910  Biso   1.000  H
  H16      1.0000 0.93530  0.42730  0.60910  Biso   1.000  H
  C25      1.0000 0.79010  0.77350  0.82420  Biso   1.000  C
  C26      1.0000 0.79010  0.22650  0.32420  Biso   1.000  C
  C27      1.0000 0.05800  0.74430  0.87680  Biso   1.000  C
  C28      1.0000 0.05800  0.25570  0.37680  Biso   1.000  C
  C29      1.0000 0.02620  0.46980  0.93210  Biso   1.000  C
  C30      1.0000 0.02620  0.53020  0.43210  Biso   1.000  C
  C31      1.0000 0.80200  0.51030  0.05180  Biso   1.000  C
  C32      1.0000 0.80200  0.48970  0.55180  Biso   1.000  C
  O1       1.0000 0.55930  0.77730  0.10520  Biso   1.000  O
  O2       1.0000 0.55930  0.22270  0.60520  Biso   1.000  O
  O3       1.0000 0.70800  0.76050  0.27010  Biso   1.000  O
  O4       1.0000 0.70800  0.23950  0.77010  Biso   1.000  O
  O5       1.0000 0.62410  0.67680  0.42980  Biso   1.000  O
  O6       1.0000 0.62410  0.32320  0.92980  Biso   1.000  O
  O7       1.0000 0.32750  0.72000  0.34660  Biso   1.000  O
  O8       1.0000 0.32750  0.28000  0.84660  Biso   1.000  O
  O9       1.0000 0.34200  0.79210  0.14290  Biso   1.000  O
  O10      1.0000 0.34200  0.20790  0.64290  Biso   1.000  O
  O11      1.0000 0.35510  0.04080  0.29680  Biso   1.000  O
  O12      1.0000 0.35510  0.95920  0.79680  Biso   1.000  O
  O13      1.0000 0.42290  0.13810  0.12780  Biso   1.000  O
  O14      1.0000 0.42290  0.86190  0.62780  Biso   1.000  O
  O15      1.0000 0.62060  0.12210  0.08600  Biso   1.000  O
  O16      1.0000 0.62060  0.87790  0.58600  Biso   1.000  O
  O17      1.0000 0.70880  0.94190  0.06020  Biso   1.000  O
  O18      1.0000 0.70880  0.05810  0.56020  Biso   1.000  O
  O19      1.0000 0.23250  0.92720  0.97550  Biso   1.000  O
  O20      1.0000 0.23250  0.07280  0.47550  Biso   1.000  O
  H17      1.0000 0.17100  0.96600  0.97200  Biso   1.000  H
  H18      1.0000 0.17100  0.03400  0.47200  Biso   1.000  H
  O21      1.0000 0.22750  0.15200  0.11010  Biso   1.000  O
  O22      1.0000 0.22750  0.84800  0.61010  Biso   1.000  O
  H19      1.0000 0.25000  0.07500  0.06600  Biso   1.000  H
  H20      1.0000 0.25000  0.92500  0.56600  Biso   1.000  H
  O23      1.0000 0.87340  0.73360  0.03200  Biso   1.000  O
  O24      1.0000 0.87340  0.26640  0.53200  Biso   1.000  O
  O25      1.0000 0.71680  0.74180  0.88040  Biso   1.000  O
  O26      1.0000 0.71680  0.25820  0.38040  Biso   1.000  O
  O27      1.0000 0.79640  0.79940  0.70600  Biso   1.000  O
  O28      1.0000 0.79640  0.20060  0.20600  Biso   1.000  O
  O29      1.0000 0.10360  0.79180  0.78680  Biso   1.000  O
  O30      1.0000 0.10360  0.20820  0.28680  Biso   1.000  O
  O31      1.0000 0.08560  0.73500  0.99410  Biso   1.000  O
  O32      1.0000 0.08560  0.26500  0.49410  Biso   1.000  O
  O33      1.0000 0.08420  0.46790  0.84300  Biso   1.000  O
  O34      1.0000 0.08420  0.53210  0.34300  Biso   1.000  O
  O35      1.0000 0.03380  0.40610  0.03780  Biso   1.000  O
  O36      1.0000 0.03380  0.59390  0.53780  Biso   1.000  O
  O37      1.0000 0.81060  0.38690  0.03020  Biso   1.000  O
  O38      1.0000 0.81060  0.61310  0.53020  Biso   1.000  O
  O39      1.0000 0.72900  0.56350  0.09150  Biso   1.000  O
  O40      1.0000 0.72900  0.43650  0.59150  Biso   1.000  O
  O41      1.0000 0.19480  0.60410  0.16000  Biso   1.000  O
  O42      1.0000 0.19480  0.39590  0.66000  Biso   1.000  O
  H21      1.0000 0.12900  0.59300  0.14700  Biso   1.000  H
  H22      1.0000 0.12900  0.40700  0.64700  Biso   1.000  H
  O43      1.0000 0.22990  0.61060  0.52890  Biso   1.000  O
  O44      1.0000 0.22990  0.38940  0.02890  Biso   1.000  O
  H23      1.0000 0.22300  0.52000  0.55400  Biso   1.000  H
  H24      1.0000 0.22300  0.48000  0.05400  Biso   1.000  H
  O45      1.0000 0.43290  0.58720  0.56100  Biso   1.000  O
  O46      1.0000 0.43290  0.41280  0.06100  Biso   1.000  O
  O47      1.0000 0.13100  0.91910  0.22550  Biso   1.000  O
  O48      1.0000 0.13100  0.08090  0.72550  Biso   1.000  O
  O49      1.0000 0.13580  0.13360  0.78620  Biso   1.000  O
  O50      1.0000 0.13580  0.86640  0.28620  Biso   1.000  O
  O51      1.0000 0.60660  0.39320  0.18910  Biso   1.000  O
  O52      1.0000 0.60660  0.60680  0.68910  Biso   1.000  O
