data_image0
_cell_length_a       14.1851
_cell_length_b       10.0601
_cell_length_c       10.2537
_cell_angle_alpha    90
_cell_angle_beta     92.262
_cell_angle_gamma    90

_symmetry_space_group_name_H-M    "P 1"
_symmetry_int_tables_number       1

loop_
  _symmetry_equiv_pos_as_xyz
  'x, y, z'

loop_
  _atom_site_label
  _atom_site_occupancy
  _atom_site_fract_x
  _atom_site_fract_y
  _atom_site_fract_z
  _atom_site_thermal_displace_type
  _atom_site_B_iso_or_equiv
  _atom_site_type_symbol
  Cu1      1.0000 0.71473  0.75090  0.07433  Biso   1.000  Cu
  Cu2      1.0000 0.71473  0.24910  0.57433  Biso   1.000  Cu
  Cu3      1.0000 0.21134  0.76843  0.06823  Biso   1.000  Cu
  Cu4      1.0000 0.21134  0.23157  0.56823  Biso   1.000  Cu
  Cu5      1.0000 0.22934  0.12226  0.29848  Biso   1.000  Cu
  Cu6      1.0000 0.22934  0.87774  0.79848  Biso   1.000  Cu
  Cu7      1.0000 0.21842  0.59319  0.34370  Biso   1.000  Cu
  Cu8      1.0000 0.21842  0.40681  0.84370  Biso   1.000  Cu
  Cu9      1.0000 0.33570  0.71876  0.59181  Biso   1.000  Cu
  Cu10     1.0000 0.33570  0.28124  0.09181  Biso   1.000  Cu
  Cu11     1.0000 0.12388  0.73541  0.55983  Biso   1.000  Cu
  Cu12     1.0000 0.12388  0.26459  0.05983  Biso   1.000  Cu
  Cu13     1.0000 0.71264  0.74280  0.56201  Biso   1.000  Cu
  Cu14     1.0000 0.71264  0.25720  0.06201  Biso   1.000  Cu
  Cl1      1.0000 0.02980  0.89398  0.47757  Biso   1.000  Cl
  Cl2      1.0000 0.02980  0.10602  0.97757  Biso   1.000  Cl
  Cl3      1.0000 0.30972  0.37447  0.34744  Biso   1.000  Cl
  Cl4      1.0000 0.30972  0.62553  0.84744  Biso   1.000  Cl
  C1       1.0000 0.53800  0.72540  0.23150  Biso   1.000  C
  C2       1.0000 0.53800  0.27460  0.73150  Biso   1.000  C
  H1       1.0000 0.50500  0.64100  0.23100  Biso   1.000  H
  H2       1.0000 0.50500  0.35900  0.73100  Biso   1.000  H
  C3       1.0000 0.46820  0.82400  0.29360  Biso   1.000  C
  C4       1.0000 0.46820  0.17600  0.79360  Biso   1.000  C
  H3       1.0000 0.47900  0.81900  0.37900  Biso   1.000  H
  H4       1.0000 0.47900  0.18100  0.87900  Biso   1.000  H
  C5       1.0000 0.49800  0.95570  0.23410  Biso   1.000  C
  C6       1.0000 0.49800  0.04430  0.73410  Biso   1.000  C
  H5       1.0000 0.54600  0.99700  0.28800  Biso   1.000  H
  H6       1.0000 0.54600  0.00300  0.78800  Biso   1.000  H
  C7       1.0000 0.54030  0.91970  0.10290  Biso   1.000  C
  C8       1.0000 0.54030  0.08030  0.60290  Biso   1.000  C
  H7       1.0000 0.49500  0.93500  0.03100  Biso   1.000  H
  H8       1.0000 0.49500  0.06500  0.53100  Biso   1.000  H
  C9       1.0000 0.62830  0.71550  0.31660  Biso   1.000  C
  C10      1.0000 0.62830  0.28450  0.81660  Biso   1.000  C
  C11      1.0000 0.36790  0.78150  0.25720  Biso   1.000  C
  C12      1.0000 0.36790  0.21850  0.75720  Biso   1.000  C
  C13      1.0000 0.41870  0.05800  0.22180  Biso   1.000  C
  C14      1.0000 0.41870  0.94200  0.72180  Biso   1.000  C
  C15      1.0000 0.63100  0.99840  0.08070  Biso   1.000  C
  C16      1.0000 0.63100  0.00160  0.58070  Biso   1.000  C
  C17      1.0000 0.88300  0.78100  0.90200  Biso   1.000  C
  C18      1.0000 0.88300  0.21900  0.40200  Biso   1.000  C
  H9       1.0000 0.90600  0.86900  0.91800  Biso   1.000  H
  H10      1.0000 0.90600  0.13100  0.41800  Biso   1.000  H
  C19      1.0000 0.95810  0.69030  0.84120  Biso   1.000  C
  C20      1.0000 0.95810  0.30970  0.34120  Biso   1.000  C
  H11      1.0000 0.94600  0.68600  0.74600  Biso   1.000  H
  H12      1.0000 0.94600  0.31400  0.24600  Biso   1.000  H
  C21      1.0000 0.93910  0.55420  0.90880  Biso   1.000  C
  C22      1.0000 0.93910  0.44580  0.40880  Biso   1.000  C
  H13      1.0000 0.90500  0.49900  0.86500  Biso   1.000  H
  H14      1.0000 0.90500  0.50100  0.36500  Biso   1.000  H
  C23      1.0000 0.88920  0.59030  0.03280  Biso   1.000  C
  C24      1.0000 0.88920  0.40970  0.53280  Biso   1.000  C
  H15      1.0000 0.92100  0.56700  0.10900  Biso   1.000  H
  H16      1.0000 0.92100  0.43300  0.60900  Biso   1.000  H
  C25      1.0000 0.78930  0.77390  0.82220  Biso   1.000  C
  C26      1.0000 0.78930  0.22610  0.32220  Biso   1.000  C
  C27      1.0000 0.05700  0.74180  0.87530  Biso   1.000  C
  C28      1.0000 0.05700  0.25820  0.37530  Biso   1.000  C
  C29      1.0000 0.02590  0.47010  0.93250  Biso   1.000  C
  C30      1.0000 0.02590  0.52990  0.43250  Biso   1.000  C
  C31      1.0000 0.79900  0.50870  0.04970  Biso   1.000  C
  C32      1.0000 0.79900  0.49130  0.54970  Biso   1.000  C
  O1       1.0000 0.55610  0.77780  0.10480  Biso   1.000  O
  O2       1.0000 0.55610  0.22220  0.60480  Biso   1.000  O
  O3       1.0000 0.70460  0.75670  0.27170  Biso   1.000  O
  O4       1.0000 0.70460  0.24330  0.77170  Biso   1.000  O
  O5       1.0000 0.61913  0.67340  0.43140  Biso   1.000  O
  O6       1.0000 0.61913  0.32660  0.93140  Biso   1.000  O
  O7       1.0000 0.32465  0.72240  0.34770  Biso   1.000  O
  O8       1.0000 0.32465  0.27760  0.84770  Biso   1.000  O
  O9       1.0000 0.33730  0.80240  0.14370  Biso   1.000  O
  O10      1.0000 0.33730  0.19760  0.64370  Biso   1.000  O
  O11      1.0000 0.35548  0.04620  0.30370  Biso   1.000  O
  O12      1.0000 0.35548  0.95380  0.80370  Biso   1.000  O
  O13      1.0000 0.42563  0.14600  0.13540  Biso   1.000  O
  O14      1.0000 0.42563  0.85400  0.63540  Biso   1.000  O
  O15      1.0000 0.62010  0.12120  0.08120  Biso   1.000  O
  O16      1.0000 0.62010  0.87880  0.58120  Biso   1.000  O
  O17      1.0000 0.70740  0.94050  0.06080  Biso   1.000  O
  O18      1.0000 0.70740  0.05950  0.56080  Biso   1.000  O
  O19      1.0000 0.21670  0.93270  0.97570  Biso   1.000  O
  O20      1.0000 0.21670  0.06730  0.47570  Biso   1.000  O
  H17      1.0000 0.15500  0.97500  0.97800  Biso   1.000  H
  H18      1.0000 0.15500  0.02500  0.47800  Biso   1.000  H
  O21      1.0000 0.23130  0.15440  0.11250  Biso   1.000  O
  O22      1.0000 0.23130  0.84560  0.61250  Biso   1.000  O
  H19      1.0000 0.23600  0.07400  0.06400  Biso   1.000  H
  H20      1.0000 0.23600  0.92600  0.56400  Biso   1.000  H
  O23      1.0000 0.87143  0.73080  0.03110  Biso   1.000  O
  O24      1.0000 0.87143  0.26920  0.53110  Biso   1.000  O
  O25      1.0000 0.71540  0.74140  0.87700  Biso   1.000  O
  O26      1.0000 0.71540  0.25860  0.37700  Biso   1.000  O
  O27      1.0000 0.79684  0.80030  0.70280  Biso   1.000  O
  O28      1.0000 0.79684  0.19970  0.20280  Biso   1.000  O
  O29      1.0000 0.10405  0.78820  0.78480  Biso   1.000  O
  O30      1.0000 0.10405  0.21180  0.28480  Biso   1.000  O
  O31      1.0000 0.08408  0.73210  0.99280  Biso   1.000  O
  O32      1.0000 0.08408  0.26790  0.49280  Biso   1.000  O
  O33      1.0000 0.08453  0.46960  0.84360  Biso   1.000  O
  O34      1.0000 0.08453  0.53040  0.34360  Biso   1.000  O
  O35      1.0000 0.03311  0.40540  0.03830  Biso   1.000  O
  O36      1.0000 0.03311  0.59460  0.53830  Biso   1.000  O
  O37      1.0000 0.80900  0.38620  0.02790  Biso   1.000  O
  O38      1.0000 0.80900  0.61380  0.52790  Biso   1.000  O
  O39      1.0000 0.72520  0.56080  0.08820  Biso   1.000  O
  O40      1.0000 0.72520  0.43920  0.58820  Biso   1.000  O
  O41      1.0000 0.19397  0.60650  0.16090  Biso   1.000  O
  O42      1.0000 0.19397  0.39350  0.66090  Biso   1.000  O
  H21      1.0000 0.12960  0.58900  0.14200  Biso   1.000  H
  H22      1.0000 0.12960  0.41100  0.64200  Biso   1.000  H
  O43      1.0000 0.23108  0.60880  0.53240  Biso   1.000  O
  O44      1.0000 0.23108  0.39120  0.03240  Biso   1.000  O
  H23      1.0000 0.22600  0.52600  0.57800  Biso   1.000  H
  H24      1.0000 0.22600  0.47400  0.07800  Biso   1.000  H
  O45      1.0000 0.43630  0.58260  0.55510  Biso   1.000  O
  O46      1.0000 0.43630  0.41740  0.05510  Biso   1.000  O
  H25      1.0000 0.49300  0.61800  0.52900  Biso   1.000  H
  H26      1.0000 0.49300  0.38200  0.02900  Biso   1.000  H
  H27      1.0000 0.41300  0.52000  0.49300  Biso   1.000  H
  H28      1.0000 0.41300  0.48000  0.99300  Biso   1.000  H
  O47      1.0000 0.12840  0.91080  0.23490  Biso   1.000  O
  O48      1.0000 0.12840  0.08920  0.73490  Biso   1.000  O
