data_image0
_cell_length_a       8.1019
_cell_length_b       8.3122
_cell_length_c       10.3501
_cell_angle_alpha    72.332
_cell_angle_beta     84.562
_cell_angle_gamma    77.878

_symmetry_space_group_name_H-M    "P 1"
_symmetry_int_tables_number       1

loop_
  _symmetry_equiv_pos_as_xyz
  'x, y, z'

loop_
  _atom_site_label
  _atom_site_occupancy
  _atom_site_fract_x
  _atom_site_fract_y
  _atom_site_fract_z
  _atom_site_thermal_displace_type
  _atom_site_B_iso_or_equiv
  _atom_site_type_symbol
  Cu1      1.0000 0.59216  0.14236  0.28662  Biso   1.000  Cu
  Cu2      1.0000 0.40784  0.85764  0.71338  Biso   1.000  Cu
  V1       1.0000 0.87679  0.39002  0.34998  Biso   1.000  V
  V2       1.0000 0.12321  0.60998  0.65002  Biso   1.000  V
  V3       1.0000 0.26121  0.27133  0.52264  Biso   1.000  V
  V4       1.0000 0.73879  0.72867  0.47736  Biso   1.000  V
  O1       1.0000 0.77410  0.24210  0.33670  Biso   1.000  O
  O2       1.0000 0.22590  0.75790  0.66330  Biso   1.000  O
  O3       1.0000 0.91980  0.50620  0.19930  Biso   1.000  O
  O4       1.0000 0.08020  0.49380  0.80070  Biso   1.000  O
  O5       1.0000 0.74250  0.53170  0.43940  Biso   1.000  O
  O6       1.0000 0.25750  0.46830  0.56060  Biso   1.000  O
  O7       1.0000 0.42950  0.23150  0.42520  Biso   1.000  O
  O8       1.0000 0.57050  0.76850  0.57480  Biso   1.000  O
  O9       1.0000 0.07220  0.29160  0.44050  Biso   1.000  O
  O10      1.0000 0.92780  0.70840  0.55950  Biso   1.000  O
  O11      1.0000 0.72860  0.89420  0.33630  Biso   1.000  O
  O12      1.0000 0.27140  0.10580  0.66370  Biso   1.000  O
  N1       1.0000 0.59000  0.25900  0.07770  Biso   1.000  N
  N2       1.0000 0.41000  0.74100  0.92230  Biso   1.000  N
  N3       1.0000 0.37940  0.07000  0.23200  Biso   1.000  N
  N4       1.0000 0.62060  0.93000  0.76800  Biso   1.000  N
  C1       1.0000 0.70650  0.34610  0.00410  Biso   1.000  C
  C2       1.0000 0.29350  0.65390  0.99590  Biso   1.000  C
  H1       1.0000 0.79030  0.36710  0.04890  Biso   1.000  H
  H2       1.0000 0.20970  0.63290  0.95110  Biso   1.000  H
  C3       1.0000 0.70570  0.40560  0.86360  Biso   1.000  C
  C4       1.0000 0.29430  0.59440  0.13640  Biso   1.000  C
  H3       1.0000 0.78690  0.46670  0.81520  Biso   1.000  H
  H4       1.0000 0.21310  0.53330  0.18480  Biso   1.000  H
  C5       1.0000 0.58280  0.37310  0.79630  Biso   1.000  C
  C6       1.0000 0.41720  0.62690  0.20370  Biso   1.000  C
  H5       1.0000 0.58110  0.41070  0.70200  Biso   1.000  H
  H6       1.0000 0.41890  0.58930  0.29800  Biso   1.000  H
  C7       1.0000 0.46200  0.28350  0.87110  Biso   1.000  C
  C8       1.0000 0.53800  0.71650  0.12890  Biso   1.000  C
  H7       1.0000 0.37870  0.25940  0.82780  Biso   1.000  H
  H8       1.0000 0.62130  0.74060  0.17220  Biso   1.000  H
  C9       1.0000 0.46750  0.23030  0.01200  Biso   1.000  C
  C10      1.0000 0.53250  0.76970  0.98800  Biso   1.000  C
  C11      1.0000 0.33970  0.13900  0.10030  Biso   1.000  C
  C12      1.0000 0.66030  0.86100  0.89970  Biso   1.000  C
  C13      1.0000 0.18780  0.12700  0.05340  Biso   1.000  C
  C14      1.0000 0.81220  0.87300  0.94660  Biso   1.000  C
  H9       1.0000 0.16100  0.17750  0.96280  Biso   1.000  H
  H10      1.0000 0.83900  0.82250  0.03720  Biso   1.000  H
  C15      1.0000 0.07810  0.03860  0.14480  Biso   1.000  C
  C16      1.0000 0.92190  0.96140  0.85520  Biso   1.000  C
  H11      1.0000 0.97630  0.02900  0.11600  Biso   1.000  H
  H12      1.0000 0.02370  0.97100  0.88400  Biso   1.000  H
  C17      1.0000 0.12090  0.96490  0.27860  Biso   1.000  C
  C18      1.0000 0.87910  0.03510  0.72140  Biso   1.000  C
  H13      1.0000 0.04920  0.90380  0.34090  Biso   1.000  H
  H14      1.0000 0.95080  0.09620  0.65910  Biso   1.000  H
  C19      1.0000 0.27180  0.98340  0.31870  Biso   1.000  C
  C20      1.0000 0.72820  0.01660  0.68130  Biso   1.000  C
  H15      1.0000 0.30010  0.93400  0.40910  Biso   1.000  H
  H16      1.0000 0.69990  0.06600  0.59090  Biso   1.000  H
