data_image0
_cell_length_a       29.4713
_cell_length_b       7.1825
_cell_length_c       13.7399
_cell_angle_alpha    90
_cell_angle_beta     107.376
_cell_angle_gamma    90

_symmetry_space_group_name_H-M    "P 1"
_symmetry_int_tables_number       1

loop_
  _symmetry_equiv_pos_as_xyz
  'x, y, z'

loop_
  _atom_site_label
  _atom_site_occupancy
  _atom_site_fract_x
  _atom_site_fract_y
  _atom_site_fract_z
  _atom_site_thermal_displace_type
  _atom_site_B_iso_or_equiv
  _atom_site_type_symbol
  Cu1      1.0000 0.87172  0.06022  0.56598  Biso   1.000  Cu
  Cu2      1.0000 0.37172  0.56022  0.56598  Biso   1.000  Cu
  Cu3      1.0000 0.12828  0.06022  0.93402  Biso   1.000  Cu
  Cu4      1.0000 0.62828  0.56022  0.93402  Biso   1.000  Cu
  Cu5      1.0000 0.12828  0.93978  0.43402  Biso   1.000  Cu
  Cu6      1.0000 0.62828  0.43978  0.43402  Biso   1.000  Cu
  Cu7      1.0000 0.87172  0.93978  0.06597  Biso   1.000  Cu
  Cu8      1.0000 0.37172  0.43978  0.06597  Biso   1.000  Cu
  O1       1.0000 0.85006  0.13940  0.70471  Biso   1.000  O
  O2       1.0000 0.35006  0.63940  0.70471  Biso   1.000  O
  O3       1.0000 0.14994  0.13940  0.79529  Biso   1.000  O
  O4       1.0000 0.64994  0.63940  0.79529  Biso   1.000  O
  O5       1.0000 0.14994  0.86060  0.29529  Biso   1.000  O
  O6       1.0000 0.64994  0.36060  0.29529  Biso   1.000  O
  O7       1.0000 0.85006  0.86060  0.20471  Biso   1.000  O
  O8       1.0000 0.35006  0.36060  0.20471  Biso   1.000  O
  H1       1.0000 0.87170  0.14100  0.77170  Biso   1.000  H
  H2       1.0000 0.37170  0.64100  0.77170  Biso   1.000  H
  H3       1.0000 0.12830  0.14100  0.72830  Biso   1.000  H
  H4       1.0000 0.62830  0.64100  0.72830  Biso   1.000  H
  H5       1.0000 0.12830  0.85900  0.22830  Biso   1.000  H
  H6       1.0000 0.62830  0.35900  0.22830  Biso   1.000  H
  H7       1.0000 0.87170  0.85900  0.27170  Biso   1.000  H
  H8       1.0000 0.37170  0.35900  0.27170  Biso   1.000  H
  H9       1.0000 0.82080  0.10300  0.71500  Biso   1.000  H
  H10      1.0000 0.32080  0.60300  0.71500  Biso   1.000  H
  H11      1.0000 0.17920  0.10300  0.78500  Biso   1.000  H
  H12      1.0000 0.67920  0.60300  0.78500  Biso   1.000  H
  H13      1.0000 0.17920  0.89700  0.28500  Biso   1.000  H
  H14      1.0000 0.67920  0.39700  0.28500  Biso   1.000  H
  H15      1.0000 0.82080  0.89700  0.21500  Biso   1.000  H
  H16      1.0000 0.32080  0.39700  0.21500  Biso   1.000  H
  O9       1.0000 0.80747  0.06730  0.46747  Biso   1.000  O
  O10      1.0000 0.30747  0.56730  0.46747  Biso   1.000  O
  O11      1.0000 0.19253  0.06730  0.03253  Biso   1.000  O
  O12      1.0000 0.69253  0.56730  0.03253  Biso   1.000  O
  O13      1.0000 0.19253  0.93270  0.53253  Biso   1.000  O
  O14      1.0000 0.69253  0.43270  0.53253  Biso   1.000  O
  O15      1.0000 0.80747  0.93270  0.96747  Biso   1.000  O
  O16      1.0000 0.30747  0.43270  0.96747  Biso   1.000  O
  H17      1.0000 0.79340  0.17300  0.42900  Biso   1.000  H
  H18      1.0000 0.29340  0.67300  0.42900  Biso   1.000  H
  H19      1.0000 0.20660  0.17300  0.07100  Biso   1.000  H
  H20      1.0000 0.70660  0.67300  0.07100  Biso   1.000  H
  H21      1.0000 0.20660  0.82700  0.57100  Biso   1.000  H
  H22      1.0000 0.70660  0.32700  0.57100  Biso   1.000  H
  H23      1.0000 0.79340  0.82700  0.92900  Biso   1.000  H
  H24      1.0000 0.29340  0.32700  0.92900  Biso   1.000  H
  H25      1.0000 0.79030  0.96500  0.43000  Biso   1.000  H
  H26      1.0000 0.29030  0.46500  0.43000  Biso   1.000  H
  H27      1.0000 0.20970  0.96500  0.07000  Biso   1.000  H
  H28      1.0000 0.70970  0.46500  0.07000  Biso   1.000  H
  H29      1.0000 0.20970  0.03500  0.57000  Biso   1.000  H
  H30      1.0000 0.70970  0.53500  0.57000  Biso   1.000  H
  H31      1.0000 0.79030  0.03500  0.93000  Biso   1.000  H
  H32      1.0000 0.29030  0.53500  0.93000  Biso   1.000  H
  O17      1.0000 0.93964  0.04330  0.64930  Biso   1.000  O
  O18      1.0000 0.43964  0.54330  0.64930  Biso   1.000  O
  O19      1.0000 0.06036  0.04330  0.85070  Biso   1.000  O
  O20      1.0000 0.56036  0.54330  0.85070  Biso   1.000  O
  O21      1.0000 0.06036  0.95670  0.35070  Biso   1.000  O
  O22      1.0000 0.56036  0.45670  0.35070  Biso   1.000  O
  O23      1.0000 0.93964  0.95670  0.14930  Biso   1.000  O
  O24      1.0000 0.43964  0.45670  0.14930  Biso   1.000  O
  H33      1.0000 0.95850  0.95200  0.69300  Biso   1.000  H
  H34      1.0000 0.45850  0.45200  0.69300  Biso   1.000  H
  H35      1.0000 0.04150  0.95200  0.80700  Biso   1.000  H
  H36      1.0000 0.54150  0.45200  0.80700  Biso   1.000  H
  H37      1.0000 0.04150  0.04800  0.30700  Biso   1.000  H
  H38      1.0000 0.54150  0.54800  0.30700  Biso   1.000  H
  H39      1.0000 0.95850  0.04800  0.19300  Biso   1.000  H
  H40      1.0000 0.45850  0.54800  0.19300  Biso   1.000  H
  H41      1.0000 0.95650  0.15800  0.66000  Biso   1.000  H
  H42      1.0000 0.45650  0.65800  0.66000  Biso   1.000  H
  H43      1.0000 0.04350  0.15800  0.84000  Biso   1.000  H
  H44      1.0000 0.54350  0.65800  0.84000  Biso   1.000  H
  H45      1.0000 0.04350  0.84200  0.34000  Biso   1.000  H
  H46      1.0000 0.54350  0.34200  0.34000  Biso   1.000  H
  H47      1.0000 0.95650  0.84200  0.16000  Biso   1.000  H
  H48      1.0000 0.45650  0.34200  0.16000  Biso   1.000  H
  N1       1.0000 0.91765  0.51790  0.42226  Biso   1.000  N
  N2       1.0000 0.41765  0.01790  0.42226  Biso   1.000  N
  N3       1.0000 0.08235  0.51790  0.07774  Biso   1.000  N
  N4       1.0000 0.58235  0.01790  0.07774  Biso   1.000  N
  N5       1.0000 0.08235  0.48210  0.57774  Biso   1.000  N
  N6       1.0000 0.58235  0.98210  0.57774  Biso   1.000  N
  N7       1.0000 0.91765  0.48210  0.92226  Biso   1.000  N
  N8       1.0000 0.41765  0.98210  0.92226  Biso   1.000  N
  H49      1.0000 0.93300  0.52330  0.37810  Biso   1.000  H
  H50      1.0000 0.43300  0.02330  0.37810  Biso   1.000  H
  H51      1.0000 0.06700  0.52330  0.12190  Biso   1.000  H
  H52      1.0000 0.56700  0.02330  0.12190  Biso   1.000  H
  H53      1.0000 0.06700  0.47670  0.62190  Biso   1.000  H
  H54      1.0000 0.56700  0.97670  0.62190  Biso   1.000  H
  H55      1.0000 0.93300  0.47670  0.87810  Biso   1.000  H
  H56      1.0000 0.43300  0.97670  0.87810  Biso   1.000  H
  C1       1.0000 0.90986  0.34500  0.45576  Biso   1.000  C
  C2       1.0000 0.40986  0.84500  0.45576  Biso   1.000  C
  C3       1.0000 0.09014  0.34500  0.04424  Biso   1.000  C
  C4       1.0000 0.59014  0.84500  0.04424  Biso   1.000  C
  C5       1.0000 0.09014  0.65500  0.54424  Biso   1.000  C
  C6       1.0000 0.59014  0.15500  0.54424  Biso   1.000  C
  C7       1.0000 0.90986  0.65500  0.95576  Biso   1.000  C
  C8       1.0000 0.40986  0.15500  0.95576  Biso   1.000  C
  N9       1.0000 0.92799  0.20360  0.41740  Biso   1.000  N
  N10      1.0000 0.42799  0.70360  0.41740  Biso   1.000  N
  N11      1.0000 0.07201  0.20360  0.08260  Biso   1.000  N
  N12      1.0000 0.57201  0.70360  0.08260  Biso   1.000  N
  N13      1.0000 0.07201  0.79640  0.58260  Biso   1.000  N
  N14      1.0000 0.57201  0.29640  0.58260  Biso   1.000  N
  N15      1.0000 0.92799  0.79640  0.91740  Biso   1.000  N
  N16      1.0000 0.42799  0.29640  0.91740  Biso   1.000  N
  H57      1.0000 0.92400  0.09140  0.43500  Biso   1.000  H
  H58      1.0000 0.42400  0.59140  0.43500  Biso   1.000  H
  H59      1.0000 0.07600  0.09140  0.06500  Biso   1.000  H
  H60      1.0000 0.57600  0.59140  0.06500  Biso   1.000  H
  H61      1.0000 0.07600  0.90860  0.56500  Biso   1.000  H
  H62      1.0000 0.57600  0.40860  0.56500  Biso   1.000  H
  H63      1.0000 0.92400  0.90860  0.93500  Biso   1.000  H
  H64      1.0000 0.42400  0.40860  0.93500  Biso   1.000  H
  H65      1.0000 0.94370  0.22430  0.37500  Biso   1.000  H
  H66      1.0000 0.44370  0.72430  0.37500  Biso   1.000  H
  H67      1.0000 0.05630  0.22430  0.12500  Biso   1.000  H
  H68      1.0000 0.55630  0.72430  0.12500  Biso   1.000  H
  H69      1.0000 0.05630  0.77570  0.62500  Biso   1.000  H
  H70      1.0000 0.55630  0.27570  0.62500  Biso   1.000  H
  H71      1.0000 0.94370  0.77570  0.87500  Biso   1.000  H
  H72      1.0000 0.44370  0.27570  0.87500  Biso   1.000  H
  N17      1.0000 0.88506  0.31883  0.52218  Biso   1.000  N
  N18      1.0000 0.38506  0.81883  0.52218  Biso   1.000  N
  N19      1.0000 0.11494  0.31883  0.97782  Biso   1.000  N
  N20      1.0000 0.61494  0.81883  0.97782  Biso   1.000  N
  N21      1.0000 0.11494  0.68117  0.47782  Biso   1.000  N
  N22      1.0000 0.61494  0.18117  0.47782  Biso   1.000  N
  N23      1.0000 0.88506  0.68117  0.02218  Biso   1.000  N
  N24      1.0000 0.38506  0.18117  0.02218  Biso   1.000  N
  C9       1.0000 0.87163  0.48170  0.55773  Biso   1.000  C
  C10      1.0000 0.37163  0.98170  0.55773  Biso   1.000  C
  C11      1.0000 0.12837  0.48170  0.94227  Biso   1.000  C
  C12      1.0000 0.62837  0.98170  0.94227  Biso   1.000  C
  C13      1.0000 0.12837  0.51830  0.44227  Biso   1.000  C
  C14      1.0000 0.62837  0.01830  0.44227  Biso   1.000  C
  C15      1.0000 0.87163  0.51830  0.05773  Biso   1.000  C
  C16      1.0000 0.37163  0.01830  0.05773  Biso   1.000  C
  C17      1.0000 0.88084  0.65850  0.52960  Biso   1.000  C
  C18      1.0000 0.38084  0.15850  0.52960  Biso   1.000  C
  C19      1.0000 0.11916  0.65850  0.97040  Biso   1.000  C
  C20      1.0000 0.61916  0.15850  0.97040  Biso   1.000  C
  C21      1.0000 0.11916  0.34150  0.47040  Biso   1.000  C
  C22      1.0000 0.61916  0.84150  0.47040  Biso   1.000  C
  C23      1.0000 0.88084  0.34150  0.02960  Biso   1.000  C
  C24      1.0000 0.38084  0.84150  0.02960  Biso   1.000  C
  C25      1.0000 0.90302  0.68410  0.45307  Biso   1.000  C
  C26      1.0000 0.40302  0.18410  0.45307  Biso   1.000  C
  C27      1.0000 0.09698  0.68410  0.04693  Biso   1.000  C
  C28      1.0000 0.59698  0.18410  0.04693  Biso   1.000  C
  C29      1.0000 0.09698  0.31590  0.54693  Biso   1.000  C
  C30      1.0000 0.59698  0.81590  0.54693  Biso   1.000  C
  C31      1.0000 0.90302  0.31590  0.95307  Biso   1.000  C
  C32      1.0000 0.40302  0.81590  0.95307  Biso   1.000  C
  O25      1.0000 0.90919  0.83349  0.41260  Biso   1.000  O
  O26      1.0000 0.40919  0.33349  0.41260  Biso   1.000  O
  O27      1.0000 0.09081  0.83349  0.08740  Biso   1.000  O
  O28      1.0000 0.59081  0.33349  0.08740  Biso   1.000  O
  O29      1.0000 0.09081  0.16651  0.58740  Biso   1.000  O
  O30      1.0000 0.59081  0.66651  0.58740  Biso   1.000  O
  O31      1.0000 0.90919  0.16651  0.91260  Biso   1.000  O
  O32      1.0000 0.40919  0.66651  0.91260  Biso   1.000  O
  N25      1.0000 0.86287  0.78893  0.58242  Biso   1.000  N
  N26      1.0000 0.36287  0.28893  0.58242  Biso   1.000  N
  N27      1.0000 0.13713  0.78893  0.91758  Biso   1.000  N
  N28      1.0000 0.63713  0.28893  0.91758  Biso   1.000  N
  N29      1.0000 0.13713  0.21107  0.41758  Biso   1.000  N
  N30      1.0000 0.63713  0.71107  0.41758  Biso   1.000  N
  N31      1.0000 0.86287  0.21107  0.08242  Biso   1.000  N
  N32      1.0000 0.36287  0.71107  0.08242  Biso   1.000  N
  C33      1.0000 0.84270  0.69120  0.63989  Biso   1.000  C
  C34      1.0000 0.34270  0.19120  0.63989  Biso   1.000  C
  C35      1.0000 0.15730  0.69120  0.86011  Biso   1.000  C
  C36      1.0000 0.65730  0.19120  0.86011  Biso   1.000  C
  C37      1.0000 0.15730  0.30880  0.36011  Biso   1.000  C
  C38      1.0000 0.65730  0.80880  0.36011  Biso   1.000  C
  C39      1.0000 0.84270  0.30880  0.13989  Biso   1.000  C
  C40      1.0000 0.34270  0.80880  0.13989  Biso   1.000  C
  H73      1.0000 0.82760  0.74300  0.68400  Biso   1.000  H
  H74      1.0000 0.32760  0.24300  0.68400  Biso   1.000  H
  H75      1.0000 0.17240  0.74300  0.81600  Biso   1.000  H
  H76      1.0000 0.67240  0.24300  0.81600  Biso   1.000  H
  H77      1.0000 0.17240  0.25700  0.31600  Biso   1.000  H
  H78      1.0000 0.67240  0.75700  0.31600  Biso   1.000  H
  H79      1.0000 0.82760  0.25700  0.18400  Biso   1.000  H
  H80      1.0000 0.32760  0.75700  0.18400  Biso   1.000  H
  N33      1.0000 0.84691  0.50420  0.62611  Biso   1.000  N
  N34      1.0000 0.34691  0.00420  0.62611  Biso   1.000  N
  N35      1.0000 0.15309  0.50420  0.87389  Biso   1.000  N
  N36      1.0000 0.65309  0.00420  0.87389  Biso   1.000  N
  N37      1.0000 0.15309  0.49580  0.37389  Biso   1.000  N
  N38      1.0000 0.65309  0.99580  0.37389  Biso   1.000  N
  N39      1.0000 0.84691  0.49580  0.12611  Biso   1.000  N
  N40      1.0000 0.34691  0.99580  0.12611  Biso   1.000  N
  H81      1.0000 0.83590  0.41670  0.65540  Biso   1.000  H
  H82      1.0000 0.33590  0.91670  0.65540  Biso   1.000  H
  H83      1.0000 0.16410  0.41670  0.84460  Biso   1.000  H
  H84      1.0000 0.66410  0.91670  0.84460  Biso   1.000  H
  H85      1.0000 0.16410  0.58330  0.34460  Biso   1.000  H
  H86      1.0000 0.66410  0.08330  0.34460  Biso   1.000  H
  H87      1.0000 0.83590  0.58330  0.15540  Biso   1.000  H
  H88      1.0000 0.33590  0.08330  0.15540  Biso   1.000  H
  B1       1.0000 0.76992  0.55640  0.33400  Biso   1.000  B
  B2       1.0000 0.26992  0.05640  0.33400  Biso   1.000  B
  B3       1.0000 0.23008  0.55640  0.16600  Biso   1.000  B
  B4       1.0000 0.73008  0.05640  0.16600  Biso   1.000  B
  B5       1.0000 0.23008  0.44360  0.66600  Biso   1.000  B
  B6       1.0000 0.73008  0.94360  0.66600  Biso   1.000  B
  B7       1.0000 0.76992  0.44360  0.83400  Biso   1.000  B
  B8       1.0000 0.26992  0.94360  0.83400  Biso   1.000  B
  F1       1.0000 0.77032  0.40580  0.39760  Biso   1.000  F
  F2       1.0000 0.27032  0.90580  0.39760  Biso   1.000  F
  F3       1.0000 0.22968  0.40580  0.10240  Biso   1.000  F
  F4       1.0000 0.72968  0.90580  0.10240  Biso   1.000  F
  F5       1.0000 0.22968  0.59420  0.60240  Biso   1.000  F
  F6       1.0000 0.72968  0.09420  0.60240  Biso   1.000  F
  F7       1.0000 0.77032  0.59420  0.89760  Biso   1.000  F
  F8       1.0000 0.27032  0.09420  0.89760  Biso   1.000  F
  F9       1.0000 0.77440  0.71580  0.39192  Biso   1.000  F
  F10      1.0000 0.27440  0.21580  0.39192  Biso   1.000  F
  F11      1.0000 0.22560  0.71580  0.10808  Biso   1.000  F
  F12      1.0000 0.72560  0.21580  0.10808  Biso   1.000  F
  F13      1.0000 0.22560  0.28420  0.60808  Biso   1.000  F
  F14      1.0000 0.72560  0.78420  0.60808  Biso   1.000  F
  F15      1.0000 0.77440  0.28420  0.89192  Biso   1.000  F
  F16      1.0000 0.27440  0.78420  0.89192  Biso   1.000  F
  F17      1.0000 0.72541  0.55680  0.26056  Biso   1.000  F
  F18      1.0000 0.22541  0.05680  0.26056  Biso   1.000  F
  F19      1.0000 0.27459  0.55680  0.23944  Biso   1.000  F
  F20      1.0000 0.77459  0.05680  0.23944  Biso   1.000  F
  F21      1.0000 0.27459  0.44320  0.73944  Biso   1.000  F
  F22      1.0000 0.77459  0.94320  0.73944  Biso   1.000  F
  F23      1.0000 0.72541  0.44320  0.76056  Biso   1.000  F
  F24      1.0000 0.22541  0.94320  0.76056  Biso   1.000  F
  F25      1.0000 0.80615  0.54080  0.29330  Biso   1.000  F
  F26      1.0000 0.30615  0.04080  0.29330  Biso   1.000  F
  F27      1.0000 0.19385  0.54080  0.20670  Biso   1.000  F
  F28      1.0000 0.69385  0.04080  0.20670  Biso   1.000  F
  F29      1.0000 0.19385  0.45920  0.70670  Biso   1.000  F
  F30      1.0000 0.69385  0.95920  0.70670  Biso   1.000  F
  F31      1.0000 0.80615  0.45920  0.79330  Biso   1.000  F
  F32      1.0000 0.30615  0.95920  0.79330  Biso   1.000  F
  Si1      1.0000 0.00000  0.54407  0.75000  Biso   1.000  Si
  Si2      1.0000 0.50000  0.04407  0.75000  Biso   1.000  Si
  Si3      1.0000 0.00000  0.45593  0.25000  Biso   1.000  Si
  Si4      1.0000 0.50000  0.95593  0.25000  Biso   1.000  Si
  F33      1.0000 0.94338  0.54960  0.75034  Biso   1.000  F
  F34      1.0000 0.44338  0.04960  0.75034  Biso   1.000  F
  F35      1.0000 0.05662  0.54960  0.74966  Biso   1.000  F
  F36      1.0000 0.55662  0.04960  0.74966  Biso   1.000  F
  F37      1.0000 0.05662  0.45040  0.24966  Biso   1.000  F
  F38      1.0000 0.55662  0.95040  0.24966  Biso   1.000  F
  F39      1.0000 0.94338  0.45040  0.25034  Biso   1.000  F
  F40      1.0000 0.44338  0.95040  0.25034  Biso   1.000  F
  F41      1.0000 0.98775  0.71540  0.65914  Biso   1.000  F
  F42      1.0000 0.48775  0.21540  0.65914  Biso   1.000  F
  F43      1.0000 0.01225  0.71540  0.84086  Biso   1.000  F
  F44      1.0000 0.51225  0.21540  0.84086  Biso   1.000  F
  F45      1.0000 0.01225  0.28460  0.34086  Biso   1.000  F
  F46      1.0000 0.51225  0.78460  0.34086  Biso   1.000  F
  F47      1.0000 0.98775  0.28460  0.15914  Biso   1.000  F
  F48      1.0000 0.48775  0.78460  0.15914  Biso   1.000  F
  F49      1.0000 0.98742  0.38100  0.65839  Biso   1.000  F
  F50      1.0000 0.48742  0.88100  0.65839  Biso   1.000  F
  F51      1.0000 0.01258  0.38100  0.84161  Biso   1.000  F
  F52      1.0000 0.51258  0.88100  0.84161  Biso   1.000  F
  F53      1.0000 0.01258  0.61900  0.34161  Biso   1.000  F
  F54      1.0000 0.51258  0.11900  0.34161  Biso   1.000  F
  F55      1.0000 0.98742  0.61900  0.15839  Biso   1.000  F
  F56      1.0000 0.48742  0.11900  0.15839  Biso   1.000  F
  F57      1.0000 0.98910  0.54300  0.62370  Biso   1.000  F
  F58      1.0000 0.48910  0.04300  0.62370  Biso   1.000  F
  F59      1.0000 0.01090  0.54300  0.87630  Biso   1.000  F
  F60      1.0000 0.51090  0.04300  0.87630  Biso   1.000  F
  F61      1.0000 0.01090  0.45700  0.37630  Biso   1.000  F
  F62      1.0000 0.51090  0.95700  0.37630  Biso   1.000  F
  F63      1.0000 0.98910  0.45700  0.12370  Biso   1.000  F
  F64      1.0000 0.48910  0.95700  0.12370  Biso   1.000  F
  F65      1.0000 0.95810  0.70880  0.73960  Biso   1.000  F
  F66      1.0000 0.45810  0.20880  0.73960  Biso   1.000  F
  F67      1.0000 0.04190  0.70880  0.76040  Biso   1.000  F
  F68      1.0000 0.54190  0.20880  0.76040  Biso   1.000  F
  F69      1.0000 0.04190  0.29120  0.26040  Biso   1.000  F
  F70      1.0000 0.54190  0.79120  0.26040  Biso   1.000  F
  F71      1.0000 0.95810  0.29120  0.23960  Biso   1.000  F
  F72      1.0000 0.45810  0.79120  0.23960  Biso   1.000  F
  F73      1.0000 0.95730  0.37900  0.74020  Biso   1.000  F
  F74      1.0000 0.45730  0.87900  0.74020  Biso   1.000  F
  F75      1.0000 0.04270  0.37900  0.75980  Biso   1.000  F
  F76      1.0000 0.54270  0.87900  0.75980  Biso   1.000  F
  F77      1.0000 0.04270  0.62100  0.25980  Biso   1.000  F
  F78      1.0000 0.54270  0.12100  0.25980  Biso   1.000  F
  F79      1.0000 0.95730  0.62100  0.24020  Biso   1.000  F
  F80      1.0000 0.45730  0.12100  0.24020  Biso   1.000  F
