data_image0
_cell_length_a       8.3167
_cell_length_b       18.549
_cell_length_c       12.895
_cell_angle_alpha    90
_cell_angle_beta     93.107
_cell_angle_gamma    90

_symmetry_space_group_name_H-M    "P 1"
_symmetry_int_tables_number       1

loop_
  _symmetry_equiv_pos_as_xyz
  'x, y, z'

loop_
  _atom_site_label
  _atom_site_occupancy
  _atom_site_fract_x
  _atom_site_fract_y
  _atom_site_fract_z
  _atom_site_thermal_displace_type
  _atom_site_B_iso_or_equiv
  _atom_site_type_symbol
  Cu1      1.0000 0.15914  0.66804  0.18628  Biso   1.000  Cu
  Cu2      1.0000 0.84086  0.16804  0.31372  Biso   1.000  Cu
  Cu3      1.0000 0.84086  0.33196  0.81372  Biso   1.000  Cu
  Cu4      1.0000 0.15914  0.83196  0.68628  Biso   1.000  Cu
  S1       1.0000 0.29760  0.39640  0.59736  Biso   1.000  S
  S2       1.0000 0.70240  0.89640  0.90264  Biso   1.000  S
  S3       1.0000 0.70240  0.60360  0.40264  Biso   1.000  S
  S4       1.0000 0.29760  0.10360  0.09736  Biso   1.000  S
  O1       1.0000 0.93800  0.70249  0.18990  Biso   1.000  O
  O2       1.0000 0.06200  0.20249  0.31010  Biso   1.000  O
  O3       1.0000 0.06200  0.29751  0.81010  Biso   1.000  O
  O4       1.0000 0.93800  0.79751  0.68990  Biso   1.000  O
  O5       1.0000 0.08560  0.55259  0.13970  Biso   1.000  O
  O6       1.0000 0.91440  0.05259  0.36030  Biso   1.000  O
  O7       1.0000 0.91440  0.44741  0.86030  Biso   1.000  O
  O8       1.0000 0.08560  0.94741  0.63970  Biso   1.000  O
  O9       1.0000 0.38850  0.64950  0.18900  Biso   1.000  O
  O10      1.0000 0.61150  0.14950  0.31100  Biso   1.000  O
  O11      1.0000 0.61150  0.35050  0.81100  Biso   1.000  O
  O12      1.0000 0.38850  0.85050  0.68900  Biso   1.000  O
  O13      1.0000 0.18100  0.65733  0.66480  Biso   1.000  O
  O14      1.0000 0.81900  0.15733  0.83520  Biso   1.000  O
  O15      1.0000 0.81900  0.34267  0.33520  Biso   1.000  O
  O16      1.0000 0.18100  0.84267  0.16480  Biso   1.000  O
  N1       1.0000 0.17710  0.60317  0.50640  Biso   1.000  N
  N2       1.0000 0.82290  0.10317  0.99360  Biso   1.000  N
  N3       1.0000 0.82290  0.39683  0.49360  Biso   1.000  N
  N4       1.0000 0.17710  0.89683  0.00640  Biso   1.000  N
  H1       1.0000 0.18220  0.56210  0.53740  Biso   1.000  H
  H2       1.0000 0.81780  0.06210  0.96260  Biso   1.000  H
  H3       1.0000 0.81780  0.43790  0.46260  Biso   1.000  H
  H4       1.0000 0.18220  0.93790  0.03740  Biso   1.000  H
  C1       1.0000 0.16270  0.72363  0.40290  Biso   1.000  C
  C2       1.0000 0.83730  0.22363  0.09710  Biso   1.000  C
  C3       1.0000 0.83730  0.27637  0.59710  Biso   1.000  C
  C4       1.0000 0.16270  0.77637  0.90290  Biso   1.000  C
  C5       1.0000 0.17250  0.60170  0.40030  Biso   1.000  C
  C6       1.0000 0.82750  0.10170  0.09970  Biso   1.000  C
  C7       1.0000 0.82750  0.39830  0.59970  Biso   1.000  C
  C8       1.0000 0.17250  0.89830  0.90030  Biso   1.000  C
  C9       1.0000 0.17440  0.66372  0.56990  Biso   1.000  C
  C10      1.0000 0.82560  0.16372  0.93010  Biso   1.000  C
  C11      1.0000 0.82560  0.33628  0.43010  Biso   1.000  C
  C12      1.0000 0.17440  0.83628  0.06990  Biso   1.000  C
  N5       1.0000 0.17470  0.53747  0.35610  Biso   1.000  N
  N6       1.0000 0.82530  0.03747  0.14390  Biso   1.000  N
  N7       1.0000 0.82530  0.46253  0.64390  Biso   1.000  N
  N8       1.0000 0.17470  0.96253  0.85610  Biso   1.000  N
  H5       1.0000 0.17290  0.53390  0.28950  Biso   1.000  H
  H6       1.0000 0.82710  0.03390  0.21050  Biso   1.000  H
  H7       1.0000 0.82710  0.46610  0.71050  Biso   1.000  H
  H8       1.0000 0.17290  0.96610  0.78950  Biso   1.000  H
  H9       1.0000 0.17800  0.49920  0.39380  Biso   1.000  H
  H10      1.0000 0.82200  0.99920  0.10620  Biso   1.000  H
  H11      1.0000 0.82200  0.50080  0.60620  Biso   1.000  H
  H12      1.0000 0.17800  0.00080  0.89380  Biso   1.000  H
  N9       1.0000 0.16740  0.66194  0.34340  Biso   1.000  N
  N10      1.0000 0.83260  0.16194  0.15660  Biso   1.000  N
  N11      1.0000 0.83260  0.33806  0.65660  Biso   1.000  N
  N12      1.0000 0.16740  0.83806  0.84340  Biso   1.000  N
  N13      1.0000 0.15850  0.79275  0.36790  Biso   1.000  N
  N14      1.0000 0.84150  0.29275  0.13210  Biso   1.000  N
  N15      1.0000 0.84150  0.20725  0.63210  Biso   1.000  N
  N16      1.0000 0.15850  0.70725  0.86790  Biso   1.000  N
  H13      1.0000 0.15630  0.80630  0.30400  Biso   1.000  H
  H14      1.0000 0.84370  0.30630  0.19600  Biso   1.000  H
  H15      1.0000 0.84370  0.19370  0.69600  Biso   1.000  H
  H16      1.0000 0.15630  0.69370  0.80400  Biso   1.000  H
  C13      1.0000 0.16420  0.72715  0.50900  Biso   1.000  C
  C14      1.0000 0.83580  0.22715  0.99100  Biso   1.000  C
  C15      1.0000 0.83580  0.27285  0.49100  Biso   1.000  C
  C16      1.0000 0.16420  0.77285  0.00900  Biso   1.000  C
  C17      1.0000 0.15830  0.83630  0.45180  Biso   1.000  C
  C18      1.0000 0.84170  0.33630  0.04820  Biso   1.000  C
  C19      1.0000 0.84170  0.16370  0.54820  Biso   1.000  C
  C20      1.0000 0.15830  0.66370  0.95180  Biso   1.000  C
  H17      1.0000 0.15550  0.88630  0.44860  Biso   1.000  H
  H18      1.0000 0.84450  0.38630  0.05140  Biso   1.000  H
  H19      1.0000 0.84450  0.11370  0.55140  Biso   1.000  H
  H20      1.0000 0.15550  0.61370  0.94860  Biso   1.000  H
  N17      1.0000 0.16260  0.79893  0.53900  Biso   1.000  N
  N18      1.0000 0.83740  0.29893  0.96100  Biso   1.000  N
  N19      1.0000 0.83740  0.20107  0.46100  Biso   1.000  N
  N20      1.0000 0.16260  0.70107  0.03900  Biso   1.000  N
  O17      1.0000 0.20890  0.33916  0.64040  Biso   1.000  O
  O18      1.0000 0.79110  0.83916  0.85960  Biso   1.000  O
  O19      1.0000 0.79110  0.66084  0.35960  Biso   1.000  O
  O20      1.0000 0.20890  0.16084  0.14040  Biso   1.000  O
  O21      1.0000 0.19730  0.45434  0.55660  Biso   1.000  O
  O22      1.0000 0.80270  0.95434  0.94340  Biso   1.000  O
  O23      1.0000 0.80270  0.54566  0.44340  Biso   1.000  O
  O24      1.0000 0.19730  0.04566  0.05660  Biso   1.000  O
  O25      1.0000 0.44230  0.41780  0.65440  Biso   1.000  O
  O26      1.0000 0.55770  0.91780  0.84560  Biso   1.000  O
  O27      1.0000 0.55770  0.58220  0.34560  Biso   1.000  O
  O28      1.0000 0.44230  0.08220  0.15440  Biso   1.000  O
  C21      1.0000 0.36990  0.35630  0.47960  Biso   1.000  C
  C22      1.0000 0.63010  0.85630  0.02040  Biso   1.000  C
  C23      1.0000 0.63010  0.64370  0.52040  Biso   1.000  C
  C24      1.0000 0.36990  0.14370  0.97960  Biso   1.000  C
  F1       1.0000 0.24930  0.33220  0.41910  Biso   1.000  F
  F2       1.0000 0.75070  0.83220  0.08090  Biso   1.000  F
  F3       1.0000 0.75070  0.66780  0.58090  Biso   1.000  F
  F4       1.0000 0.24930  0.16780  0.91910  Biso   1.000  F
  F5       1.0000 0.44980  0.40480  0.42800  Biso   1.000  F
  F6       1.0000 0.55020  0.90480  0.07200  Biso   1.000  F
  F7       1.0000 0.55020  0.59520  0.57200  Biso   1.000  F
  F8       1.0000 0.44980  0.09520  0.92800  Biso   1.000  F
  F9       1.0000 0.46930  0.30210  0.50250  Biso   1.000  F
  F10      1.0000 0.53070  0.80210  0.99750  Biso   1.000  F
  F11      1.0000 0.53070  0.69790  0.49750  Biso   1.000  F
  F12      1.0000 0.46930  0.19790  0.00250  Biso   1.000  F
  O29      1.0000 0.19320  0.97890  0.31140  Biso   1.000  O
  O30      1.0000 0.80680  0.47890  0.18860  Biso   1.000  O
  O31      1.0000 0.80680  0.02110  0.68860  Biso   1.000  O
  O32      1.0000 0.19320  0.52110  0.81140  Biso   1.000  O
  H21      1.0000 0.44700  0.63900  0.12910  Biso   1.000  H
  H22      1.0000 0.55300  0.13900  0.37090  Biso   1.000  H
  H23      1.0000 0.55300  0.36100  0.87090  Biso   1.000  H
  H24      1.0000 0.44700  0.86100  0.62910  Biso   1.000  H
  H25      1.0000 0.15500  0.52100  0.10500  Biso   1.000  H
  H26      1.0000 0.84500  0.02100  0.39500  Biso   1.000  H
  H27      1.0000 0.84500  0.47900  0.89500  Biso   1.000  H
  H28      1.0000 0.15500  0.97900  0.60500  Biso   1.000  H
  H29      1.0000 0.86300  0.69700  0.13100  Biso   1.000  H
  H30      1.0000 0.13700  0.19700  0.36900  Biso   1.000  H
  H31      1.0000 0.13700  0.30300  0.86900  Biso   1.000  H
  H32      1.0000 0.86300  0.80300  0.63100  Biso   1.000  H
  H33      1.0000 0.97900  0.53600  0.12300  Biso   1.000  H
  H34      1.0000 0.02100  0.03600  0.37700  Biso   1.000  H
  H35      1.0000 0.02100  0.46400  0.87700  Biso   1.000  H
  H36      1.0000 0.97900  0.96400  0.62300  Biso   1.000  H
  H37      1.0000 0.87800  0.68100  0.24300  Biso   1.000  H
  H38      1.0000 0.12200  0.18100  0.25700  Biso   1.000  H
  H39      1.0000 0.12200  0.31900  0.75700  Biso   1.000  H
  H40      1.0000 0.87800  0.81900  0.74300  Biso   1.000  H
  H41      1.0000 0.46500  0.64100  0.24600  Biso   1.000  H
  H42      1.0000 0.53500  0.14100  0.25400  Biso   1.000  H
  H43      1.0000 0.53500  0.35900  0.75400  Biso   1.000  H
  H44      1.0000 0.46500  0.85900  0.74600  Biso   1.000  H
  S5       1.0000 0.32329  0.39290  0.02100  Biso   1.000  S
  S6       1.0000 0.67671  0.89290  0.47900  Biso   1.000  S
  S7       1.0000 0.67671  0.60710  0.97900  Biso   1.000  S
  S8       1.0000 0.32329  0.10710  0.52100  Biso   1.000  S
  C25      1.0000 0.35120  0.37930  0.15930  Biso   1.000  C
  C26      1.0000 0.64880  0.87930  0.34070  Biso   1.000  C
  C27      1.0000 0.64880  0.62070  0.84070  Biso   1.000  C
  C28      1.0000 0.35120  0.12070  0.65930  Biso   1.000  C
  F13      1.0000 0.43030  0.32150  0.18300  Biso   1.000  F
  F14      1.0000 0.56970  0.82150  0.31700  Biso   1.000  F
  F15      1.0000 0.56970  0.67850  0.81700  Biso   1.000  F
  F16      1.0000 0.43030  0.17850  0.68300  Biso   1.000  F
  F17      1.0000 0.21320  0.37920  0.20390  Biso   1.000  F
  F18      1.0000 0.78680  0.87920  0.29610  Biso   1.000  F
  F19      1.0000 0.78680  0.62080  0.79610  Biso   1.000  F
  F20      1.0000 0.21320  0.12080  0.70390  Biso   1.000  F
  F21      1.0000 0.42570  0.43430  0.20290  Biso   1.000  F
  F22      1.0000 0.57430  0.93430  0.29710  Biso   1.000  F
  F23      1.0000 0.57430  0.56570  0.79710  Biso   1.000  F
  F24      1.0000 0.42570  0.06570  0.70290  Biso   1.000  F
  O33      1.0000 0.23190  0.33020  0.98800  Biso   1.000  O
  O34      1.0000 0.76810  0.83020  0.51200  Biso   1.000  O
  O35      1.0000 0.76810  0.66980  0.01200  Biso   1.000  O
  O36      1.0000 0.23190  0.16980  0.48800  Biso   1.000  O
  O37      1.0000 0.23260  0.45850  0.00970  Biso   1.000  O
  O38      1.0000 0.76740  0.95850  0.49030  Biso   1.000  O
  O39      1.0000 0.76740  0.54150  0.99030  Biso   1.000  O
  O40      1.0000 0.23260  0.04150  0.50970  Biso   1.000  O
  O41      1.0000 0.48170  0.39630  0.98680  Biso   1.000  O
  O42      1.0000 0.51830  0.89630  0.51320  Biso   1.000  O
  O43      1.0000 0.51830  0.60370  0.01320  Biso   1.000  O
  O44      1.0000 0.48170  0.10370  0.48680  Biso   1.000  O
