data_image0
_cell_length_a       6.3707
_cell_length_b       7.4332
_cell_length_c       9.176
_cell_angle_alpha    96.591
_cell_angle_beta     107.95
_cell_angle_gamma    92.212

_symmetry_space_group_name_H-M    "P 1"
_symmetry_int_tables_number       1

loop_
  _symmetry_equiv_pos_as_xyz
  'x, y, z'

loop_
  _atom_site_label
  _atom_site_occupancy
  _atom_site_fract_x
  _atom_site_fract_y
  _atom_site_fract_z
  _atom_site_thermal_displace_type
  _atom_site_B_iso_or_equiv
  _atom_site_type_symbol
  C1       1.0000 0.36350  0.73000  0.72810  Biso   1.000  C
  C2       1.0000 0.63650  0.27000  0.27190  Biso   1.000  C
  C3       1.0000 0.43430  0.87110  0.86940  Biso   1.000  C
  C4       1.0000 0.56570  0.12890  0.13060  Biso   1.000  C
  C5       1.0000 0.27790  0.95720  0.92260  Biso   1.000  C
  C6       1.0000 0.72210  0.04280  0.07740  Biso   1.000  C
  H1       1.0000 0.12800  0.92810  0.87100  Biso   1.000  H
  H2       1.0000 0.87200  0.07190  0.12900  Biso   1.000  H
  C7       1.0000 0.65610  0.91400  0.94810  Biso   1.000  C
  C8       1.0000 0.34390  0.08600  0.05190  Biso   1.000  C
  H3       1.0000 0.76190  0.85560  0.91370  Biso   1.000  H
  H4       1.0000 0.23810  0.14440  0.08630  Biso   1.000  H
  C9       1.0000 0.11990  0.62560  0.18380  Biso   1.000  C
  C10      1.0000 0.88010  0.37440  0.81620  Biso   1.000  C
  H5       1.0000 0.97840  0.67340  0.14500  Biso   1.000  H
  H6       1.0000 0.02160  0.32660  0.85500  Biso   1.000  H
  H7       1.0000 0.10680  0.49730  0.15020  Biso   1.000  H
  H8       1.0000 0.89320  0.50270  0.84980  Biso   1.000  H
  H9       1.0000 0.22490  0.68460  0.14540  Biso   1.000  H
  H10      1.0000 0.77510  0.31540  0.85460  Biso   1.000  H
  Cu1      1.0000 0.50000  0.50000  0.50000  Biso   1.000  Cu
  Cu2      1.0000 0.00000  0.50000  0.50000  Biso   1.000  Cu
  N1       1.0000 0.25910  0.34920  0.53820  Biso   1.000  N
  N2       1.0000 0.74090  0.65080  0.46180  Biso   1.000  N
  N3       1.0000 0.23970  0.18830  0.49590  Biso   1.000  N
  N4       1.0000 0.76030  0.81170  0.50410  Biso   1.000  N
  N5       1.0000 0.22200  0.03560  0.45720  Biso   1.000  N
  N6       1.0000 0.77800  0.96440  0.54280  Biso   1.000  N
  O1       1.0000 0.51330  0.67650  0.67670  Biso   1.000  O
  O2       1.0000 0.48670  0.32350  0.32330  Biso   1.000  O
  O3       1.0000 0.16170  0.68120  0.67420  Biso   1.000  O
  O4       1.0000 0.83830  0.31880  0.32580  Biso   1.000  O
  O5       1.0000 0.19280  0.65710  0.34710  Biso   1.000  O
  O6       1.0000 0.80720  0.34290  0.65290  Biso   1.000  O
  H11      1.0000 0.19850  0.76630  0.37580  Biso   1.000  H
  H12      1.0000 0.80150  0.23370  0.62420  Biso   1.000  H
