data_image0
_cell_length_a       15.979
_cell_length_b       11.31
_cell_length_c       8.5968
_cell_angle_alpha    90
_cell_angle_beta     94.62
_cell_angle_gamma    90

_symmetry_space_group_name_H-M    "P 1"
_symmetry_int_tables_number       1

loop_
  _symmetry_equiv_pos_as_xyz
  'x, y, z'

loop_
  _atom_site_label
  _atom_site_occupancy
  _atom_site_fract_x
  _atom_site_fract_y
  _atom_site_fract_z
  _atom_site_thermal_displace_type
  _atom_site_B_iso_or_equiv
  _atom_site_type_symbol
  C1       1.0000 0.05422  0.15390  0.46890  Biso   1.000  C
  C2       1.0000 0.94578  0.15390  0.03110  Biso   1.000  C
  C3       1.0000 0.55422  0.65390  0.46890  Biso   1.000  C
  C4       1.0000 0.44578  0.65390  0.03110  Biso   1.000  C
  C5       1.0000 0.94578  0.84610  0.53110  Biso   1.000  C
  C6       1.0000 0.05422  0.84610  0.96890  Biso   1.000  C
  C7       1.0000 0.44578  0.34610  0.53110  Biso   1.000  C
  C8       1.0000 0.55422  0.34610  0.96890  Biso   1.000  C
  C9       1.0000 0.10660  0.07290  0.54860  Biso   1.000  C
  C10      1.0000 0.89340  0.07290  0.95140  Biso   1.000  C
  C11      1.0000 0.60660  0.57290  0.54860  Biso   1.000  C
  C12      1.0000 0.39340  0.57290  0.95140  Biso   1.000  C
  C13      1.0000 0.89340  0.92710  0.45140  Biso   1.000  C
  C14      1.0000 0.10660  0.92710  0.04860  Biso   1.000  C
  C15      1.0000 0.39340  0.42710  0.45140  Biso   1.000  C
  C16      1.0000 0.60660  0.42710  0.04860  Biso   1.000  C
  C17      1.0000 0.18790  0.05850  0.50980  Biso   1.000  C
  C18      1.0000 0.81210  0.05850  0.99020  Biso   1.000  C
  C19      1.0000 0.68790  0.55850  0.50980  Biso   1.000  C
  C20      1.0000 0.31210  0.55850  0.99020  Biso   1.000  C
  C21      1.0000 0.81210  0.94150  0.49020  Biso   1.000  C
  C22      1.0000 0.18790  0.94150  0.00980  Biso   1.000  C
  C23      1.0000 0.31210  0.44150  0.49020  Biso   1.000  C
  C24      1.0000 0.68790  0.44150  0.00980  Biso   1.000  C
  C25      1.0000 0.21541  0.12650  0.39150  Biso   1.000  C
  C26      1.0000 0.78459  0.12650  0.10850  Biso   1.000  C
  C27      1.0000 0.71541  0.62650  0.39150  Biso   1.000  C
  C28      1.0000 0.28459  0.62650  0.10850  Biso   1.000  C
  C29      1.0000 0.78459  0.87350  0.60850  Biso   1.000  C
  C30      1.0000 0.21541  0.87350  0.89150  Biso   1.000  C
  C31      1.0000 0.28459  0.37350  0.60850  Biso   1.000  C
  C32      1.0000 0.71541  0.37350  0.89150  Biso   1.000  C
  C33      1.0000 0.29079  0.14100  0.31820  Biso   1.000  C
  C34      1.0000 0.70921  0.14100  0.18180  Biso   1.000  C
  C35      1.0000 0.79079  0.64100  0.31820  Biso   1.000  C
  C36      1.0000 0.20921  0.64100  0.18180  Biso   1.000  C
  C37      1.0000 0.70921  0.85900  0.68180  Biso   1.000  C
  C38      1.0000 0.29079  0.85900  0.81820  Biso   1.000  C
  C39      1.0000 0.20921  0.35900  0.68180  Biso   1.000  C
  C40      1.0000 0.79079  0.35900  0.81820  Biso   1.000  C
  C41      1.0000 0.27734  0.22540  0.20870  Biso   1.000  C
  C42      1.0000 0.72266  0.22540  0.29130  Biso   1.000  C
  C43      1.0000 0.77734  0.72540  0.20870  Biso   1.000  C
  C44      1.0000 0.22266  0.72540  0.29130  Biso   1.000  C
  C45      1.0000 0.72266  0.77460  0.79130  Biso   1.000  C
  C46      1.0000 0.27734  0.77460  0.70870  Biso   1.000  C
  C47      1.0000 0.22266  0.27460  0.79130  Biso   1.000  C
  C48      1.0000 0.77734  0.27460  0.70870  Biso   1.000  C
  C49      1.0000 0.15766  0.20790  0.31860  Biso   1.000  C
  C50      1.0000 0.84234  0.20790  0.18140  Biso   1.000  C
  C51      1.0000 0.65766  0.70790  0.31860  Biso   1.000  C
  C52      1.0000 0.34234  0.70790  0.18140  Biso   1.000  C
  C53      1.0000 0.84234  0.79210  0.68140  Biso   1.000  C
  C54      1.0000 0.15766  0.79210  0.81860  Biso   1.000  C
  C55      1.0000 0.34234  0.29210  0.68140  Biso   1.000  C
  C56      1.0000 0.65766  0.29210  0.81860  Biso   1.000  C
  C57      1.0000 0.04060  0.52557  0.46800  Biso   1.000  C
  C58      1.0000 0.95940  0.52557  0.03200  Biso   1.000  C
  C59      1.0000 0.54060  0.02557  0.46800  Biso   1.000  C
  C60      1.0000 0.45940  0.02557  0.03200  Biso   1.000  C
  C61      1.0000 0.95940  0.47443  0.53200  Biso   1.000  C
  C62      1.0000 0.04060  0.47443  0.96800  Biso   1.000  C
  C63      1.0000 0.45940  0.97443  0.53200  Biso   1.000  C
  C64      1.0000 0.54060  0.97443  0.96800  Biso   1.000  C
  Cu1      1.0000 0.00000  0.34545  0.25000  Biso   1.000  Cu
  Cu2      1.0000 0.50000  0.84545  0.25000  Biso   1.000  Cu
  Cu3      1.0000 0.00000  0.65455  0.75000  Biso   1.000  Cu
  Cu4      1.0000 0.50000  0.15455  0.75000  Biso   1.000  Cu
  H1       1.0000 0.99960  0.16140  0.49740  Biso   1.000  H
  H2       1.0000 0.00040  0.16140  0.00260  Biso   1.000  H
  H3       1.0000 0.49960  0.66140  0.49740  Biso   1.000  H
  H4       1.0000 0.50040  0.66140  0.00260  Biso   1.000  H
  H5       1.0000 0.00040  0.83860  0.50260  Biso   1.000  H
  H6       1.0000 0.99960  0.83860  0.99740  Biso   1.000  H
  H7       1.0000 0.50040  0.33860  0.50260  Biso   1.000  H
  H8       1.0000 0.49960  0.33860  0.99740  Biso   1.000  H
  H9       1.0000 0.08680  0.02800  0.62860  Biso   1.000  H
  H10      1.0000 0.91320  0.02800  0.87140  Biso   1.000  H
  H11      1.0000 0.58680  0.52800  0.62860  Biso   1.000  H
  H12      1.0000 0.41320  0.52800  0.87140  Biso   1.000  H
  H13      1.0000 0.91320  0.97200  0.37140  Biso   1.000  H
  H14      1.0000 0.08680  0.97200  0.12860  Biso   1.000  H
  H15      1.0000 0.41320  0.47200  0.37140  Biso   1.000  H
  H16      1.0000 0.58680  0.47200  0.12860  Biso   1.000  H
  H17      1.0000 0.17360  0.32070  0.14900  Biso   1.000  H
  H18      1.0000 0.82640  0.32070  0.35100  Biso   1.000  H
  H19      1.0000 0.67360  0.82070  0.14900  Biso   1.000  H
  H20      1.0000 0.32640  0.82070  0.35100  Biso   1.000  H
  H21      1.0000 0.82640  0.67930  0.85100  Biso   1.000  H
  H22      1.0000 0.17360  0.67930  0.64900  Biso   1.000  H
  H23      1.0000 0.32640  0.17930  0.85100  Biso   1.000  H
  H24      1.0000 0.67360  0.17930  0.64900  Biso   1.000  H
  H25      1.0000 0.22340  0.00400  0.56240  Biso   1.000  H
  H26      1.0000 0.77660  0.00400  0.93760  Biso   1.000  H
  H27      1.0000 0.72340  0.50400  0.56240  Biso   1.000  H
  H28      1.0000 0.27660  0.50400  0.93760  Biso   1.000  H
  H29      1.0000 0.77660  0.99600  0.43760  Biso   1.000  H
  H30      1.0000 0.22340  0.99600  0.06240  Biso   1.000  H
  H31      1.0000 0.27660  0.49600  0.43760  Biso   1.000  H
  H32      1.0000 0.72340  0.49600  0.06240  Biso   1.000  H
  H33      1.0000 0.34060  0.09970  0.34130  Biso   1.000  H
  H34      1.0000 0.65940  0.09970  0.15870  Biso   1.000  H
  H35      1.0000 0.84060  0.59970  0.34130  Biso   1.000  H
  H36      1.0000 0.15940  0.59970  0.15870  Biso   1.000  H
  H37      1.0000 0.65940  0.90030  0.65870  Biso   1.000  H
  H38      1.0000 0.34060  0.90030  0.84130  Biso   1.000  H
  H39      1.0000 0.15940  0.40030  0.65870  Biso   1.000  H
  H40      1.0000 0.84060  0.40030  0.84130  Biso   1.000  H
  H41      1.0000 0.31680  0.25200  0.14290  Biso   1.000  H
  H42      1.0000 0.68320  0.25200  0.35710  Biso   1.000  H
  H43      1.0000 0.81680  0.75200  0.14290  Biso   1.000  H
  H44      1.0000 0.18320  0.75200  0.35710  Biso   1.000  H
  H45      1.0000 0.68320  0.74800  0.85710  Biso   1.000  H
  H46      1.0000 0.31680  0.74800  0.64290  Biso   1.000  H
  H47      1.0000 0.18320  0.24800  0.85710  Biso   1.000  H
  H48      1.0000 0.81680  0.24800  0.64290  Biso   1.000  H
  N1       1.0000 0.07784  0.22210  0.35310  Biso   1.000  N
  N2       1.0000 0.92216  0.22210  0.14690  Biso   1.000  N
  N3       1.0000 0.57784  0.72210  0.35310  Biso   1.000  N
  N4       1.0000 0.42216  0.72210  0.14690  Biso   1.000  N
  N5       1.0000 0.92216  0.77790  0.64690  Biso   1.000  N
  N6       1.0000 0.07784  0.77790  0.85310  Biso   1.000  N
  N7       1.0000 0.42216  0.27790  0.64690  Biso   1.000  N
  N8       1.0000 0.57784  0.27790  0.85310  Biso   1.000  N
  N9       1.0000 0.19597  0.26650  0.20910  Biso   1.000  N
  N10      1.0000 0.80403  0.26650  0.29090  Biso   1.000  N
  N11      1.0000 0.69597  0.76650  0.20910  Biso   1.000  N
  N12      1.0000 0.30403  0.76650  0.29090  Biso   1.000  N
  N13      1.0000 0.80403  0.73350  0.79090  Biso   1.000  N
  N14      1.0000 0.19597  0.73350  0.70910  Biso   1.000  N
  N15      1.0000 0.30403  0.23350  0.79090  Biso   1.000  N
  N16      1.0000 0.69597  0.23350  0.70910  Biso   1.000  N
  O1       1.0000 0.06991  0.47180  0.35727  Biso   1.000  O
  O2       1.0000 0.93009  0.47180  0.14273  Biso   1.000  O
  O3       1.0000 0.56991  0.97180  0.35727  Biso   1.000  O
  O4       1.0000 0.43009  0.97180  0.14273  Biso   1.000  O
  O5       1.0000 0.93009  0.52820  0.64273  Biso   1.000  O
  O6       1.0000 0.06991  0.52820  0.85727  Biso   1.000  O
  O7       1.0000 0.43009  0.02820  0.64273  Biso   1.000  O
  O8       1.0000 0.56991  0.02820  0.85727  Biso   1.000  O
  O9       1.0000 0.07098  0.61582  0.53255  Biso   1.000  O
  O10      1.0000 0.92902  0.61582  0.96745  Biso   1.000  O
  O11      1.0000 0.57098  0.11582  0.53255  Biso   1.000  O
  O12      1.0000 0.42902  0.11582  0.96745  Biso   1.000  O
  O13      1.0000 0.92902  0.38418  0.46745  Biso   1.000  O
  O14      1.0000 0.07098  0.38418  0.03255  Biso   1.000  O
  O15      1.0000 0.42902  0.88418  0.46745  Biso   1.000  O
  O16      1.0000 0.57098  0.88418  0.03255  Biso   1.000  O
