data_image0
_cell_length_a       7.2518
_cell_length_b       8.3493
_cell_length_c       20.456
_cell_angle_alpha    90
_cell_angle_beta     90.762
_cell_angle_gamma    90

_symmetry_space_group_name_H-M    "P 1"
_symmetry_int_tables_number       1

loop_
  _symmetry_equiv_pos_as_xyz
  'x, y, z'

loop_
  _atom_site_label
  _atom_site_occupancy
  _atom_site_fract_x
  _atom_site_fract_y
  _atom_site_fract_z
  _atom_site_thermal_displace_type
  _atom_site_B_iso_or_equiv
  _atom_site_type_symbol
  C1       1.0000 0.38530  0.62740  0.28448  Biso   1.000  C
  C2       1.0000 0.11470  0.12740  0.21552  Biso   1.000  C
  C3       1.0000 0.61470  0.37260  0.71552  Biso   1.000  C
  C4       1.0000 0.88530  0.87260  0.78448  Biso   1.000  C
  C5       1.0000 0.44720  0.59220  0.34696  Biso   1.000  C
  C6       1.0000 0.05280  0.09220  0.15304  Biso   1.000  C
  C7       1.0000 0.55280  0.40780  0.65304  Biso   1.000  C
  C8       1.0000 0.94720  0.90780  0.84696  Biso   1.000  C
  C9       1.0000 0.31110  0.50260  0.37466  Biso   1.000  C
  C10      1.0000 0.18890  0.00260  0.12534  Biso   1.000  C
  C11      1.0000 0.68890  0.49740  0.62534  Biso   1.000  C
  C12      1.0000 0.81110  0.99740  0.87466  Biso   1.000  C
  C13      1.0000 0.29360  0.42880  0.44098  Biso   1.000  C
  C14      1.0000 0.20640  0.92880  0.05902  Biso   1.000  C
  C15      1.0000 0.70640  0.57120  0.55902  Biso   1.000  C
  C16      1.0000 0.79360  0.07120  0.94098  Biso   1.000  C
  C17      1.0000 0.15090  0.47250  0.07187  Biso   1.000  C
  C18      1.0000 0.34910  0.97250  0.42813  Biso   1.000  C
  C19      1.0000 0.84910  0.52750  0.92813  Biso   1.000  C
  C20      1.0000 0.65090  0.02750  0.57187  Biso   1.000  C
  C21      1.0000 0.29140  0.39350  0.04021  Biso   1.000  C
  C22      1.0000 0.20860  0.89350  0.45979  Biso   1.000  C
  C23      1.0000 0.70860  0.60650  0.95979  Biso   1.000  C
  C24      1.0000 0.79140  0.10650  0.54021  Biso   1.000  C
  C25      1.0000 0.42070  0.36000  0.08762  Biso   1.000  C
  C26      1.0000 0.07930  0.86000  0.41238  Biso   1.000  C
  C27      1.0000 0.57930  0.64000  0.91238  Biso   1.000  C
  C28      1.0000 0.92070  0.14000  0.58762  Biso   1.000  C
  C29      1.0000 0.60430  0.27990  0.08494  Biso   1.000  C
  C30      1.0000 0.89570  0.77990  0.41506  Biso   1.000  C
  C31      1.0000 0.39570  0.72010  0.91506  Biso   1.000  C
  C32      1.0000 0.10430  0.22010  0.58494  Biso   1.000  C
  C33      1.0000 0.78010  0.82810  0.22376  Biso   1.000  C
  C34      1.0000 0.71990  0.32810  0.27624  Biso   1.000  C
  C35      1.0000 0.21990  0.17190  0.77624  Biso   1.000  C
  C36      1.0000 0.28010  0.67190  0.72376  Biso   1.000  C
  C37      1.0000 0.74470  0.76000  0.15402  Biso   1.000  C
  C38      1.0000 0.75530  0.26000  0.34598  Biso   1.000  C
  C39      1.0000 0.25530  0.24000  0.84598  Biso   1.000  C
  C40      1.0000 0.24470  0.74000  0.65402  Biso   1.000  C
  Cu1      1.0000 0.04320  0.60340  0.20140  Biso   1.000  Cu
  Cu2      1.0000 0.45680  0.10340  0.29860  Biso   1.000  Cu
  Cu3      1.0000 0.95680  0.39660  0.79860  Biso   1.000  Cu
  Cu4      1.0000 0.54320  0.89660  0.70140  Biso   1.000  Cu
  H1       1.0000 0.45010  0.68800  0.25430  Biso   1.000  H
  H2       1.0000 0.04990  0.18800  0.24570  Biso   1.000  H
  H3       1.0000 0.54990  0.31200  0.74570  Biso   1.000  H
  H4       1.0000 0.95010  0.81200  0.75430  Biso   1.000  H
  H5       1.0000 0.55850  0.62310  0.36620  Biso   1.000  H
  H6       1.0000 0.94150  0.12310  0.13380  Biso   1.000  H
  H7       1.0000 0.44150  0.37690  0.63380  Biso   1.000  H
  H8       1.0000 0.05850  0.87690  0.86620  Biso   1.000  H
  H9       1.0000 0.07630  0.43660  0.33560  Biso   1.000  H
  H10      1.0000 0.42370  0.93660  0.16440  Biso   1.000  H
  H11      1.0000 0.92370  0.56340  0.66440  Biso   1.000  H
  H12      1.0000 0.57630  0.06340  0.83560  Biso   1.000  H
  H13      1.0000 0.41240  0.41020  0.18060  Biso   1.000  H
  H14      1.0000 0.08760  0.91020  0.31940  Biso   1.000  H
  H15      1.0000 0.58760  0.58980  0.81940  Biso   1.000  H
  H16      1.0000 0.91240  0.08980  0.68060  Biso   1.000  H
  H17      1.0000 0.25740  0.50930  0.47180  Biso   1.000  H
  H18      1.0000 0.24260  0.00930  0.02820  Biso   1.000  H
  H19      1.0000 0.74260  0.49070  0.52820  Biso   1.000  H
  H20      1.0000 0.75740  0.99070  0.97180  Biso   1.000  H
  H21      1.0000 0.41010  0.38400  0.45430  Biso   1.000  H
  H22      1.0000 0.08990  0.88400  0.04570  Biso   1.000  H
  H23      1.0000 0.58990  0.61600  0.54570  Biso   1.000  H
  H24      1.0000 0.91010  0.11600  0.95430  Biso   1.000  H
  H25      1.0000 0.20210  0.34580  0.43940  Biso   1.000  H
  H26      1.0000 0.29790  0.84580  0.06060  Biso   1.000  H
  H27      1.0000 0.79790  0.65420  0.56060  Biso   1.000  H
  H28      1.0000 0.70210  0.15420  0.93940  Biso   1.000  H
  H29      1.0000 0.04430  0.51050  0.05140  Biso   1.000  H
  H30      1.0000 0.45570  0.01050  0.44860  Biso   1.000  H
  H31      1.0000 0.95570  0.48950  0.94860  Biso   1.000  H
  H32      1.0000 0.54430  0.98950  0.55140  Biso   1.000  H
  H33      1.0000 0.29690  0.36840  0.99600  Biso   1.000  H
  H34      1.0000 0.20310  0.86840  0.50400  Biso   1.000  H
  H35      1.0000 0.70310  0.63160  0.00400  Biso   1.000  H
  H36      1.0000 0.79690  0.13160  0.49600  Biso   1.000  H
  H37      1.0000 0.68880  0.33300  0.11420  Biso   1.000  H
  H38      1.0000 0.81120  0.83300  0.38580  Biso   1.000  H
  H39      1.0000 0.31120  0.66700  0.88580  Biso   1.000  H
  H40      1.0000 0.18880  0.16700  0.61420  Biso   1.000  H
  H41      1.0000 0.65010  0.28540  0.04120  Biso   1.000  H
  H42      1.0000 0.84990  0.78540  0.45880  Biso   1.000  H
  H43      1.0000 0.34990  0.71460  0.95880  Biso   1.000  H
  H44      1.0000 0.15010  0.21460  0.54120  Biso   1.000  H
  H45      1.0000 0.59200  0.16980  0.09770  Biso   1.000  H
  H46      1.0000 0.90800  0.66980  0.40230  Biso   1.000  H
  H47      1.0000 0.40800  0.83020  0.90230  Biso   1.000  H
  H48      1.0000 0.09200  0.33020  0.59770  Biso   1.000  H
  N1       1.0000 0.22040  0.56290  0.27340  Biso   1.000  N
  N2       1.0000 0.27960  0.06290  0.22660  Biso   1.000  N
  N3       1.0000 0.77960  0.43710  0.72660  Biso   1.000  N
  N4       1.0000 0.72040  0.93710  0.77340  Biso   1.000  N
  N5       1.0000 0.17750  0.48790  0.32954  Biso   1.000  N
  N6       1.0000 0.32250  0.98790  0.17046  Biso   1.000  N
  N7       1.0000 0.82250  0.51210  0.67046  Biso   1.000  N
  N8       1.0000 0.67750  0.01210  0.82954  Biso   1.000  N
  N9       1.0000 0.18800  0.48720  0.13538  Biso   1.000  N
  N10      1.0000 0.31200  0.98720  0.36462  Biso   1.000  N
  N11      1.0000 0.81200  0.51280  0.86462  Biso   1.000  N
  N12      1.0000 0.68800  0.01280  0.63538  Biso   1.000  N
  N13      1.0000 0.35520  0.41710  0.14364  Biso   1.000  N
  N14      1.0000 0.14480  0.91710  0.35636  Biso   1.000  N
  N15      1.0000 0.64480  0.58290  0.85636  Biso   1.000  N
  N16      1.0000 0.85520  0.08290  0.64364  Biso   1.000  N
  O1       1.0000 0.86340  0.66000  0.13463  Biso   1.000  O
  O2       1.0000 0.63660  0.16000  0.36537  Biso   1.000  O
  O3       1.0000 0.13660  0.34000  0.86537  Biso   1.000  O
  O4       1.0000 0.36340  0.84000  0.63463  Biso   1.000  O
  O5       1.0000 0.61040  0.80620  0.12290  Biso   1.000  O
  O6       1.0000 0.88960  0.30620  0.37710  Biso   1.000  O
  O7       1.0000 0.38960  0.19380  0.87710  Biso   1.000  O
  O8       1.0000 0.11040  0.69380  0.62290  Biso   1.000  O
  O9       1.0000 0.92800  0.77709  0.25120  Biso   1.000  O
  O10      1.0000 0.57200  0.27709  0.24880  Biso   1.000  O
  O11      1.0000 0.07200  0.22291  0.74880  Biso   1.000  O
  O12      1.0000 0.42800  0.72291  0.75120  Biso   1.000  O
  O13      1.0000 0.66940  0.92170  0.24703  Biso   1.000  O
  O14      1.0000 0.83060  0.42170  0.25297  Biso   1.000  O
  O15      1.0000 0.33060  0.07830  0.75297  Biso   1.000  O
  O16      1.0000 0.16940  0.57830  0.74703  Biso   1.000  O
