data_image0
_cell_length_a       6.272
_cell_length_b       14.404
_cell_length_c       16.099
_cell_angle_alpha    90
_cell_angle_beta     105.868
_cell_angle_gamma    90

_symmetry_space_group_name_H-M    "P 1"
_symmetry_int_tables_number       1

loop_
  _symmetry_equiv_pos_as_xyz
  'x, y, z'

loop_
  _atom_site_label
  _atom_site_occupancy
  _atom_site_fract_x
  _atom_site_fract_y
  _atom_site_fract_z
  _atom_site_thermal_displace_type
  _atom_site_B_iso_or_equiv
  _atom_site_type_symbol
  Br1      1.0000 0.33170  0.13693  0.01051  Biso   1.000  Br
  Br2      1.0000 0.66830  0.63693  0.48949  Biso   1.000  Br
  Br3      1.0000 0.66830  0.86307  0.98949  Biso   1.000  Br
  Br4      1.0000 0.33170  0.36307  0.51051  Biso   1.000  Br
  Br5      1.0000 0.29830  0.10440  0.64861  Biso   1.000  Br
  Br6      1.0000 0.70170  0.60440  0.85139  Biso   1.000  Br
  Br7      1.0000 0.70170  0.89560  0.35139  Biso   1.000  Br
  Br8      1.0000 0.29830  0.39560  0.14861  Biso   1.000  Br
  Cu1      1.0000 0.71670  0.19913  0.02147  Biso   1.000  Cu
  Cu2      1.0000 0.28330  0.69913  0.47853  Biso   1.000  Cu
  Cu3      1.0000 0.28330  0.80087  0.97853  Biso   1.000  Cu
  Cu4      1.0000 0.71670  0.30087  0.52147  Biso   1.000  Cu
  N1       1.0000 0.67060  0.22760  0.40590  Biso   1.000  N
  N2       1.0000 0.32940  0.72760  0.09410  Biso   1.000  N
  N3       1.0000 0.32940  0.77240  0.59410  Biso   1.000  N
  N4       1.0000 0.67060  0.27240  0.90590  Biso   1.000  N
  N5       1.0000 0.79560  0.40690  0.45450  Biso   1.000  N
  N6       1.0000 0.20440  0.90690  0.04550  Biso   1.000  N
  N7       1.0000 0.20440  0.59310  0.54550  Biso   1.000  N
  N8       1.0000 0.79560  0.09310  0.95450  Biso   1.000  N
  H1       1.0000 0.73210  0.46090  0.46690  Biso   1.000  H
  H2       1.0000 0.26790  0.96090  0.03310  Biso   1.000  H
  H3       1.0000 0.26790  0.53910  0.53310  Biso   1.000  H
  H4       1.0000 0.73210  0.03910  0.96690  Biso   1.000  H
  H5       1.0000 0.94690  0.41490  0.46950  Biso   1.000  H
  H6       1.0000 0.05310  0.91490  0.03050  Biso   1.000  H
  H7       1.0000 0.05310  0.58510  0.53050  Biso   1.000  H
  H8       1.0000 0.94690  0.08510  0.96950  Biso   1.000  H
  N9       1.0000 0.73710  0.17290  0.57540  Biso   1.000  N
  N10      1.0000 0.26290  0.67290  0.92460  Biso   1.000  N
  N11      1.0000 0.26290  0.82710  0.42460  Biso   1.000  N
  N12      1.0000 0.73710  0.32710  0.07540  Biso   1.000  N
  H9       1.0000 0.86820  0.16770  0.61820  Biso   1.000  H
  H10      1.0000 0.13180  0.66770  0.88180  Biso   1.000  H
  H11      1.0000 0.13180  0.83230  0.38180  Biso   1.000  H
  H12      1.0000 0.86820  0.33230  0.11820  Biso   1.000  H
  H13      1.0000 0.62250  0.16500  0.60030  Biso   1.000  H
  H14      1.0000 0.37750  0.66500  0.89970  Biso   1.000  H
  H15      1.0000 0.37750  0.83500  0.39970  Biso   1.000  H
  H16      1.0000 0.62250  0.33500  0.10030  Biso   1.000  H
  N13      1.0000 0.17740  0.11880  0.24420  Biso   1.000  N
  N14      1.0000 0.82260  0.61880  0.25580  Biso   1.000  N
  N15      1.0000 0.82260  0.88120  0.75580  Biso   1.000  N
  N16      1.0000 0.17740  0.38120  0.74420  Biso   1.000  N
  N17      1.0000 0.88810  0.14420  0.13460  Biso   1.000  N
  N18      1.0000 0.11190  0.64420  0.36540  Biso   1.000  N
  N19      1.0000 0.11190  0.85580  0.86540  Biso   1.000  N
  N20      1.0000 0.88810  0.35580  0.63460  Biso   1.000  N
  C1       1.0000 0.77000  0.28520  0.35030  Biso   1.000  C
  C2       1.0000 0.23000  0.78520  0.14970  Biso   1.000  C
  C3       1.0000 0.23000  0.71480  0.64970  Biso   1.000  C
  C4       1.0000 0.77000  0.21480  0.85030  Biso   1.000  C
  H17      1.0000 0.71100  0.26630  0.28920  Biso   1.000  H
  H18      1.0000 0.28900  0.76630  0.21080  Biso   1.000  H
  H19      1.0000 0.28900  0.73370  0.71080  Biso   1.000  H
  H20      1.0000 0.71100  0.23370  0.78920  Biso   1.000  H
  H21      1.0000 0.93310  0.27670  0.36700  Biso   1.000  H
  H22      1.0000 0.06690  0.77670  0.13300  Biso   1.000  H
  H23      1.0000 0.06690  0.72330  0.63300  Biso   1.000  H
  H24      1.0000 0.93310  0.22330  0.86700  Biso   1.000  H
  C5       1.0000 0.71400  0.38620  0.36130  Biso   1.000  C
  C6       1.0000 0.28600  0.88620  0.13870  Biso   1.000  C
  C7       1.0000 0.28600  0.61380  0.63870  Biso   1.000  C
  C8       1.0000 0.71400  0.11380  0.86130  Biso   1.000  C
  H25      1.0000 0.78610  0.42710  0.32780  Biso   1.000  H
  H26      1.0000 0.21390  0.92710  0.17220  Biso   1.000  H
  H27      1.0000 0.21390  0.57290  0.67220  Biso   1.000  H
  H28      1.0000 0.78610  0.07290  0.82780  Biso   1.000  H
  H29      1.0000 0.55130  0.39590  0.34100  Biso   1.000  H
  H30      1.0000 0.44870  0.89590  0.15900  Biso   1.000  H
  H31      1.0000 0.44870  0.60410  0.65900  Biso   1.000  H
  H32      1.0000 0.55130  0.10410  0.84100  Biso   1.000  H
  C9       1.0000 0.80600  0.14100  0.43830  Biso   1.000  C
  C10      1.0000 0.19400  0.64100  0.06170  Biso   1.000  C
  C11      1.0000 0.19400  0.85900  0.56170  Biso   1.000  C
  C12      1.0000 0.80600  0.35900  0.93830  Biso   1.000  C
  H33      1.0000 0.78790  0.09580  0.39060  Biso   1.000  H
  H34      1.0000 0.21210  0.59580  0.10940  Biso   1.000  H
  H35      1.0000 0.21210  0.90420  0.60940  Biso   1.000  H
  H36      1.0000 0.78790  0.40420  0.89060  Biso   1.000  H
  H37      1.0000 0.96450  0.15720  0.45980  Biso   1.000  H
  H38      1.0000 0.03550  0.65720  0.04020  Biso   1.000  H
  H39      1.0000 0.03550  0.84280  0.54020  Biso   1.000  H
  H40      1.0000 0.96450  0.34280  0.95980  Biso   1.000  H
  C13      1.0000 0.72600  0.09910  0.50970  Biso   1.000  C
  C14      1.0000 0.27400  0.59910  0.99030  Biso   1.000  C
  C15      1.0000 0.27400  0.90090  0.49030  Biso   1.000  C
  C16      1.0000 0.72600  0.40090  0.00970  Biso   1.000  C
  H41      1.0000 0.57220  0.07650  0.48710  Biso   1.000  H
  H42      1.0000 0.42780  0.57650  0.01290  Biso   1.000  H
  H43      1.0000 0.42780  0.92350  0.51290  Biso   1.000  H
  H44      1.0000 0.57220  0.42350  0.98710  Biso   1.000  H
  H45      1.0000 0.82160  0.04610  0.53560  Biso   1.000  H
  H46      1.0000 0.17840  0.54610  0.96440  Biso   1.000  H
  H47      1.0000 0.17840  0.95390  0.46440  Biso   1.000  H
  H48      1.0000 0.82160  0.45390  0.03560  Biso   1.000  H
  C17      1.0000 0.43400  0.20220  0.36330  Biso   1.000  C
  C18      1.0000 0.56600  0.70220  0.13670  Biso   1.000  C
  C19      1.0000 0.56600  0.79780  0.63670  Biso   1.000  C
  C20      1.0000 0.43400  0.29780  0.86330  Biso   1.000  C
  H49      1.0000 0.35430  0.25800  0.33480  Biso   1.000  H
  H50      1.0000 0.64570  0.75800  0.16520  Biso   1.000  H
  H51      1.0000 0.64570  0.74200  0.66520  Biso   1.000  H
  H52      1.0000 0.35430  0.24200  0.83480  Biso   1.000  H
  H53      1.0000 0.36270  0.18250  0.40840  Biso   1.000  H
  H54      1.0000 0.63730  0.68250  0.09160  Biso   1.000  H
  H55      1.0000 0.63730  0.81750  0.59160  Biso   1.000  H
  H56      1.0000 0.36270  0.31750  0.90840  Biso   1.000  H
  C21      1.0000 0.40600  0.12570  0.29720  Biso   1.000  C
  C22      1.0000 0.59400  0.62570  0.20280  Biso   1.000  C
  C23      1.0000 0.59400  0.87430  0.70280  Biso   1.000  C
  C24      1.0000 0.40600  0.37430  0.79720  Biso   1.000  C
  H57      1.0000 0.50440  0.13800  0.25970  Biso   1.000  H
  H58      1.0000 0.49560  0.63800  0.24030  Biso   1.000  H
  H59      1.0000 0.49560  0.86200  0.74030  Biso   1.000  H
  H60      1.0000 0.50440  0.36200  0.75970  Biso   1.000  H
  H61      1.0000 0.45150  0.06590  0.32710  Biso   1.000  H
  H62      1.0000 0.54850  0.56590  0.17290  Biso   1.000  H
  H63      1.0000 0.54850  0.93410  0.67290  Biso   1.000  H
  H64      1.0000 0.45150  0.43410  0.82710  Biso   1.000  H
  C25      1.0000 0.09100  0.16700  0.17260  Biso   1.000  C
  C26      1.0000 0.90900  0.66700  0.32740  Biso   1.000  C
  C27      1.0000 0.90900  0.83300  0.82740  Biso   1.000  C
  C28      1.0000 0.09100  0.33300  0.67260  Biso   1.000  C
  H65      1.0000 0.16950  0.21350  0.15140  Biso   1.000  H
  H66      1.0000 0.83050  0.71350  0.34860  Biso   1.000  H
  H67      1.0000 0.83050  0.78650  0.84860  Biso   1.000  H
  H68      1.0000 0.16950  0.28650  0.65140  Biso   1.000  H
  C29      1.0000 0.83500  0.07200  0.18420  Biso   1.000  C
  C30      1.0000 0.16500  0.57200  0.31580  Biso   1.000  C
  C31      1.0000 0.16500  0.92800  0.81580  Biso   1.000  C
  C32      1.0000 0.83500  0.42800  0.68420  Biso   1.000  C
  H69      1.0000 0.69750  0.04010  0.17300  Biso   1.000  H
  H70      1.0000 0.30250  0.54010  0.32700  Biso   1.000  H
  H71      1.0000 0.30250  0.95990  0.82700  Biso   1.000  H
  H72      1.0000 0.69750  0.45990  0.67300  Biso   1.000  H
  C33      1.0000 0.01800  0.05650  0.25140  Biso   1.000  C
  C34      1.0000 0.98200  0.55650  0.24860  Biso   1.000  C
  C35      1.0000 0.98200  0.94350  0.74860  Biso   1.000  C
  C36      1.0000 0.01800  0.44350  0.75140  Biso   1.000  C
  H73      1.0000 0.03260  0.01080  0.29520  Biso   1.000  H
  H74      1.0000 0.96740  0.51080  0.20480  Biso   1.000  H
  H75      1.0000 0.96740  0.98920  0.70480  Biso   1.000  H
  H76      1.0000 0.03260  0.48920  0.79520  Biso   1.000  H
