data_image0
_cell_length_a       8.592
_cell_length_b       13.462
_cell_length_c       14.795
_cell_angle_alpha    90
_cell_angle_beta     118.874
_cell_angle_gamma    90

_symmetry_space_group_name_H-M    "P 1"
_symmetry_int_tables_number       1

loop_
  _symmetry_equiv_pos_as_xyz
  'x, y, z'

loop_
  _atom_site_label
  _atom_site_occupancy
  _atom_site_fract_x
  _atom_site_fract_y
  _atom_site_fract_z
  _atom_site_thermal_displace_type
  _atom_site_B_iso_or_equiv
  _atom_site_type_symbol
  Cu1      1.0000 0.94218  0.27574  0.06428  Biso   1.000  Cu
  Cu2      1.0000 0.05782  0.77574  0.43572  Biso   1.000  Cu
  Cu3      1.0000 0.05782  0.72426  0.93572  Biso   1.000  Cu
  Cu4      1.0000 0.94218  0.22426  0.56428  Biso   1.000  Cu
  O1       1.0000 0.11290  0.14150  0.03518  Biso   1.000  O
  O2       1.0000 0.88710  0.64150  0.46482  Biso   1.000  O
  O3       1.0000 0.88710  0.85850  0.96482  Biso   1.000  O
  O4       1.0000 0.11290  0.35850  0.53518  Biso   1.000  O
  O5       1.0000 0.03510  0.21259  0.88872  Biso   1.000  O
  O6       1.0000 0.96490  0.71259  0.61128  Biso   1.000  O
  O7       1.0000 0.96490  0.78741  0.11128  Biso   1.000  O
  O8       1.0000 0.03510  0.28741  0.38872  Biso   1.000  O
  O9       1.0000 0.23140  0.09544  0.94255  Biso   1.000  O
  O10      1.0000 0.76860  0.59544  0.55745  Biso   1.000  O
  O11      1.0000 0.76860  0.90456  0.05745  Biso   1.000  O
  O12      1.0000 0.23140  0.40456  0.44255  Biso   1.000  O
  O13      1.0000 0.79650  0.10066  0.64469  Biso   1.000  O
  O14      1.0000 0.20350  0.60066  0.85531  Biso   1.000  O
  O15      1.0000 0.20350  0.89934  0.35531  Biso   1.000  O
  O16      1.0000 0.79650  0.39934  0.14469  Biso   1.000  O
  O17      1.0000 0.76760  0.96334  0.71033  Biso   1.000  O
  O18      1.0000 0.23240  0.46334  0.78967  Biso   1.000  O
  O19      1.0000 0.23240  0.03666  0.28967  Biso   1.000  O
  O20      1.0000 0.76760  0.53666  0.21033  Biso   1.000  O
  O21      1.0000 0.88570  0.96395  0.61032  Biso   1.000  O
  O22      1.0000 0.11430  0.46395  0.88968  Biso   1.000  O
  O23      1.0000 0.11430  0.03605  0.38968  Biso   1.000  O
  O24      1.0000 0.88570  0.53605  0.11032  Biso   1.000  O
  N1       1.0000 0.69740  0.29285  0.48595  Biso   1.000  N
  N2       1.0000 0.30260  0.79285  0.01405  Biso   1.000  N
  N3       1.0000 0.30260  0.70715  0.51405  Biso   1.000  N
  N4       1.0000 0.69740  0.20715  0.98595  Biso   1.000  N
  N5       1.0000 0.12660  0.14959  0.95550  Biso   1.000  N
  N6       1.0000 0.87340  0.64959  0.54450  Biso   1.000  N
  N7       1.0000 0.87340  0.85041  0.04450  Biso   1.000  N
  N8       1.0000 0.12660  0.35041  0.45550  Biso   1.000  N
  N9       1.0000 0.97210  0.30304  0.68689  Biso   1.000  N
  N10      1.0000 0.02790  0.80304  0.81311  Biso   1.000  N
  N11      1.0000 0.02790  0.69696  0.31311  Biso   1.000  N
  N12      1.0000 0.97210  0.19696  0.18689  Biso   1.000  N
  H1       1.0000 0.98130  0.26060  0.73800  Biso   1.000  H
  H2       1.0000 0.01870  0.76060  0.76200  Biso   1.000  H
  H3       1.0000 0.01870  0.73940  0.26200  Biso   1.000  H
  H4       1.0000 0.98130  0.23940  0.23800  Biso   1.000  H
  H5       1.0000 0.07480  0.34000  0.71250  Biso   1.000  H
  H6       1.0000 0.92520  0.84000  0.78750  Biso   1.000  H
  H7       1.0000 0.92520  0.66000  0.28750  Biso   1.000  H
  H8       1.0000 0.07480  0.16000  0.21250  Biso   1.000  H
  N13      1.0000 0.81610  0.00838  0.65459  Biso   1.000  N
  N14      1.0000 0.18390  0.50838  0.84541  Biso   1.000  N
  N15      1.0000 0.18390  0.99162  0.34541  Biso   1.000  N
  N16      1.0000 0.81610  0.49162  0.15459  Biso   1.000  N
  N17      1.0000 0.84450  0.12734  0.44587  Biso   1.000  N
  N18      1.0000 0.15550  0.62734  0.05413  Biso   1.000  N
  N19      1.0000 0.15550  0.87266  0.55413  Biso   1.000  N
  N20      1.0000 0.84450  0.37266  0.94587  Biso   1.000  N
  H9       1.0000 0.91990  0.12360  0.41810  Biso   1.000  H
  H10      1.0000 0.08010  0.62360  0.08190  Biso   1.000  H
  H11      1.0000 0.08010  0.87640  0.58190  Biso   1.000  H
  H12      1.0000 0.91990  0.37640  0.91810  Biso   1.000  H
  H13      1.0000 0.83680  0.06520  0.46930  Biso   1.000  H
  H14      1.0000 0.16320  0.56520  0.03070  Biso   1.000  H
  H15      1.0000 0.16320  0.93480  0.53070  Biso   1.000  H
  H16      1.0000 0.83680  0.43480  0.96930  Biso   1.000  H
  N21      1.0000 0.41918  0.40455  0.26617  Biso   1.000  N
  N22      1.0000 0.58082  0.90455  0.23383  Biso   1.000  N
  N23      1.0000 0.58082  0.59545  0.73383  Biso   1.000  N
  N24      1.0000 0.41918  0.09545  0.76617  Biso   1.000  N
  N25      1.0000 0.17660  0.34207  0.13958  Biso   1.000  N
  N26      1.0000 0.82340  0.84207  0.36042  Biso   1.000  N
  N27      1.0000 0.82340  0.65793  0.86042  Biso   1.000  N
  N28      1.0000 0.17660  0.15793  0.63958  Biso   1.000  N
  C1       1.0000 0.65660  0.32176  0.56928  Biso   1.000  C
  C2       1.0000 0.34340  0.82176  0.93072  Biso   1.000  C
  C3       1.0000 0.34340  0.67824  0.43072  Biso   1.000  C
  C4       1.0000 0.65660  0.17824  0.06928  Biso   1.000  C
  H17      1.0000 0.62260  0.26220  0.59500  Biso   1.000  H
  H18      1.0000 0.37740  0.76220  0.90500  Biso   1.000  H
  H19      1.0000 0.37740  0.73780  0.40500  Biso   1.000  H
  H20      1.0000 0.62260  0.23780  0.09500  Biso   1.000  H
  H21      1.0000 0.55550  0.36880  0.54180  Biso   1.000  H
  H22      1.0000 0.44450  0.86880  0.95820  Biso   1.000  H
  H23      1.0000 0.44450  0.63120  0.45820  Biso   1.000  H
  H24      1.0000 0.55550  0.13120  0.04180  Biso   1.000  H
  C5       1.0000 0.81790  0.36980  0.65637  Biso   1.000  C
  C6       1.0000 0.18210  0.86980  0.84363  Biso   1.000  C
  C7       1.0000 0.18210  0.63020  0.34363  Biso   1.000  C
  C8       1.0000 0.81790  0.13020  0.15637  Biso   1.000  C
  H25      1.0000 0.84110  0.43470  0.63370  Biso   1.000  H
  H26      1.0000 0.15890  0.93470  0.86630  Biso   1.000  H
  H27      1.0000 0.15890  0.56530  0.36630  Biso   1.000  H
  H28      1.0000 0.84110  0.06530  0.13370  Biso   1.000  H
  H29      1.0000 0.79730  0.38130  0.71590  Biso   1.000  H
  H30      1.0000 0.20270  0.88130  0.78410  Biso   1.000  H
  H31      1.0000 0.20270  0.61870  0.28410  Biso   1.000  H
  H32      1.0000 0.79730  0.11870  0.21590  Biso   1.000  H
  C9       1.0000 0.57750  0.21312  0.41831  Biso   1.000  C
  C10      1.0000 0.42250  0.71312  0.08169  Biso   1.000  C
  C11      1.0000 0.42250  0.78688  0.58169  Biso   1.000  C
  C12      1.0000 0.57750  0.28688  0.91831  Biso   1.000  C
  H33      1.0000 0.46400  0.24250  0.36580  Biso   1.000  H
  H34      1.0000 0.53600  0.74250  0.13420  Biso   1.000  H
  H35      1.0000 0.53600  0.75750  0.63420  Biso   1.000  H
  H36      1.0000 0.46400  0.25750  0.86580  Biso   1.000  H
  H37      1.0000 0.55120  0.16550  0.46010  Biso   1.000  H
  H38      1.0000 0.44880  0.66550  0.03990  Biso   1.000  H
  H39      1.0000 0.44880  0.83450  0.53990  Biso   1.000  H
  H40      1.0000 0.55120  0.33450  0.96010  Biso   1.000  H
  C13      1.0000 0.66700  0.15975  0.36587  Biso   1.000  C
  C14      1.0000 0.33300  0.65975  0.13413  Biso   1.000  C
  C15      1.0000 0.33300  0.84025  0.63413  Biso   1.000  C
  C16      1.0000 0.66700  0.34025  0.86587  Biso   1.000  C
  H41      1.0000 0.59530  0.10150  0.32740  Biso   1.000  H
  H42      1.0000 0.40470  0.60150  0.17260  Biso   1.000  H
  H43      1.0000 0.40470  0.89850  0.67260  Biso   1.000  H
  H44      1.0000 0.59530  0.39850  0.82740  Biso   1.000  H
  H45      1.0000 0.67810  0.20480  0.31640  Biso   1.000  H
  H46      1.0000 0.32190  0.70480  0.18360  Biso   1.000  H
  H47      1.0000 0.32190  0.79520  0.68360  Biso   1.000  H
  H48      1.0000 0.67810  0.29520  0.81640  Biso   1.000  H
  C17      1.0000 0.71050  0.38030  0.42772  Biso   1.000  C
  C18      1.0000 0.28950  0.88030  0.07228  Biso   1.000  C
  C19      1.0000 0.28950  0.61970  0.57228  Biso   1.000  C
  C20      1.0000 0.71050  0.11970  0.92772  Biso   1.000  C
  H49      1.0000 0.74790  0.35570  0.37810  Biso   1.000  H
  H50      1.0000 0.25210  0.85570  0.12190  Biso   1.000  H
  H51      1.0000 0.25210  0.64430  0.62190  Biso   1.000  H
  H52      1.0000 0.74790  0.14430  0.87810  Biso   1.000  H
  H53      1.0000 0.80670  0.42380  0.47740  Biso   1.000  H
  H54      1.0000 0.19330  0.92380  0.02260  Biso   1.000  H
  H55      1.0000 0.19330  0.57620  0.52260  Biso   1.000  H
  H56      1.0000 0.80670  0.07620  0.97740  Biso   1.000  H
  C21      1.0000 0.54500  0.44421  0.36821  Biso   1.000  C
  C22      1.0000 0.45500  0.94421  0.13179  Biso   1.000  C
  C23      1.0000 0.45500  0.55579  0.63179  Biso   1.000  C
  C24      1.0000 0.54500  0.05579  0.86821  Biso   1.000  C
  H57      1.0000 0.48330  0.45080  0.40970  Biso   1.000  H
  H58      1.0000 0.51670  0.95080  0.09030  Biso   1.000  H
  H59      1.0000 0.51670  0.54920  0.59030  Biso   1.000  H
  H60      1.0000 0.48330  0.04920  0.90970  Biso   1.000  H
  H61      1.0000 0.58230  0.51150  0.35940  Biso   1.000  H
  H62      1.0000 0.41770  0.01150  0.14060  Biso   1.000  H
  H63      1.0000 0.41770  0.48850  0.64060  Biso   1.000  H
  H64      1.0000 0.58230  0.98850  0.85940  Biso   1.000  H
  C25      1.0000 0.25090  0.37646  0.23483  Biso   1.000  C
  C26      1.0000 0.74910  0.87646  0.26517  Biso   1.000  C
  C27      1.0000 0.74910  0.62354  0.76517  Biso   1.000  C
  C28      1.0000 0.25090  0.12354  0.73483  Biso   1.000  C
  H65      1.0000 0.19320  0.38080  0.27560  Biso   1.000  H
  H66      1.0000 0.80680  0.88080  0.22440  Biso   1.000  H
  H67      1.0000 0.80680  0.61920  0.72440  Biso   1.000  H
  H68      1.0000 0.19320  0.11920  0.77560  Biso   1.000  H
  C29      1.0000 0.30360  0.34896  0.10824  Biso   1.000  C
  C30      1.0000 0.69640  0.84896  0.39176  Biso   1.000  C
  C31      1.0000 0.69640  0.65104  0.89176  Biso   1.000  C
  C32      1.0000 0.30360  0.15104  0.60824  Biso   1.000  C
  H69      1.0000 0.28790  0.32950  0.04260  Biso   1.000  H
  H70      1.0000 0.71210  0.82950  0.45740  Biso   1.000  H
  H71      1.0000 0.71210  0.67050  0.95740  Biso   1.000  H
  H72      1.0000 0.28790  0.17050  0.54260  Biso   1.000  H
  C33      1.0000 0.45430  0.38785  0.18593  Biso   1.000  C
  C34      1.0000 0.54570  0.88785  0.31407  Biso   1.000  C
  C35      1.0000 0.54570  0.61215  0.81407  Biso   1.000  C
  C36      1.0000 0.45430  0.11215  0.68593  Biso   1.000  C
  H73      1.0000 0.56230  0.40100  0.18520  Biso   1.000  H
  H74      1.0000 0.43770  0.90100  0.31480  Biso   1.000  H
  H75      1.0000 0.43770  0.59900  0.81480  Biso   1.000  H
  H76      1.0000 0.56230  0.09900  0.68520  Biso   1.000  H
