data_image0
_cell_length_a       13.9838
_cell_length_b       21.694
_cell_length_c       11.6684
_cell_angle_alpha    90
_cell_angle_beta     93.15
_cell_angle_gamma    90

_symmetry_space_group_name_H-M    "P 1"
_symmetry_int_tables_number       1

loop_
  _symmetry_equiv_pos_as_xyz
  'x, y, z'

loop_
  _atom_site_label
  _atom_site_occupancy
  _atom_site_fract_x
  _atom_site_fract_y
  _atom_site_fract_z
  _atom_site_thermal_displace_type
  _atom_site_B_iso_or_equiv
  _atom_site_type_symbol
  Cu1      1.0000 0.89451  0.69316  0.31532  Biso   1.000  Cu
  Cu2      1.0000 0.10549  0.19316  0.18468  Biso   1.000  Cu
  Cu3      1.0000 0.10549  0.30684  0.68468  Biso   1.000  Cu
  Cu4      1.0000 0.89451  0.80684  0.81532  Biso   1.000  Cu
  Cu5      1.0000 0.38755  0.80627  0.18874  Biso   1.000  Cu
  Cu6      1.0000 0.61245  0.30627  0.31126  Biso   1.000  Cu
  Cu7      1.0000 0.61245  0.19373  0.81126  Biso   1.000  Cu
  Cu8      1.0000 0.38755  0.69373  0.68874  Biso   1.000  Cu
  Cu9      1.0000 0.51865  0.05333  0.27155  Biso   1.000  Cu
  Cu10     1.0000 0.48135  0.55333  0.22845  Biso   1.000  Cu
  Cu11     1.0000 0.48135  0.94667  0.72845  Biso   1.000  Cu
  Cu12     1.0000 0.51865  0.44667  0.77155  Biso   1.000  Cu
  Cu13     1.0000 0.95781  0.94832  0.24957  Biso   1.000  Cu
  Cu14     1.0000 0.04219  0.44832  0.25043  Biso   1.000  Cu
  Cu15     1.0000 0.04219  0.05168  0.75043  Biso   1.000  Cu
  Cu16     1.0000 0.95781  0.55168  0.74957  Biso   1.000  Cu
  O1       1.0000 0.86210  0.79240  0.38990  Biso   1.000  O
  O2       1.0000 0.13790  0.29240  0.11010  Biso   1.000  O
  O3       1.0000 0.13790  0.20760  0.61010  Biso   1.000  O
  O4       1.0000 0.86210  0.70760  0.88990  Biso   1.000  O
  O5       1.0000 0.01420  0.76920  0.26290  Biso   1.000  O
  O6       1.0000 0.98580  0.26920  0.23710  Biso   1.000  O
  O7       1.0000 0.98580  0.23080  0.73710  Biso   1.000  O
  O8       1.0000 0.01420  0.73080  0.76290  Biso   1.000  O
  O9       1.0000 0.02050  0.86860  0.21490  Biso   1.000  O
  O10      1.0000 0.97950  0.36860  0.28510  Biso   1.000  O
  O11      1.0000 0.97950  0.13140  0.78510  Biso   1.000  O
  O12      1.0000 0.02050  0.63140  0.71490  Biso   1.000  O
  O13      1.0000 0.49460  0.86970  0.29910  Biso   1.000  O
  O14      1.0000 0.50540  0.36970  0.20090  Biso   1.000  O
  O15      1.0000 0.50540  0.13030  0.70090  Biso   1.000  O
  O16      1.0000 0.49460  0.63030  0.79910  Biso   1.000  O
  O17      1.0000 0.34920  0.91590  0.16190  Biso   1.000  O
  O18      1.0000 0.65080  0.41590  0.33810  Biso   1.000  O
  O19      1.0000 0.65080  0.08410  0.83810  Biso   1.000  O
  O20      1.0000 0.34920  0.58410  0.66190  Biso   1.000  O
  O21      1.0000 0.40780  0.01100  0.19350  Biso   1.000  O
  O22      1.0000 0.59220  0.51100  0.30650  Biso   1.000  O
  O23      1.0000 0.59220  0.98900  0.80650  Biso   1.000  O
  O24      1.0000 0.40780  0.48900  0.69350  Biso   1.000  O
  O25      1.0000 0.35980  0.70840  0.10480  Biso   1.000  O
  O26      1.0000 0.64020  0.20840  0.39520  Biso   1.000  O
  O27      1.0000 0.64020  0.29160  0.89520  Biso   1.000  O
  O28      1.0000 0.35980  0.79160  0.60480  Biso   1.000  O
  O29      1.0000 0.52020  0.73430  0.23260  Biso   1.000  O
  O30      1.0000 0.47980  0.23430  0.26740  Biso   1.000  O
  O31      1.0000 0.47980  0.26570  0.76740  Biso   1.000  O
  O32      1.0000 0.52020  0.76570  0.73260  Biso   1.000  O
  O33      1.0000 0.54720  0.63290  0.26060  Biso   1.000  O
  O34      1.0000 0.45280  0.13290  0.23940  Biso   1.000  O
  O35      1.0000 0.45280  0.36710  0.73940  Biso   1.000  O
  O36      1.0000 0.54720  0.86710  0.76060  Biso   1.000  O
  O37      1.0000 0.00270  0.63140  0.21160  Biso   1.000  O
  O38      1.0000 0.99730  0.13140  0.28840  Biso   1.000  O
  O39      1.0000 0.99730  0.36860  0.78840  Biso   1.000  O
  O40      1.0000 0.00270  0.86860  0.71160  Biso   1.000  O
  O41      1.0000 0.88150  0.58410  0.36090  Biso   1.000  O
  O42      1.0000 0.11850  0.08410  0.13910  Biso   1.000  O
  O43      1.0000 0.11850  0.41590  0.63910  Biso   1.000  O
  O44      1.0000 0.88150  0.91590  0.86090  Biso   1.000  O
  O45      1.0000 0.94410  0.49100  0.33660  Biso   1.000  O
  O46      1.0000 0.05590  0.99100  0.16340  Biso   1.000  O
  O47      1.0000 0.05590  0.50900  0.66340  Biso   1.000  O
  O48      1.0000 0.94410  0.00900  0.83660  Biso   1.000  O
  O49      1.0000 0.82640  0.72520  0.13330  Biso   1.000  O
  O50      1.0000 0.17360  0.22520  0.36670  Biso   1.000  O
  O51      1.0000 0.17360  0.27480  0.86670  Biso   1.000  O
  O52      1.0000 0.82640  0.77480  0.63330  Biso   1.000  O
  H1       1.0000 0.76590  0.72800  0.12210  Biso   1.000  H
  H2       1.0000 0.23410  0.22800  0.37790  Biso   1.000  H
  H3       1.0000 0.23410  0.27200  0.87790  Biso   1.000  H
  H4       1.0000 0.76590  0.77200  0.62210  Biso   1.000  H
  H5       1.0000 0.86270  0.73390  0.07950  Biso   1.000  H
  H6       1.0000 0.13730  0.23390  0.42050  Biso   1.000  H
  H7       1.0000 0.13730  0.26610  0.92050  Biso   1.000  H
  H8       1.0000 0.86270  0.76610  0.57950  Biso   1.000  H
  O53      1.0000 0.72930  0.68770  0.36260  Biso   1.000  O
  O54      1.0000 0.27070  0.18770  0.13740  Biso   1.000  O
  O55      1.0000 0.27070  0.31230  0.63740  Biso   1.000  O
  O56      1.0000 0.72930  0.81230  0.86260  Biso   1.000  O
  H9       1.0000 0.68510  0.69680  0.31260  Biso   1.000  H
  H10      1.0000 0.31490  0.19680  0.18740  Biso   1.000  H
  H11      1.0000 0.31490  0.30320  0.68740  Biso   1.000  H
  H12      1.0000 0.68510  0.80320  0.81260  Biso   1.000  H
  H13      1.0000 0.71530  0.67660  0.42950  Biso   1.000  H
  H14      1.0000 0.28470  0.17660  0.07050  Biso   1.000  H
  H15      1.0000 0.28470  0.32340  0.57050  Biso   1.000  H
  H16      1.0000 0.71530  0.82340  0.92950  Biso   1.000  H
  O57      1.0000 0.99640  0.68800  0.48510  Biso   1.000  O
  O58      1.0000 0.00360  0.18800  0.01490  Biso   1.000  O
  O59      1.0000 0.00360  0.31200  0.51490  Biso   1.000  O
  O60      1.0000 0.99640  0.81200  0.98510  Biso   1.000  O
  H17      1.0000 0.97290  0.68470  0.55050  Biso   1.000  H
  H18      1.0000 0.02710  0.18470  0.94950  Biso   1.000  H
  H19      1.0000 0.02710  0.31530  0.44950  Biso   1.000  H
  H20      1.0000 0.97290  0.81530  0.05050  Biso   1.000  H
  H21      1.0000 0.05680  0.68960  0.48020  Biso   1.000  H
  H22      1.0000 0.94320  0.18960  0.01980  Biso   1.000  H
  H23      1.0000 0.94320  0.31040  0.51980  Biso   1.000  H
  H24      1.0000 0.05680  0.81040  0.98020  Biso   1.000  H
  O61      1.0000 0.47200  0.82680  0.01990  Biso   1.000  O
  O62      1.0000 0.52800  0.32680  0.48010  Biso   1.000  O
  O63      1.0000 0.52800  0.17320  0.98010  Biso   1.000  O
  O64      1.0000 0.47200  0.67320  0.51990  Biso   1.000  O
  H25      1.0000 0.44170  0.83280  0.95580  Biso   1.000  H
  H26      1.0000 0.55830  0.33280  0.54420  Biso   1.000  H
  H27      1.0000 0.55830  0.16720  0.04420  Biso   1.000  H
  H28      1.0000 0.44170  0.66720  0.45580  Biso   1.000  H
  H29      1.0000 0.53290  0.82790  0.02450  Biso   1.000  H
  H30      1.0000 0.46710  0.32790  0.47550  Biso   1.000  H
  H31      1.0000 0.46710  0.17210  0.97550  Biso   1.000  H
  H32      1.0000 0.53290  0.67210  0.52450  Biso   1.000  H
  O65      1.0000 0.21940  0.80710  0.14270  Biso   1.000  O
  O66      1.0000 0.78060  0.30710  0.35730  Biso   1.000  O
  O67      1.0000 0.78060  0.19290  0.85730  Biso   1.000  O
  O68      1.0000 0.21940  0.69290  0.64270  Biso   1.000  O
  H33      1.0000 0.19840  0.81390  0.07410  Biso   1.000  H
  H34      1.0000 0.80160  0.31390  0.42590  Biso   1.000  H
  H35      1.0000 0.80160  0.18610  0.92590  Biso   1.000  H
  H36      1.0000 0.19840  0.68610  0.57410  Biso   1.000  H
  H37      1.0000 0.18050  0.80050  0.19480  Biso   1.000  H
  H38      1.0000 0.81950  0.30050  0.30520  Biso   1.000  H
  H39      1.0000 0.81950  0.19950  0.80520  Biso   1.000  H
  H40      1.0000 0.18050  0.69950  0.69480  Biso   1.000  H
  O69      1.0000 0.33810  0.76690  0.36440  Biso   1.000  O
  O70      1.0000 0.66190  0.26690  0.13560  Biso   1.000  O
  O71      1.0000 0.66190  0.23310  0.63560  Biso   1.000  O
  O72      1.0000 0.33810  0.73310  0.86440  Biso   1.000  O
  H41      1.0000 0.37090  0.73920  0.39990  Biso   1.000  H
  H42      1.0000 0.62910  0.23920  0.10010  Biso   1.000  H
  H43      1.0000 0.62910  0.26080  0.60010  Biso   1.000  H
  H44      1.0000 0.37090  0.76080  0.89990  Biso   1.000  H
  H45      1.0000 0.28720  0.78050  0.39200  Biso   1.000  H
  H46      1.0000 0.71280  0.28050  0.10800  Biso   1.000  H
  H47      1.0000 0.71280  0.21950  0.60800  Biso   1.000  H
  H48      1.0000 0.28720  0.71950  0.89200  Biso   1.000  H
  O73      1.0000 0.60160  0.04900  0.10330  Biso   1.000  O
  O74      1.0000 0.39840  0.54900  0.39670  Biso   1.000  O
  O75      1.0000 0.39840  0.95100  0.89670  Biso   1.000  O
  O76      1.0000 0.60160  0.45100  0.60330  Biso   1.000  O
  H49      1.0000 0.59520  0.07780  0.05410  Biso   1.000  H
  H50      1.0000 0.40480  0.57780  0.44590  Biso   1.000  H
  H51      1.0000 0.40480  0.92220  0.94590  Biso   1.000  H
  H52      1.0000 0.59520  0.42220  0.55410  Biso   1.000  H
  H53      1.0000 0.63780  0.01850  0.09090  Biso   1.000  H
  H54      1.0000 0.36220  0.51850  0.40910  Biso   1.000  H
  H55      1.0000 0.36220  0.98150  0.90910  Biso   1.000  H
  H56      1.0000 0.63780  0.48150  0.59090  Biso   1.000  H
  O77      1.0000 0.84420  0.95210  0.09130  Biso   1.000  O
  O78      1.0000 0.15580  0.45210  0.40870  Biso   1.000  O
  O79      1.0000 0.15580  0.04790  0.90870  Biso   1.000  O
  O80      1.0000 0.84420  0.54790  0.59130  Biso   1.000  O
  H57      1.0000 0.85900  0.96860  0.02870  Biso   1.000  H
  H58      1.0000 0.14100  0.46860  0.47130  Biso   1.000  H
  H59      1.0000 0.14100  0.03140  0.97130  Biso   1.000  H
  H60      1.0000 0.85900  0.53140  0.52870  Biso   1.000  H
  H61      1.0000 0.78880  0.93660  0.09710  Biso   1.000  H
  H62      1.0000 0.21120  0.43660  0.40290  Biso   1.000  H
  H63      1.0000 0.21120  0.06340  0.90290  Biso   1.000  H
  H64      1.0000 0.78880  0.56340  0.59710  Biso   1.000  H
  N1       1.0000 0.87940  0.89670  0.34460  Biso   1.000  N
  N2       1.0000 0.12060  0.39670  0.15540  Biso   1.000  N
  N3       1.0000 0.12060  0.10330  0.65540  Biso   1.000  N
  N4       1.0000 0.87940  0.60330  0.84460  Biso   1.000  N
  N5       1.0000 0.55120  0.96960  0.32390  Biso   1.000  N
  N6       1.0000 0.44880  0.46960  0.17610  Biso   1.000  N
  N7       1.0000 0.44880  0.03040  0.67610  Biso   1.000  N
  N8       1.0000 0.55120  0.53040  0.82390  Biso   1.000  N
  N9       1.0000 0.38710  0.60480  0.14430  Biso   1.000  N
  N10      1.0000 0.61290  0.10480  0.35570  Biso   1.000  N
  N11      1.0000 0.61290  0.39520  0.85570  Biso   1.000  N
  N12      1.0000 0.38710  0.89520  0.64430  Biso   1.000  N
  N13      1.0000 0.06370  0.53260  0.19250  Biso   1.000  N
  N14      1.0000 0.93630  0.03260  0.30750  Biso   1.000  N
  N15      1.0000 0.93630  0.46740  0.80750  Biso   1.000  N
  N16      1.0000 0.06370  0.96740  0.69250  Biso   1.000  N
  C1       1.0000 0.98770  0.82260  0.26860  Biso   1.000  C
  C2       1.0000 0.01230  0.32260  0.23140  Biso   1.000  C
  C3       1.0000 0.01230  0.17740  0.73140  Biso   1.000  C
  C4       1.0000 0.98770  0.67740  0.76860  Biso   1.000  C
  C5       1.0000 0.90360  0.83740  0.34280  Biso   1.000  C
  C6       1.0000 0.09640  0.33740  0.15720  Biso   1.000  C
  C7       1.0000 0.09640  0.16260  0.65720  Biso   1.000  C
  C8       1.0000 0.90360  0.66260  0.84280  Biso   1.000  C
  C9       1.0000 0.79560  0.91230  0.40300  Biso   1.000  C
  C10      1.0000 0.20440  0.41230  0.09700  Biso   1.000  C
  C11      1.0000 0.20440  0.08770  0.59700  Biso   1.000  C
  C12      1.0000 0.79560  0.58770  0.90300  Biso   1.000  C
  C13      1.0000 0.79450  0.91080  0.52170  Biso   1.000  C
  C14      1.0000 0.20550  0.41080  0.97830  Biso   1.000  C
  C15      1.0000 0.20550  0.08920  0.47830  Biso   1.000  C
  C16      1.0000 0.79450  0.58920  0.02170  Biso   1.000  C
  H65      1.0000 0.84870  0.89860  0.56550  Biso   1.000  H
  H66      1.0000 0.15130  0.39860  0.93450  Biso   1.000  H
  H67      1.0000 0.15130  0.10140  0.43450  Biso   1.000  H
  H68      1.0000 0.84870  0.60140  0.06550  Biso   1.000  H
  C17      1.0000 0.71250  0.92760  0.57460  Biso   1.000  C
  C18      1.0000 0.28750  0.42760  0.92540  Biso   1.000  C
  C19      1.0000 0.28750  0.07240  0.42540  Biso   1.000  C
  C20      1.0000 0.71250  0.57240  0.07460  Biso   1.000  C
  H69      1.0000 0.71160  0.92620  0.65420  Biso   1.000  H
  H70      1.0000 0.28840  0.42620  0.84580  Biso   1.000  H
  H71      1.0000 0.28840  0.07380  0.34580  Biso   1.000  H
  H72      1.0000 0.71160  0.57380  0.15420  Biso   1.000  H
  C21      1.0000 0.63140  0.94660  0.51000  Biso   1.000  C
  C22      1.0000 0.36860  0.44660  0.99000  Biso   1.000  C
  C23      1.0000 0.36860  0.05340  0.49000  Biso   1.000  C
  C24      1.0000 0.63140  0.55340  0.01000  Biso   1.000  C
  H73      1.0000 0.57670  0.95860  0.54590  Biso   1.000  H
  H74      1.0000 0.42330  0.45860  0.95410  Biso   1.000  H
  H75      1.0000 0.42330  0.04140  0.45410  Biso   1.000  H
  H76      1.0000 0.57670  0.54140  0.04590  Biso   1.000  H
  C25      1.0000 0.63320  0.94750  0.39260  Biso   1.000  C
  C26      1.0000 0.36680  0.44750  0.10740  Biso   1.000  C
  C27      1.0000 0.36680  0.05250  0.60740  Biso   1.000  C
  C28      1.0000 0.63320  0.55250  0.89260  Biso   1.000  C
  C29      1.0000 0.71570  0.93080  0.33780  Biso   1.000  C
  C30      1.0000 0.28430  0.43080  0.16220  Biso   1.000  C
  C31      1.0000 0.28430  0.06920  0.66220  Biso   1.000  C
  C32      1.0000 0.71570  0.56920  0.83780  Biso   1.000  C
  H77      1.0000 0.71670  0.93210  0.25820  Biso   1.000  H
  H78      1.0000 0.28330  0.43210  0.24180  Biso   1.000  H
  H79      1.0000 0.28330  0.06790  0.74180  Biso   1.000  H
  H80      1.0000 0.71670  0.56790  0.75820  Biso   1.000  H
  C33      1.0000 0.49080  0.92610  0.28340  Biso   1.000  C
  C34      1.0000 0.50920  0.42610  0.21660  Biso   1.000  C
  C35      1.0000 0.50920  0.07390  0.71660  Biso   1.000  C
  C36      1.0000 0.49080  0.57390  0.78340  Biso   1.000  C
  C37      1.0000 0.40900  0.95360  0.20730  Biso   1.000  C
  C38      1.0000 0.59100  0.45360  0.29270  Biso   1.000  C
  C39      1.0000 0.59100  0.04640  0.79270  Biso   1.000  C
  C40      1.0000 0.40900  0.54640  0.70730  Biso   1.000  C
  C41      1.0000 0.49970  0.67900  0.21730  Biso   1.000  C
  C42      1.0000 0.50030  0.17900  0.28270  Biso   1.000  C
  C43      1.0000 0.50030  0.32100  0.78270  Biso   1.000  C
  C44      1.0000 0.49970  0.82100  0.71730  Biso   1.000  C
  C45      1.0000 0.40840  0.66470  0.14770  Biso   1.000  C
  C46      1.0000 0.59160  0.16470  0.35230  Biso   1.000  C
  C47      1.0000 0.59160  0.33530  0.85230  Biso   1.000  C
  C48      1.0000 0.40840  0.83530  0.64770  Biso   1.000  C
  C49      1.0000 0.29390  0.58920  0.09060  Biso   1.000  C
  C50      1.0000 0.70610  0.08920  0.40940  Biso   1.000  C
  C51      1.0000 0.70610  0.41080  0.90940  Biso   1.000  C
  C52      1.0000 0.29390  0.91080  0.59060  Biso   1.000  C
  C53      1.0000 0.27590  0.59160  0.97390  Biso   1.000  C
  C54      1.0000 0.72410  0.09160  0.52610  Biso   1.000  C
  C55      1.0000 0.72410  0.40840  0.02610  Biso   1.000  C
  C56      1.0000 0.27590  0.90840  0.47390  Biso   1.000  C
  H81      1.0000 0.32400  0.60310  0.92630  Biso   1.000  H
  H82      1.0000 0.67600  0.10310  0.57370  Biso   1.000  H
  H83      1.0000 0.67600  0.39690  0.07370  Biso   1.000  H
  H84      1.0000 0.32400  0.89690  0.42630  Biso   1.000  H
  C57      1.0000 0.18500  0.57680  0.92710  Biso   1.000  C
  C58      1.0000 0.81500  0.07680  0.57290  Biso   1.000  C
  C59      1.0000 0.81500  0.42320  0.07290  Biso   1.000  C
  C60      1.0000 0.18500  0.92320  0.42710  Biso   1.000  C
  H85      1.0000 0.17200  0.57940  0.84820  Biso   1.000  H
  H86      1.0000 0.82800  0.07940  0.65180  Biso   1.000  H
  H87      1.0000 0.82800  0.42060  0.15180  Biso   1.000  H
  H88      1.0000 0.17200  0.92060  0.34820  Biso   1.000  H
  C61      1.0000 0.11380  0.55810  0.99780  Biso   1.000  C
  C62      1.0000 0.88620  0.05810  0.50220  Biso   1.000  C
  C63      1.0000 0.88620  0.44190  0.00220  Biso   1.000  C
  C64      1.0000 0.11380  0.94190  0.49780  Biso   1.000  C
  H89      1.0000 0.05300  0.54840  0.96680  Biso   1.000  H
  H90      1.0000 0.94700  0.04840  0.53320  Biso   1.000  H
  H91      1.0000 0.94700  0.45160  0.03320  Biso   1.000  H
  H92      1.0000 0.05300  0.95160  0.46680  Biso   1.000  H
  C65      1.0000 0.13430  0.55410  0.11480  Biso   1.000  C
  C66      1.0000 0.86570  0.05410  0.38520  Biso   1.000  C
  C67      1.0000 0.86570  0.44590  0.88520  Biso   1.000  C
  C68      1.0000 0.13430  0.94590  0.61480  Biso   1.000  C
  C69      1.0000 0.22470  0.57040  0.16250  Biso   1.000  C
  C70      1.0000 0.77530  0.07040  0.33750  Biso   1.000  C
  C71      1.0000 0.77530  0.42960  0.83750  Biso   1.000  C
  C72      1.0000 0.22470  0.92960  0.66250  Biso   1.000  C
  H93      1.0000 0.23780  0.56850  0.24150  Biso   1.000  H
  H94      1.0000 0.76220  0.06850  0.25850  Biso   1.000  H
  H95      1.0000 0.76220  0.43150  0.75850  Biso   1.000  H
  H96      1.0000 0.23780  0.93150  0.74150  Biso   1.000  H
  C73      1.0000 0.00570  0.57500  0.23240  Biso   1.000  C
  C74      1.0000 0.99430  0.07500  0.26760  Biso   1.000  C
  C75      1.0000 0.99430  0.42500  0.76760  Biso   1.000  C
  C76      1.0000 0.00570  0.92500  0.73240  Biso   1.000  C
  C77      1.0000 0.93620  0.54780  0.31760  Biso   1.000  C
  C78      1.0000 0.06380  0.04780  0.18240  Biso   1.000  C
  C79      1.0000 0.06380  0.45220  0.68240  Biso   1.000  C
  C80      1.0000 0.93620  0.95220  0.81760  Biso   1.000  C
  O81      1.0000 0.61390  0.78660  0.45200  Biso   1.000  O
  O82      1.0000 0.38610  0.28660  0.04800  Biso   1.000  O
  O83      1.0000 0.38610  0.21340  0.54800  Biso   1.000  O
  O84      1.0000 0.61390  0.71340  0.95200  Biso   1.000  O
  O85      1.0000 0.68220  0.80780  0.15950  Biso   1.000  O
  O86      1.0000 0.31780  0.30780  0.34050  Biso   1.000  O
  O87      1.0000 0.31780  0.19220  0.84050  Biso   1.000  O
  O88      1.0000 0.68220  0.69220  0.65950  Biso   1.000  O
  O89      1.0000 0.10390  0.79120  0.55870  Biso   1.000  O
  O90      1.0000 0.89610  0.29120  0.94130  Biso   1.000  O
  O91      1.0000 0.89610  0.20880  0.44130  Biso   1.000  O
  O92      1.0000 0.10390  0.70880  0.05870  Biso   1.000  O
  O93      1.0000 0.18090  0.92940  0.01540  Biso   1.000  O
  O94      1.0000 0.81910  0.42940  0.48460  Biso   1.000  O
  O95      1.0000 0.81910  0.07060  0.98460  Biso   1.000  O
  O96      1.0000 0.18090  0.57060  0.51540  Biso   1.000  O
  O97      1.0000 0.81020  0.18720  0.14650  Biso   1.000  O
  O98      1.0000 0.18980  0.68720  0.35350  Biso   1.000  O
  O99      1.0000 0.18980  0.81280  0.85350  Biso   1.000  O
  O100     1.0000 0.81020  0.31280  0.64650  Biso   1.000  O
  O101     1.0000 0.37750  0.07570  0.98040  Biso   1.000  O
  O102     1.0000 0.62250  0.57570  0.51960  Biso   1.000  O
  O103     1.0000 0.62250  0.92430  0.01960  Biso   1.000  O
  O104     1.0000 0.37750  0.42430  0.48040  Biso   1.000  O
