data_image0
_cell_length_a       15.1098
_cell_length_b       9.1791
_cell_length_c       23.866
_cell_angle_alpha    90
_cell_angle_beta     101.424
_cell_angle_gamma    90

_symmetry_space_group_name_H-M    "P 1"
_symmetry_int_tables_number       1

loop_
  _symmetry_equiv_pos_as_xyz
  'x, y, z'

loop_
  _atom_site_label
  _atom_site_occupancy
  _atom_site_fract_x
  _atom_site_fract_y
  _atom_site_fract_z
  _atom_site_thermal_displace_type
  _atom_site_B_iso_or_equiv
  _atom_site_type_symbol
  Cu1      1.0000 0.28682  0.20245  0.25361  Biso   1.000  Cu
  Cu2      1.0000 0.71318  0.70245  0.24639  Biso   1.000  Cu
  Cu3      1.0000 0.71318  0.79755  0.74639  Biso   1.000  Cu
  Cu4      1.0000 0.28682  0.29755  0.75361  Biso   1.000  Cu
  N1       1.0000 0.16570  0.18550  0.27348  Biso   1.000  N
  N2       1.0000 0.83430  0.68550  0.22652  Biso   1.000  N
  N3       1.0000 0.83430  0.81450  0.72652  Biso   1.000  N
  N4       1.0000 0.16570  0.31450  0.77348  Biso   1.000  N
  N5       1.0000 0.02950  0.10240  0.27088  Biso   1.000  N
  N6       1.0000 0.97050  0.60240  0.22912  Biso   1.000  N
  N7       1.0000 0.97050  0.89760  0.72912  Biso   1.000  N
  N8       1.0000 0.02950  0.39760  0.77088  Biso   1.000  N
  N9       1.0000 0.55890  0.17360  0.25996  Biso   1.000  N
  N10      1.0000 0.44110  0.67360  0.24004  Biso   1.000  N
  N11      1.0000 0.44110  0.82640  0.74004  Biso   1.000  N
  N12      1.0000 0.55890  0.32640  0.75996  Biso   1.000  N
  N13      1.0000 0.41110  0.17760  0.24165  Biso   1.000  N
  N14      1.0000 0.58890  0.67760  0.25835  Biso   1.000  N
  N15      1.0000 0.58890  0.82240  0.75835  Biso   1.000  N
  N16      1.0000 0.41110  0.32240  0.74165  Biso   1.000  N
  O1       1.0000 0.24155  0.10070  0.18225  Biso   1.000  O
  O2       1.0000 0.75845  0.60070  0.31775  Biso   1.000  O
  O3       1.0000 0.75845  0.89930  0.81775  Biso   1.000  O
  O4       1.0000 0.24155  0.39930  0.68225  Biso   1.000  O
  O5       1.0000 0.23200  0.31860  0.14106  Biso   1.000  O
  O6       1.0000 0.76800  0.81860  0.35894  Biso   1.000  O
  O7       1.0000 0.76800  0.68140  0.85894  Biso   1.000  O
  O8       1.0000 0.23200  0.18140  0.64106  Biso   1.000  O
  O9       1.0000 0.03340  0.97420  0.88267  Biso   1.000  O
  O10      1.0000 0.96660  0.47420  0.61733  Biso   1.000  O
  O11      1.0000 0.96660  0.02580  0.11733  Biso   1.000  O
  O12      1.0000 0.03340  0.52580  0.38267  Biso   1.000  O
  O13      1.0000 0.32635  0.33310  0.31733  Biso   1.000  O
  O14      1.0000 0.67365  0.83310  0.18267  Biso   1.000  O
  O15      1.0000 0.67365  0.66690  0.68267  Biso   1.000  O
  O16      1.0000 0.32635  0.16690  0.81733  Biso   1.000  O
  O17      1.0000 0.35268  0.14320  0.37623  Biso   1.000  O
  O18      1.0000 0.64732  0.64320  0.12377  Biso   1.000  O
  O19      1.0000 0.64732  0.85680  0.62377  Biso   1.000  O
  O20      1.0000 0.35268  0.35680  0.87623  Biso   1.000  O
  O21      1.0000 0.41800  0.65430  0.60217  Biso   1.000  O
  O22      1.0000 0.58200  0.15430  0.89783  Biso   1.000  O
  O23      1.0000 0.58200  0.34570  0.39783  Biso   1.000  O
  O24      1.0000 0.41800  0.84570  0.10217  Biso   1.000  O
  C1       1.0000 0.22220  0.18430  0.13874  Biso   1.000  C
  C2       1.0000 0.77780  0.68430  0.36126  Biso   1.000  C
  C3       1.0000 0.77780  0.81570  0.86126  Biso   1.000  C
  C4       1.0000 0.22220  0.31570  0.63874  Biso   1.000  C
  C5       1.0000 0.18510  0.11060  0.08271  Biso   1.000  C
  C6       1.0000 0.81490  0.61060  0.41729  Biso   1.000  C
  C7       1.0000 0.81490  0.88940  0.91729  Biso   1.000  C
  C8       1.0000 0.18510  0.38940  0.58271  Biso   1.000  C
  C9       1.0000 0.16440  0.19290  0.03310  Biso   1.000  C
  C10      1.0000 0.83560  0.69290  0.46690  Biso   1.000  C
  C11      1.0000 0.83560  0.80710  0.96690  Biso   1.000  C
  C12      1.0000 0.16440  0.30710  0.53310  Biso   1.000  C
  H1       1.0000 0.17740  0.29200  0.03410  Biso   1.000  H
  H2       1.0000 0.82260  0.79200  0.46590  Biso   1.000  H
  H3       1.0000 0.82260  0.70800  0.96590  Biso   1.000  H
  H4       1.0000 0.17740  0.20800  0.53410  Biso   1.000  H
  C13      1.0000 0.12480  0.12760  0.98252  Biso   1.000  C
  C14      1.0000 0.87520  0.62760  0.51748  Biso   1.000  C
  C15      1.0000 0.87520  0.87240  0.01748  Biso   1.000  C
  C16      1.0000 0.12480  0.37240  0.48252  Biso   1.000  C
  H5       1.0000 0.11080  0.18290  0.94930  Biso   1.000  H
  H6       1.0000 0.88920  0.68290  0.55070  Biso   1.000  H
  H7       1.0000 0.88920  0.81710  0.05070  Biso   1.000  H
  H8       1.0000 0.11080  0.31710  0.44930  Biso   1.000  H
  C17      1.0000 0.10570  0.98000  0.98070  Biso   1.000  C
  C18      1.0000 0.89430  0.48000  0.51930  Biso   1.000  C
  C19      1.0000 0.89430  0.02000  0.01930  Biso   1.000  C
  C20      1.0000 0.10570  0.52000  0.48070  Biso   1.000  C
  C21      1.0000 0.12760  0.89660  0.03048  Biso   1.000  C
  C22      1.0000 0.87240  0.39660  0.46952  Biso   1.000  C
  C23      1.0000 0.87240  0.10340  0.96952  Biso   1.000  C
  C24      1.0000 0.12760  0.60340  0.53048  Biso   1.000  C
  H9       1.0000 0.11570  0.79710  0.02950  Biso   1.000  H
  H10      1.0000 0.88430  0.29710  0.47050  Biso   1.000  H
  H11      1.0000 0.88430  0.20290  0.97050  Biso   1.000  H
  H12      1.0000 0.11570  0.70290  0.52950  Biso   1.000  H
  C25      1.0000 0.16690  0.96310  0.08119  Biso   1.000  C
  C26      1.0000 0.83310  0.46310  0.41881  Biso   1.000  C
  C27      1.0000 0.83310  0.03690  0.91881  Biso   1.000  C
  C28      1.0000 0.16690  0.53690  0.58119  Biso   1.000  C
  H13      1.0000 0.18130  0.90830  0.11450  Biso   1.000  H
  H14      1.0000 0.81870  0.40830  0.38550  Biso   1.000  H
  H15      1.0000 0.81870  0.09170  0.88550  Biso   1.000  H
  H16      1.0000 0.18130  0.59170  0.61450  Biso   1.000  H
  C29      1.0000 0.05940  0.91120  0.92700  Biso   1.000  C
  C30      1.0000 0.94060  0.41120  0.57300  Biso   1.000  C
  C31      1.0000 0.94060  0.08880  0.07300  Biso   1.000  C
  C32      1.0000 0.05940  0.58880  0.42700  Biso   1.000  C
  H17      1.0000 0.04950  0.81130  0.92750  Biso   1.000  H
  H18      1.0000 0.95050  0.31130  0.57250  Biso   1.000  H
  H19      1.0000 0.95050  0.18870  0.07250  Biso   1.000  H
  H20      1.0000 0.04950  0.68870  0.42750  Biso   1.000  H
  C33      1.0000 0.34480  0.27550  0.36710  Biso   1.000  C
  C34      1.0000 0.65520  0.77550  0.13290  Biso   1.000  C
  C35      1.0000 0.65520  0.72450  0.63290  Biso   1.000  C
  C36      1.0000 0.34480  0.22450  0.86710  Biso   1.000  C
  C37      1.0000 0.35430  0.38120  0.41609  Biso   1.000  C
  C38      1.0000 0.64570  0.88120  0.08391  Biso   1.000  C
  C39      1.0000 0.64570  0.61880  0.58391  Biso   1.000  C
  C40      1.0000 0.35430  0.11880  0.91609  Biso   1.000  C
  C41      1.0000 0.32290  0.52280  0.40673  Biso   1.000  C
  C42      1.0000 0.67710  0.02280  0.09327  Biso   1.000  C
  C43      1.0000 0.67710  0.47720  0.59327  Biso   1.000  C
  C44      1.0000 0.32290  0.97720  0.90673  Biso   1.000  C
  H21      1.0000 0.29790  0.55320  0.36980  Biso   1.000  H
  H22      1.0000 0.70210  0.05320  0.13020  Biso   1.000  H
  H23      1.0000 0.70210  0.44680  0.63020  Biso   1.000  H
  H24      1.0000 0.29790  0.94680  0.86980  Biso   1.000  H
  C45      1.0000 0.32840  0.61890  0.45183  Biso   1.000  C
  C46      1.0000 0.67160  0.11890  0.04817  Biso   1.000  C
  C47      1.0000 0.67160  0.38110  0.54817  Biso   1.000  C
  C48      1.0000 0.32840  0.88110  0.95183  Biso   1.000  C
  H25      1.0000 0.30530  0.71270  0.44570  Biso   1.000  H
  H26      1.0000 0.69470  0.21270  0.05430  Biso   1.000  H
  H27      1.0000 0.69470  0.28730  0.55430  Biso   1.000  H
  H28      1.0000 0.30530  0.78730  0.94570  Biso   1.000  H
  C49      1.0000 0.36880  0.57410  0.50633  Biso   1.000  C
  C50      1.0000 0.63120  0.07410  0.99367  Biso   1.000  C
  C51      1.0000 0.63120  0.42590  0.49367  Biso   1.000  C
  C52      1.0000 0.36880  0.92590  0.00633  Biso   1.000  C
  C53      1.0000 0.40080  0.43330  0.51600  Biso   1.000  C
  C54      1.0000 0.59920  0.93330  0.98400  Biso   1.000  C
  C55      1.0000 0.59920  0.56670  0.48400  Biso   1.000  C
  C56      1.0000 0.40080  0.06670  0.01600  Biso   1.000  C
  H29      1.0000 0.42730  0.40370  0.55280  Biso   1.000  H
  H30      1.0000 0.57270  0.90370  0.94720  Biso   1.000  H
  H31      1.0000 0.57270  0.59630  0.44720  Biso   1.000  H
  H32      1.0000 0.42730  0.09630  0.05280  Biso   1.000  H
  C57      1.0000 0.39330  0.33680  0.47106  Biso   1.000  C
  C58      1.0000 0.60670  0.83680  0.02894  Biso   1.000  C
  C59      1.0000 0.60670  0.66320  0.52894  Biso   1.000  C
  C60      1.0000 0.39330  0.16320  0.97106  Biso   1.000  C
  H33      1.0000 0.41440  0.24190  0.47750  Biso   1.000  H
  H34      1.0000 0.58560  0.74190  0.02250  Biso   1.000  H
  H35      1.0000 0.58560  0.75810  0.52250  Biso   1.000  H
  H36      1.0000 0.41440  0.25810  0.97750  Biso   1.000  H
  C61      1.0000 0.37850  0.68030  0.55388  Biso   1.000  C
  C62      1.0000 0.62150  0.18030  0.94612  Biso   1.000  C
  C63      1.0000 0.62150  0.31970  0.44612  Biso   1.000  C
  C64      1.0000 0.37850  0.81970  0.05388  Biso   1.000  C
  H37      1.0000 0.35290  0.77210  0.54630  Biso   1.000  H
  H38      1.0000 0.64710  0.27210  0.95370  Biso   1.000  H
  H39      1.0000 0.64710  0.22790  0.45370  Biso   1.000  H
  H40      1.0000 0.35290  0.72790  0.04630  Biso   1.000  H
  C65      1.0000 0.09740  0.11040  0.24333  Biso   1.000  C
  C66      1.0000 0.90260  0.61040  0.25667  Biso   1.000  C
  C67      1.0000 0.90260  0.88960  0.75667  Biso   1.000  C
  C68      1.0000 0.09740  0.38960  0.74333  Biso   1.000  C
  H41      1.0000 0.09720  0.06920  0.20770  Biso   1.000  H
  H42      1.0000 0.90280  0.56920  0.29230  Biso   1.000  H
  H43      1.0000 0.90280  0.93080  0.79230  Biso   1.000  H
  H44      1.0000 0.09720  0.43080  0.70770  Biso   1.000  H
  C69      1.0000 0.05360  0.17640  0.32175  Biso   1.000  C
  C70      1.0000 0.94640  0.67640  0.17825  Biso   1.000  C
  C71      1.0000 0.94640  0.82360  0.67825  Biso   1.000  C
  C72      1.0000 0.05360  0.32360  0.82175  Biso   1.000  C
  H45      1.0000 0.01910  0.18890  0.34960  Biso   1.000  H
  H46      1.0000 0.98090  0.68890  0.15040  Biso   1.000  H
  H47      1.0000 0.98090  0.81110  0.65040  Biso   1.000  H
  H48      1.0000 0.01910  0.31110  0.84960  Biso   1.000  H
  C73      1.0000 0.13780  0.22690  0.32274  Biso   1.000  C
  C74      1.0000 0.86220  0.72690  0.17726  Biso   1.000  C
  C75      1.0000 0.86220  0.77310  0.67726  Biso   1.000  C
  C76      1.0000 0.13780  0.27310  0.82274  Biso   1.000  C
  H49      1.0000 0.17180  0.28140  0.35220  Biso   1.000  H
  H50      1.0000 0.82820  0.78140  0.14780  Biso   1.000  H
  H51      1.0000 0.82820  0.71860  0.64780  Biso   1.000  H
  H52      1.0000 0.17180  0.21860  0.85220  Biso   1.000  H
  C77      1.0000 0.94340  0.02780  0.25017  Biso   1.000  C
  C78      1.0000 0.05660  0.52780  0.24983  Biso   1.000  C
  C79      1.0000 0.05660  0.97220  0.74983  Biso   1.000  C
  C80      1.0000 0.94340  0.47220  0.75017  Biso   1.000  C
  H53      1.0000 0.93340  0.95730  0.27860  Biso   1.000  H
  H54      1.0000 0.06660  0.45730  0.22140  Biso   1.000  H
  H55      1.0000 0.06660  0.04270  0.72140  Biso   1.000  H
  H56      1.0000 0.93340  0.54270  0.77860  Biso   1.000  H
  H57      1.0000 0.94690  0.97500  0.21550  Biso   1.000  H
  H58      1.0000 0.05310  0.47500  0.28450  Biso   1.000  H
  H59      1.0000 0.05310  0.02500  0.78450  Biso   1.000  H
  H60      1.0000 0.94690  0.52500  0.71550  Biso   1.000  H
  C81      1.0000 0.86450  0.13140  0.23814  Biso   1.000  C
  C82      1.0000 0.13550  0.63140  0.26186  Biso   1.000  C
  C83      1.0000 0.13550  0.86860  0.76186  Biso   1.000  C
  C84      1.0000 0.86450  0.36860  0.73814  Biso   1.000  C
  C85      1.0000 0.79460  0.11600  0.26740  Biso   1.000  C
  C86      1.0000 0.20540  0.61600  0.23260  Biso   1.000  C
  C87      1.0000 0.20540  0.88400  0.73260  Biso   1.000  C
  C88      1.0000 0.79460  0.38400  0.76740  Biso   1.000  C
  H61      1.0000 0.79750  0.04250  0.29450  Biso   1.000  H
  H62      1.0000 0.20250  0.54250  0.20550  Biso   1.000  H
  H63      1.0000 0.20250  0.95750  0.70550  Biso   1.000  H
  H64      1.0000 0.79750  0.45750  0.79450  Biso   1.000  H
  C89      1.0000 0.72090  0.20750  0.25715  Biso   1.000  C
  C90      1.0000 0.27910  0.70750  0.24285  Biso   1.000  C
  C91      1.0000 0.27910  0.79250  0.74285  Biso   1.000  C
  C92      1.0000 0.72090  0.29250  0.75715  Biso   1.000  C
  C93      1.0000 0.71650  0.31660  0.21622  Biso   1.000  C
  C94      1.0000 0.28350  0.81660  0.28378  Biso   1.000  C
  C95      1.0000 0.28350  0.68340  0.78378  Biso   1.000  C
  C96      1.0000 0.71650  0.18340  0.71622  Biso   1.000  C
  H65      1.0000 0.66720  0.37940  0.20910  Biso   1.000  H
  H66      1.0000 0.33280  0.87940  0.29090  Biso   1.000  H
  H67      1.0000 0.33280  0.62060  0.79090  Biso   1.000  H
  H68      1.0000 0.66720  0.12060  0.70910  Biso   1.000  H
  C97      1.0000 0.78540  0.33200  0.18592  Biso   1.000  C
  C98      1.0000 0.21460  0.83200  0.31408  Biso   1.000  C
  C99      1.0000 0.21460  0.66800  0.81408  Biso   1.000  C
  C100     1.0000 0.78540  0.16800  0.68592  Biso   1.000  C
  H69      1.0000 0.78150  0.40300  0.15770  Biso   1.000  H
  H70      1.0000 0.21850  0.90300  0.34230  Biso   1.000  H
  H71      1.0000 0.21850  0.59700  0.84230  Biso   1.000  H
  H72      1.0000 0.78150  0.09700  0.65770  Biso   1.000  H
  C101     1.0000 0.85980  0.24150  0.19779  Biso   1.000  C
  C102     1.0000 0.14020  0.74150  0.30221  Biso   1.000  C
  C103     1.0000 0.14020  0.75850  0.80221  Biso   1.000  C
  C104     1.0000 0.85980  0.25850  0.69779  Biso   1.000  C
  H73      1.0000 0.90710  0.25440  0.17860  Biso   1.000  H
  H74      1.0000 0.09290  0.75440  0.32140  Biso   1.000  H
  H75      1.0000 0.09290  0.74560  0.82140  Biso   1.000  H
  H76      1.0000 0.90710  0.24560  0.67860  Biso   1.000  H
  C105     1.0000 0.65070  0.19160  0.29310  Biso   1.000  C
  C106     1.0000 0.34930  0.69160  0.20690  Biso   1.000  C
  C107     1.0000 0.34930  0.80840  0.70690  Biso   1.000  C
  C108     1.0000 0.65070  0.30840  0.79310  Biso   1.000  C
  H77      1.0000 0.66560  0.10790  0.31800  Biso   1.000  H
  H78      1.0000 0.33440  0.60790  0.18200  Biso   1.000  H
  H79      1.0000 0.33440  0.89210  0.68200  Biso   1.000  H
  H80      1.0000 0.66560  0.39210  0.81800  Biso   1.000  H
  H81      1.0000 0.65230  0.27720  0.31720  Biso   1.000  H
  H82      1.0000 0.34770  0.77720  0.18280  Biso   1.000  H
  H83      1.0000 0.34770  0.72280  0.68280  Biso   1.000  H
  H84      1.0000 0.65230  0.22280  0.81720  Biso   1.000  H
  C109     1.0000 0.48390  0.21890  0.27730  Biso   1.000  C
  C110     1.0000 0.51610  0.71890  0.22270  Biso   1.000  C
  C111     1.0000 0.51610  0.78110  0.72270  Biso   1.000  C
  C112     1.0000 0.48390  0.28110  0.77730  Biso   1.000  C
  H85      1.0000 0.48390  0.27260  0.31030  Biso   1.000  H
  H86      1.0000 0.51610  0.77260  0.18970  Biso   1.000  H
  H87      1.0000 0.51610  0.72740  0.68970  Biso   1.000  H
  H88      1.0000 0.48390  0.22740  0.81030  Biso   1.000  H
  C113     1.0000 0.44130  0.09930  0.19942  Biso   1.000  C
  C114     1.0000 0.55870  0.59930  0.30058  Biso   1.000  C
  C115     1.0000 0.55870  0.90070  0.80058  Biso   1.000  C
  C116     1.0000 0.44130  0.40070  0.69942  Biso   1.000  C
  H89      1.0000 0.40450  0.05510  0.16820  Biso   1.000  H
  H90      1.0000 0.59550  0.55510  0.33180  Biso   1.000  H
  H91      1.0000 0.59550  0.94490  0.83180  Biso   1.000  H
  H92      1.0000 0.40450  0.44490  0.66820  Biso   1.000  H
  C117     1.0000 0.53230  0.09740  0.21066  Biso   1.000  C
  C118     1.0000 0.46770  0.59740  0.28934  Biso   1.000  C
  C119     1.0000 0.46770  0.90260  0.78934  Biso   1.000  C
  C120     1.0000 0.53230  0.40260  0.71066  Biso   1.000  C
  H93      1.0000 0.56950  0.05270  0.18900  Biso   1.000  H
  H94      1.0000 0.43050  0.55270  0.31100  Biso   1.000  H
  H95      1.0000 0.43050  0.94730  0.81100  Biso   1.000  H
  H96      1.0000 0.56950  0.44730  0.68900  Biso   1.000  H
  O25      1.0000 0.34980  0.44720  0.07575  Biso   1.000  O
  O26      1.0000 0.65020  0.94720  0.42425  Biso   1.000  O
  O27      1.0000 0.65020  0.55280  0.92425  Biso   1.000  O
  O28      1.0000 0.34980  0.05280  0.57575  Biso   1.000  O
  H97      1.0000 0.31840  0.42330  0.09850  Biso   1.000  H
  H98      1.0000 0.68160  0.92330  0.40150  Biso   1.000  H
  H99      1.0000 0.68160  0.57670  0.90150  Biso   1.000  H
  H100     1.0000 0.31840  0.07670  0.59850  Biso   1.000  H
  C121     1.0000 0.44790  0.43660  0.10450  Biso   1.000  C
  C122     1.0000 0.55210  0.93660  0.39550  Biso   1.000  C
  C123     1.0000 0.55210  0.56340  0.89550  Biso   1.000  C
  C124     1.0000 0.44790  0.06340  0.60450  Biso   1.000  C
  H101     1.0000 0.48510  0.44880  0.07650  Biso   1.000  H
  H102     1.0000 0.51490  0.94880  0.42350  Biso   1.000  H
  H103     1.0000 0.51490  0.55120  0.92350  Biso   1.000  H
  H104     1.0000 0.48510  0.05120  0.57650  Biso   1.000  H
  H105     1.0000 0.45930  0.34290  0.12230  Biso   1.000  H
  H106     1.0000 0.54070  0.84290  0.37770  Biso   1.000  H
  H107     1.0000 0.54070  0.65710  0.87770  Biso   1.000  H
  H108     1.0000 0.45930  0.15710  0.62230  Biso   1.000  H
  H109     1.0000 0.46180  0.51150  0.13300  Biso   1.000  H
  H110     1.0000 0.53820  0.01150  0.36700  Biso   1.000  H
  H111     1.0000 0.53820  0.48850  0.86700  Biso   1.000  H
  H112     1.0000 0.46180  0.98850  0.63300  Biso   1.000  H
  O29      1.0000 0.27510  0.99710  0.45997  Biso   1.000  O
  O30      1.0000 0.72490  0.49710  0.04003  Biso   1.000  O
  O31      1.0000 0.72490  0.00290  0.54003  Biso   1.000  O
  O32      1.0000 0.27510  0.50290  0.95997  Biso   1.000  O
  H113     1.0000 0.23980  0.06360  0.44400  Biso   1.000  H
  H114     1.0000 0.76020  0.56360  0.05600  Biso   1.000  H
  H115     1.0000 0.76020  0.93640  0.55600  Biso   1.000  H
  H116     1.0000 0.23980  0.43640  0.94400  Biso   1.000  H
  H117     1.0000 0.32890  0.02950  0.46760  Biso   1.000  H
  H118     1.0000 0.67110  0.52950  0.03240  Biso   1.000  H
  H119     1.0000 0.67110  0.97050  0.53240  Biso   1.000  H
  H120     1.0000 0.32890  0.47050  0.96760  Biso   1.000  H
  O33      1.0000 0.09750  0.54520  0.96910  Biso   1.000  O
  O34      1.0000 0.90250  0.04520  0.53090  Biso   1.000  O
  O35      1.0000 0.90250  0.45480  0.03090  Biso   1.000  O
  O36      1.0000 0.09750  0.95480  0.46910  Biso   1.000  O
  H121     1.0000 0.06700  0.48180  0.98310  Biso   1.000  H
  H122     1.0000 0.93300  0.98180  0.51690  Biso   1.000  H
  H123     1.0000 0.93300  0.51820  0.01690  Biso   1.000  H
  H124     1.0000 0.06700  0.01820  0.48310  Biso   1.000  H
  H125     1.0000 0.09540  0.52680  0.93400  Biso   1.000  H
  H126     1.0000 0.90460  0.02680  0.56600  Biso   1.000  H
  H127     1.0000 0.90460  0.47320  0.06600  Biso   1.000  H
  H128     1.0000 0.09540  0.97320  0.43400  Biso   1.000  H
  O37      1.0000 0.08100  0.52260  0.08541  Biso   1.000  O
  O38      1.0000 0.91900  0.02260  0.41459  Biso   1.000  O
  O39      1.0000 0.91900  0.47740  0.91459  Biso   1.000  O
  O40      1.0000 0.08100  0.97740  0.58541  Biso   1.000  O
  H129     1.0000 0.10940  0.48280  0.11590  Biso   1.000  H
  H130     1.0000 0.89060  0.98280  0.38410  Biso   1.000  H
  H131     1.0000 0.89060  0.51720  0.88410  Biso   1.000  H
  H132     1.0000 0.10940  0.01720  0.61590  Biso   1.000  H
  H133     1.0000 0.11730  0.57470  0.07090  Biso   1.000  H
  H134     1.0000 0.88270  0.07470  0.42910  Biso   1.000  H
  H135     1.0000 0.88270  0.42530  0.92910  Biso   1.000  H
  H136     1.0000 0.11730  0.92530  0.57090  Biso   1.000  H
