data_image0
_cell_length_a       7.832
_cell_length_b       8.407
_cell_length_c       10.143
_cell_angle_alpha    84.772
_cell_angle_beta     83.075
_cell_angle_gamma    80.351

_symmetry_space_group_name_H-M    "P 1"
_symmetry_int_tables_number       1

loop_
  _symmetry_equiv_pos_as_xyz
  'x, y, z'

loop_
  _atom_site_label
  _atom_site_occupancy
  _atom_site_fract_x
  _atom_site_fract_y
  _atom_site_fract_z
  _atom_site_thermal_displace_type
  _atom_site_B_iso_or_equiv
  _atom_site_type_symbol
  Cu1      1.0000 0.50000  0.50000  0.00000  Biso   1.000  Cu
  O1       1.0000 0.69510  0.51030  0.09680  Biso   1.000  O
  O2       1.0000 0.30490  0.48970  0.90320  Biso   1.000  O
  O3       1.0000 0.50580  0.67300  0.21740  Biso   1.000  O
  O4       1.0000 0.49420  0.32700  0.78260  Biso   1.000  O
  O5       1.0000 0.19190  0.79150  0.55940  Biso   1.000  O
  O6       1.0000 0.80810  0.20850  0.44060  Biso   1.000  O
  N1       1.0000 0.43520  0.31980  0.12260  Biso   1.000  N
  N2       1.0000 0.56480  0.68020  0.87740  Biso   1.000  N
  N3       1.0000 0.30810  0.11660  0.20470  Biso   1.000  N
  N4       1.0000 0.69190  0.88340  0.79530  Biso   1.000  N
  C1       1.0000 0.65280  0.60400  0.18860  Biso   1.000  C
  C2       1.0000 0.34720  0.39600  0.81140  Biso   1.000  C
  C3       1.0000 0.79660  0.62750  0.26420  Biso   1.000  C
  C4       1.0000 0.20340  0.37250  0.73580  Biso   1.000  C
  C5       1.0000 0.96380  0.55310  0.23150  Biso   1.000  C
  C6       1.0000 0.03620  0.44690  0.76850  Biso   1.000  C
  H1       1.0000 0.98810  0.48610  0.16130  Biso   1.000  H
  H2       1.0000 0.01190  0.51390  0.83870  Biso   1.000  H
  C7       1.0000 0.09480  0.57660  0.30090  Biso   1.000  C
  C8       1.0000 0.90520  0.42340  0.69910  Biso   1.000  C
  H3       1.0000 0.20800  0.52590  0.27730  Biso   1.000  H
  H4       1.0000 0.79200  0.47410  0.72270  Biso   1.000  H
  C9       1.0000 0.06190  0.67340  0.40450  Biso   1.000  C
  C10      1.0000 0.93810  0.32660  0.59550  Biso   1.000  C
  C11      1.0000 0.89580  0.74750  0.43630  Biso   1.000  C
  C12      1.0000 0.10420  0.25250  0.56370  Biso   1.000  C
  H5       1.0000 0.87160  0.81510  0.50610  Biso   1.000  H
  H6       1.0000 0.12840  0.18490  0.49390  Biso   1.000  H
  C13      1.0000 0.76480  0.72410  0.36750  Biso   1.000  C
  C14      1.0000 0.23520  0.27590  0.63250  Biso   1.000  C
  H7       1.0000 0.65180  0.77500  0.39150  Biso   1.000  H
  H8       1.0000 0.34820  0.22500  0.60850  Biso   1.000  H
  C15      1.0000 0.20290  0.69720  0.47800  Biso   1.000  C
  C16      1.0000 0.79710  0.30280  0.52200  Biso   1.000  C
  H9       1.0000 0.31050  0.63310  0.45930  Biso   1.000  H
  H10      1.0000 0.68950  0.36690  0.54070  Biso   1.000  H
  C17      1.0000 0.50700  0.25370  0.23480  Biso   1.000  C
  C18      1.0000 0.49300  0.74630  0.76520  Biso   1.000  C
  H11      1.0000 0.59640  0.28960  0.27050  Biso   1.000  H
  H12      1.0000 0.40360  0.71040  0.72950  Biso   1.000  H
  C19      1.0000 0.42880  0.12960  0.28510  Biso   1.000  C
  C20      1.0000 0.57120  0.87040  0.71490  Biso   1.000  C
  H13      1.0000 0.45300  0.06400  0.36170  Biso   1.000  H
  H14      1.0000 0.54700  0.93600  0.63830  Biso   1.000  H
  C21      1.0000 0.31480  0.23350  0.10880  Biso   1.000  C
  C22      1.0000 0.68520  0.76650  0.89120  Biso   1.000  C
  H15      1.0000 0.24320  0.25210  0.04030  Biso   1.000  H
  H16      1.0000 0.75680  0.74790  0.95970  Biso   1.000  H
  C23      1.0000 0.19010  0.99540  0.22300  Biso   1.000  C
  C24      1.0000 0.80990  0.00460  0.77700  Biso   1.000  C
  H17      1.0000 0.25790  0.88870  0.23700  Biso   1.000  H
  H18      1.0000 0.74210  0.11130  0.76300  Biso   1.000  H
  H19      1.0000 0.10940  0.01570  0.30220  Biso   1.000  H
  H20      1.0000 0.89060  0.98430  0.69780  Biso   1.000  H
  C25      1.0000 0.09100  0.99730  0.10870  Biso   1.000  C
  C26      1.0000 0.90900  0.00270  0.89130  Biso   1.000  C
  C27      1.0000 0.15670  0.90530  0.00610  Biso   1.000  C
  C28      1.0000 0.84330  0.09470  0.99390  Biso   1.000  C
  H21      1.0000 0.26400  0.83890  0.00930  Biso   1.000  H
  H22      1.0000 0.73600  0.16110  0.99070  Biso   1.000  H
  C29      1.0000 0.93280  0.09140  0.10240  Biso   1.000  C
  C30      1.0000 0.06720  0.90860  0.89760  Biso   1.000  C
  H23      1.0000 0.88470  0.15430  0.17250  Biso   1.000  H
  H24      1.0000 0.11530  0.84570  0.82750  Biso   1.000  H
