data_image0
_cell_length_a       6.97316
_cell_length_b       28.3906
_cell_length_c       17.3886
_cell_angle_alpha    90
_cell_angle_beta     90
_cell_angle_gamma    90

_symmetry_space_group_name_H-M    "P 1"
_symmetry_int_tables_number       1

loop_
  _symmetry_equiv_pos_as_xyz
  'x, y, z'

loop_
  _atom_site_label
  _atom_site_occupancy
  _atom_site_fract_x
  _atom_site_fract_y
  _atom_site_fract_z
  _atom_site_thermal_displace_type
  _atom_site_B_iso_or_equiv
  _atom_site_type_symbol
  Cu1      1.0000 0.74012  0.31851  0.69044  Biso   1.000  Cu
  Cu2      1.0000 0.25988  0.68149  0.69044  Biso   1.000  Cu
  Cu3      1.0000 0.25988  0.31851  0.30956  Biso   1.000  Cu
  Cu4      1.0000 0.74012  0.68149  0.30956  Biso   1.000  Cu
  Cu5      1.0000 0.24012  0.81851  0.19044  Biso   1.000  Cu
  Cu6      1.0000 0.75988  0.18149  0.19044  Biso   1.000  Cu
  Cu7      1.0000 0.75988  0.81851  0.80956  Biso   1.000  Cu
  Cu8      1.0000 0.24012  0.18149  0.80956  Biso   1.000  Cu
  Cu9      1.0000 0.66498  0.37467  0.86076  Biso   1.000  Cu
  Cu10     1.0000 0.33502  0.62533  0.86076  Biso   1.000  Cu
  Cu11     1.0000 0.33502  0.37467  0.13924  Biso   1.000  Cu
  Cu12     1.0000 0.66498  0.62533  0.13924  Biso   1.000  Cu
  Cu13     1.0000 0.16498  0.87467  0.36076  Biso   1.000  Cu
  Cu14     1.0000 0.83502  0.12533  0.36076  Biso   1.000  Cu
  Cu15     1.0000 0.83502  0.87467  0.63924  Biso   1.000  Cu
  Cu16     1.0000 0.16498  0.12533  0.63924  Biso   1.000  Cu
  O1       1.0000 0.74620  0.30496  0.57970  Biso   1.000  O
  O2       1.0000 0.25380  0.69504  0.57970  Biso   1.000  O
  O3       1.0000 0.25380  0.30496  0.42030  Biso   1.000  O
  O4       1.0000 0.74620  0.69504  0.42030  Biso   1.000  O
  O5       1.0000 0.24620  0.80496  0.07970  Biso   1.000  O
  O6       1.0000 0.75380  0.19504  0.07970  Biso   1.000  O
  O7       1.0000 0.75380  0.80496  0.92030  Biso   1.000  O
  O8       1.0000 0.24620  0.19504  0.92030  Biso   1.000  O
  O9       1.0000 0.56970  0.42898  0.92490  Biso   1.000  O
  O10      1.0000 0.43030  0.57102  0.92490  Biso   1.000  O
  O11      1.0000 0.43030  0.42898  0.07510  Biso   1.000  O
  O12      1.0000 0.56970  0.57102  0.07510  Biso   1.000  O
  O13      1.0000 0.06970  0.92898  0.42490  Biso   1.000  O
  O14      1.0000 0.93030  0.07102  0.42490  Biso   1.000  O
  O15      1.0000 0.93030  0.92898  0.57510  Biso   1.000  O
  O16      1.0000 0.06970  0.07102  0.57510  Biso   1.000  O
  O17      1.0000 0.83090  0.25553  0.70700  Biso   1.000  O
  O18      1.0000 0.16910  0.74447  0.70700  Biso   1.000  O
  O19      1.0000 0.16910  0.25553  0.29300  Biso   1.000  O
  O20      1.0000 0.83090  0.74447  0.29300  Biso   1.000  O
  O21      1.0000 0.33090  0.75553  0.20700  Biso   1.000  O
  O22      1.0000 0.66910  0.24447  0.20700  Biso   1.000  O
  O23      1.0000 0.66910  0.75553  0.79300  Biso   1.000  O
  O24      1.0000 0.33090  0.24447  0.79300  Biso   1.000  O
  O25      1.0000 0.91470  0.20485  0.79670  Biso   1.000  O
  O26      1.0000 0.08530  0.79515  0.79670  Biso   1.000  O
  O27      1.0000 0.08530  0.20485  0.20330  Biso   1.000  O
  O28      1.0000 0.91470  0.79515  0.20330  Biso   1.000  O
  O29      1.0000 0.41470  0.70485  0.29670  Biso   1.000  O
  O30      1.0000 0.58530  0.29515  0.29670  Biso   1.000  O
  O31      1.0000 0.58530  0.70485  0.70330  Biso   1.000  O
  O32      1.0000 0.41470  0.29515  0.70330  Biso   1.000  O
  O33      1.0000 0.77540  0.32598  0.79960  Biso   1.000  O
  O34      1.0000 0.22460  0.67402  0.79960  Biso   1.000  O
  O35      1.0000 0.22460  0.32598  0.20040  Biso   1.000  O
  O36      1.0000 0.77540  0.67402  0.20040  Biso   1.000  O
  O37      1.0000 0.27540  0.82598  0.29960  Biso   1.000  O
  O38      1.0000 0.72460  0.17402  0.29960  Biso   1.000  O
  O39      1.0000 0.72460  0.82598  0.70040  Biso   1.000  O
  O40      1.0000 0.27540  0.17402  0.70040  Biso   1.000  O
  O41      1.0000 0.73130  0.34638  0.95810  Biso   1.000  O
  O42      1.0000 0.26870  0.65362  0.95810  Biso   1.000  O
  O43      1.0000 0.26870  0.34638  0.04190  Biso   1.000  O
  O44      1.0000 0.73130  0.65362  0.04190  Biso   1.000  O
  O45      1.0000 0.23130  0.84638  0.45810  Biso   1.000  O
  O46      1.0000 0.76870  0.15362  0.45810  Biso   1.000  O
  O47      1.0000 0.76870  0.84638  0.54190  Biso   1.000  O
  O48      1.0000 0.23130  0.15362  0.54190  Biso   1.000  O
  O49      1.0000 0.74890  0.28710  0.03890  Biso   1.000  O
  O50      1.0000 0.25110  0.71290  0.03890  Biso   1.000  O
  O51      1.0000 0.25110  0.28710  0.96110  Biso   1.000  O
  O52      1.0000 0.74890  0.71290  0.96110  Biso   1.000  O
  O53      1.0000 0.24890  0.78710  0.53890  Biso   1.000  O
  O54      1.0000 0.75110  0.21290  0.53890  Biso   1.000  O
  O55      1.0000 0.75110  0.78710  0.46110  Biso   1.000  O
  O56      1.0000 0.24890  0.21290  0.46110  Biso   1.000  O
  C1       1.0000 0.86750  0.24546  0.77620  Biso   1.000  C
  C2       1.0000 0.13250  0.75454  0.77620  Biso   1.000  C
  C3       1.0000 0.13250  0.24546  0.22380  Biso   1.000  C
  C4       1.0000 0.86750  0.75454  0.22380  Biso   1.000  C
  C5       1.0000 0.36750  0.74546  0.27620  Biso   1.000  C
  C6       1.0000 0.63250  0.25454  0.27620  Biso   1.000  C
  C7       1.0000 0.63250  0.74546  0.72380  Biso   1.000  C
  C8       1.0000 0.36750  0.25454  0.72380  Biso   1.000  C
  C9       1.0000 0.85160  0.28519  0.83560  Biso   1.000  C
  C10      1.0000 0.14840  0.71481  0.83560  Biso   1.000  C
  C11      1.0000 0.14840  0.28519  0.16440  Biso   1.000  C
  C12      1.0000 0.85160  0.71481  0.16440  Biso   1.000  C
  C13      1.0000 0.35160  0.78519  0.33560  Biso   1.000  C
  C14      1.0000 0.64840  0.21481  0.33560  Biso   1.000  C
  C15      1.0000 0.64840  0.78519  0.66440  Biso   1.000  C
  C16      1.0000 0.35160  0.21481  0.66440  Biso   1.000  C
  H1       1.0000 0.98370  0.29280  0.85420  Biso   1.000  H
  H2       1.0000 0.01630  0.70720  0.85420  Biso   1.000  H
  H3       1.0000 0.01630  0.29280  0.14580  Biso   1.000  H
  H4       1.0000 0.98370  0.70720  0.14580  Biso   1.000  H
  H5       1.0000 0.48370  0.79280  0.35420  Biso   1.000  H
  H6       1.0000 0.51630  0.20720  0.35420  Biso   1.000  H
  H7       1.0000 0.51630  0.79280  0.64580  Biso   1.000  H
  H8       1.0000 0.48370  0.20720  0.64580  Biso   1.000  H
  C17      1.0000 0.73390  0.26854  0.90430  Biso   1.000  C
  C18      1.0000 0.26610  0.73146  0.90430  Biso   1.000  C
  C19      1.0000 0.26610  0.26854  0.09570  Biso   1.000  C
  C20      1.0000 0.73390  0.73146  0.09570  Biso   1.000  C
  C21      1.0000 0.23390  0.76854  0.40430  Biso   1.000  C
  C22      1.0000 0.76610  0.23146  0.40430  Biso   1.000  C
  C23      1.0000 0.76610  0.76854  0.59570  Biso   1.000  C
  C24      1.0000 0.23390  0.23146  0.59570  Biso   1.000  C
  H9       1.0000 0.59890  0.26450  0.88810  Biso   1.000  H
  H10      1.0000 0.40110  0.73550  0.88810  Biso   1.000  H
  H11      1.0000 0.40110  0.26450  0.11190  Biso   1.000  H
  H12      1.0000 0.59890  0.73550  0.11190  Biso   1.000  H
  H13      1.0000 0.09890  0.76450  0.38810  Biso   1.000  H
  H14      1.0000 0.90110  0.23550  0.38810  Biso   1.000  H
  H15      1.0000 0.90110  0.76450  0.61190  Biso   1.000  H
  H16      1.0000 0.09890  0.23550  0.61190  Biso   1.000  H
  H17      1.0000 0.78240  0.23740  0.92120  Biso   1.000  H
  H18      1.0000 0.21760  0.76260  0.92120  Biso   1.000  H
  H19      1.0000 0.21760  0.23740  0.07880  Biso   1.000  H
  H20      1.0000 0.78240  0.76260  0.07880  Biso   1.000  H
  H21      1.0000 0.28240  0.73740  0.42120  Biso   1.000  H
  H22      1.0000 0.71760  0.26260  0.42120  Biso   1.000  H
  H23      1.0000 0.71760  0.73740  0.57880  Biso   1.000  H
  H24      1.0000 0.28240  0.26260  0.57880  Biso   1.000  H
  C25      1.0000 0.74080  0.30215  0.97130  Biso   1.000  C
  C26      1.0000 0.25920  0.69785  0.97130  Biso   1.000  C
  C27      1.0000 0.25920  0.30215  0.02870  Biso   1.000  C
  C28      1.0000 0.74080  0.69785  0.02870  Biso   1.000  C
  C29      1.0000 0.24080  0.80215  0.47130  Biso   1.000  C
  C30      1.0000 0.75920  0.19785  0.47130  Biso   1.000  C
  C31      1.0000 0.75920  0.80215  0.52870  Biso   1.000  C
  C32      1.0000 0.24080  0.19785  0.52870  Biso   1.000  C
  O57      1.0000 0.65870  0.38113  0.66530  Biso   1.000  O
  O58      1.0000 0.34130  0.61887  0.66530  Biso   1.000  O
  O59      1.0000 0.34130  0.38113  0.33470  Biso   1.000  O
  O60      1.0000 0.65870  0.61887  0.33470  Biso   1.000  O
  O61      1.0000 0.15870  0.88113  0.16530  Biso   1.000  O
  O62      1.0000 0.84130  0.11887  0.16530  Biso   1.000  O
  O63      1.0000 0.84130  0.88113  0.83470  Biso   1.000  O
  O64      1.0000 0.15870  0.11887  0.83470  Biso   1.000  O
  O65      1.0000 0.62460  0.41887  0.77770  Biso   1.000  O
  O66      1.0000 0.37540  0.58113  0.77770  Biso   1.000  O
  O67      1.0000 0.37540  0.41887  0.22230  Biso   1.000  O
  O68      1.0000 0.62460  0.58113  0.22230  Biso   1.000  O
  O69      1.0000 0.12460  0.91887  0.27770  Biso   1.000  O
  O70      1.0000 0.87540  0.08113  0.27770  Biso   1.000  O
  O71      1.0000 0.87540  0.91887  0.72230  Biso   1.000  O
  O72      1.0000 0.12460  0.08113  0.72230  Biso   1.000  O
  C33      1.0000 0.61800  0.41649  0.70560  Biso   1.000  C
  C34      1.0000 0.38200  0.58351  0.70560  Biso   1.000  C
  C35      1.0000 0.38200  0.41649  0.29440  Biso   1.000  C
  C36      1.0000 0.61800  0.58351  0.29440  Biso   1.000  C
  C37      1.0000 0.11800  0.91649  0.20560  Biso   1.000  C
  C38      1.0000 0.88200  0.08351  0.20560  Biso   1.000  C
  C39      1.0000 0.88200  0.91649  0.79440  Biso   1.000  C
  C40      1.0000 0.11800  0.08351  0.79440  Biso   1.000  C
  C41      1.0000 0.55490  0.45984  0.66330  Biso   1.000  C
  C42      1.0000 0.44510  0.54016  0.66330  Biso   1.000  C
  C43      1.0000 0.44510  0.45984  0.33670  Biso   1.000  C
  C44      1.0000 0.55490  0.54016  0.33670  Biso   1.000  C
  C45      1.0000 0.05490  0.95984  0.16330  Biso   1.000  C
  C46      1.0000 0.94510  0.04016  0.16330  Biso   1.000  C
  C47      1.0000 0.94510  0.95984  0.83670  Biso   1.000  C
  C48      1.0000 0.05490  0.04016  0.83670  Biso   1.000  C
  C49      1.0000 0.50000  0.50000  0.70330  Biso   1.000  C
  C50      1.0000 0.50000  0.50000  0.29670  Biso   1.000  C
  C51      1.0000 0.00000  0.00000  0.20330  Biso   1.000  C
  C52      1.0000 0.00000  0.00000  0.79670  Biso   1.000  C
  H25      1.0000 0.50000  0.50000  0.75790  Biso   1.000  H
  H26      1.0000 0.50000  0.50000  0.24210  Biso   1.000  H
  H27      1.0000 0.00000  0.00000  0.25790  Biso   1.000  H
  H28      1.0000 0.00000  0.00000  0.74210  Biso   1.000  H
  C53      1.0000 0.55310  0.45974  0.58310  Biso   1.000  C
  C54      1.0000 0.44690  0.54026  0.58310  Biso   1.000  C
  C55      1.0000 0.44690  0.45974  0.41690  Biso   1.000  C
  C56      1.0000 0.55310  0.54026  0.41690  Biso   1.000  C
  C57      1.0000 0.05310  0.95974  0.08310  Biso   1.000  C
  C58      1.0000 0.94690  0.04026  0.08310  Biso   1.000  C
  C59      1.0000 0.94690  0.95974  0.91690  Biso   1.000  C
  C60      1.0000 0.05310  0.04026  0.91690  Biso   1.000  C
  H29      1.0000 0.58830  0.43200  0.55600  Biso   1.000  H
  H30      1.0000 0.41170  0.56800  0.55600  Biso   1.000  H
  H31      1.0000 0.41170  0.43200  0.44400  Biso   1.000  H
  H32      1.0000 0.58830  0.56800  0.44400  Biso   1.000  H
  H33      1.0000 0.08830  0.93200  0.05600  Biso   1.000  H
  H34      1.0000 0.91170  0.06800  0.05600  Biso   1.000  H
  H35      1.0000 0.91170  0.93200  0.94400  Biso   1.000  H
  H36      1.0000 0.08830  0.06800  0.94400  Biso   1.000  H
  C61      1.0000 0.50000  0.50000  0.54250  Biso   1.000  C
  C62      1.0000 0.50000  0.50000  0.45750  Biso   1.000  C
  C63      1.0000 0.00000  0.00000  0.04250  Biso   1.000  C
  C64      1.0000 0.00000  0.00000  0.95750  Biso   1.000  C
  O73      1.0000 0.34880  0.34644  0.84420  Biso   1.000  O
  O74      1.0000 0.65120  0.65356  0.84420  Biso   1.000  O
  O75      1.0000 0.65120  0.34644  0.15580  Biso   1.000  O
  O76      1.0000 0.34880  0.65356  0.15580  Biso   1.000  O
  O77      1.0000 0.84880  0.84644  0.34420  Biso   1.000  O
  O78      1.0000 0.15120  0.15356  0.34420  Biso   1.000  O
  O79      1.0000 0.15120  0.84644  0.65580  Biso   1.000  O
  O80      1.0000 0.84880  0.15356  0.65580  Biso   1.000  O
  O81      1.0000 0.66980  0.35490  0.45440  Biso   1.000  O
  O82      1.0000 0.33020  0.64510  0.45440  Biso   1.000  O
  O83      1.0000 0.33020  0.35490  0.54560  Biso   1.000  O
  O84      1.0000 0.66980  0.64510  0.54560  Biso   1.000  O
  O85      1.0000 0.16980  0.85490  0.95440  Biso   1.000  O
  O86      1.0000 0.83020  0.14510  0.95440  Biso   1.000  O
  O87      1.0000 0.83020  0.85490  0.04560  Biso   1.000  O
  O88      1.0000 0.16980  0.14510  0.04560  Biso   1.000  O
  O89      1.0000 0.25870  0.48360  0.89390  Biso   1.000  O
  O90      1.0000 0.74130  0.51640  0.89390  Biso   1.000  O
  O91      1.0000 0.74130  0.48360  0.10610  Biso   1.000  O
  O92      1.0000 0.25870  0.51640  0.10610  Biso   1.000  O
  O93      1.0000 0.75870  0.98360  0.39390  Biso   1.000  O
  O94      1.0000 0.24130  0.01640  0.39390  Biso   1.000  O
  O95      1.0000 0.24130  0.98360  0.60610  Biso   1.000  O
  O96      1.0000 0.75870  0.01640  0.60610  Biso   1.000  O
  O97      1.0000 0.00000  0.42240  0.00000  Biso   1.000  O
  O98      1.0000 0.00000  0.57760  0.00000  Biso   1.000  O
  O99      1.0000 0.50000  0.92240  0.50000  Biso   1.000  O
  O100     1.0000 0.50000  0.07760  0.50000  Biso   1.000  O
  O101     1.0000 0.00000  0.50000  0.60840  Biso   1.000  O
  O102     1.0000 0.00000  0.50000  0.39160  Biso   1.000  O
  O103     1.0000 0.50000  0.00000  0.10840  Biso   1.000  O
  O104     1.0000 0.50000  0.00000  0.89160  Biso   1.000  O
  O105     1.0000 0.00500  0.48330  0.75780  Biso   1.000  O
  O106     1.0000 0.99500  0.51670  0.75780  Biso   1.000  O
  O107     1.0000 0.99500  0.48330  0.24220  Biso   1.000  O
  O108     1.0000 0.00500  0.51670  0.24220  Biso   1.000  O
  O109     1.0000 0.50500  0.98330  0.25780  Biso   1.000  O
  O110     1.0000 0.49500  0.01670  0.25780  Biso   1.000  O
  O111     1.0000 0.49500  0.98330  0.74220  Biso   1.000  O
  O112     1.0000 0.50500  0.01670  0.74220  Biso   1.000  O
  O113     1.0000 0.13190  0.37390  0.67400  Biso   1.000  O
  O114     1.0000 0.86810  0.62610  0.67400  Biso   1.000  O
  O115     1.0000 0.86810  0.37390  0.32600  Biso   1.000  O
  O116     1.0000 0.13190  0.62610  0.32600  Biso   1.000  O
  O117     1.0000 0.63190  0.87390  0.17400  Biso   1.000  O
  O118     1.0000 0.36810  0.12610  0.17400  Biso   1.000  O
  O119     1.0000 0.36810  0.87390  0.82600  Biso   1.000  O
  O120     1.0000 0.63190  0.12610  0.82600  Biso   1.000  O
  O121     1.0000 0.13970  0.42050  0.78140  Biso   1.000  O
  O122     1.0000 0.86030  0.57950  0.78140  Biso   1.000  O
  O123     1.0000 0.86030  0.42050  0.21860  Biso   1.000  O
  O124     1.0000 0.13970  0.57950  0.21860  Biso   1.000  O
  O125     1.0000 0.63970  0.92050  0.28140  Biso   1.000  O
  O126     1.0000 0.36030  0.07950  0.28140  Biso   1.000  O
  O127     1.0000 0.36030  0.92050  0.71860  Biso   1.000  O
  O128     1.0000 0.63970  0.07950  0.71860  Biso   1.000  O
  C65      1.0000 0.10250  0.41500  0.70670  Biso   1.000  C
  C66      1.0000 0.89750  0.58500  0.70670  Biso   1.000  C
  C67      1.0000 0.89750  0.41500  0.29330  Biso   1.000  C
  C68      1.0000 0.10250  0.58500  0.29330  Biso   1.000  C
  C69      1.0000 0.60250  0.91500  0.20670  Biso   1.000  C
  C70      1.0000 0.39750  0.08500  0.20670  Biso   1.000  C
  C71      1.0000 0.39750  0.91500  0.79330  Biso   1.000  C
  C72      1.0000 0.60250  0.08500  0.79330  Biso   1.000  C
  C73      1.0000 0.05110  0.45940  0.65970  Biso   1.000  C
  C74      1.0000 0.94890  0.54060  0.65970  Biso   1.000  C
  C75      1.0000 0.94890  0.45940  0.34030  Biso   1.000  C
  C76      1.0000 0.05110  0.54060  0.34030  Biso   1.000  C
  C77      1.0000 0.55110  0.95940  0.15970  Biso   1.000  C
  C78      1.0000 0.44890  0.04060  0.15970  Biso   1.000  C
  C79      1.0000 0.44890  0.95940  0.84030  Biso   1.000  C
  C80      1.0000 0.55110  0.04060  0.84030  Biso   1.000  C
  C81      1.0000 0.00000  0.50000  0.70230  Biso   1.000  C
  C82      1.0000 0.00000  0.50000  0.29770  Biso   1.000  C
  C83      1.0000 0.50000  0.00000  0.20230  Biso   1.000  C
  C84      1.0000 0.50000  0.00000  0.79770  Biso   1.000  C
  H37      1.0000 0.00000  0.50000  0.75690  Biso   1.000  H
  H38      1.0000 0.00000  0.50000  0.24310  Biso   1.000  H
  H39      1.0000 0.50000  0.00000  0.25690  Biso   1.000  H
  H40      1.0000 0.50000  0.00000  0.74310  Biso   1.000  H
  C85      1.0000 0.04870  0.46020  0.58780  Biso   1.000  C
  C86      1.0000 0.95130  0.53980  0.58780  Biso   1.000  C
  C87      1.0000 0.95130  0.46020  0.41220  Biso   1.000  C
  C88      1.0000 0.04870  0.53980  0.41220  Biso   1.000  C
  C89      1.0000 0.54870  0.96020  0.08780  Biso   1.000  C
  C90      1.0000 0.45130  0.03980  0.08780  Biso   1.000  C
  C91      1.0000 0.45130  0.96020  0.91220  Biso   1.000  C
  C92      1.0000 0.54870  0.03980  0.91220  Biso   1.000  C
  H41      1.0000 0.08200  0.43200  0.56170  Biso   1.000  H
  H42      1.0000 0.91800  0.56800  0.56170  Biso   1.000  H
  H43      1.0000 0.91800  0.43200  0.43830  Biso   1.000  H
  H44      1.0000 0.08200  0.56800  0.43830  Biso   1.000  H
  H45      1.0000 0.58200  0.93200  0.06170  Biso   1.000  H
  H46      1.0000 0.41800  0.06800  0.06170  Biso   1.000  H
  H47      1.0000 0.41800  0.93200  0.93830  Biso   1.000  H
  H48      1.0000 0.58200  0.06800  0.93830  Biso   1.000  H
  C93      1.0000 0.00000  0.50000  0.54170  Biso   1.000  C
  C94      1.0000 0.00000  0.50000  0.45830  Biso   1.000  C
  C95      1.0000 0.50000  0.00000  0.04170  Biso   1.000  C
  C96      1.0000 0.50000  0.00000  0.95830  Biso   1.000  C
