data_image0
_cell_length_a       4.9116
_cell_length_b       14.448
_cell_length_c       19.131
_cell_angle_alpha    90
_cell_angle_beta     90
_cell_angle_gamma    90

_symmetry_space_group_name_H-M    "P 1"
_symmetry_int_tables_number       1

loop_
  _symmetry_equiv_pos_as_xyz
  'x, y, z'

loop_
  _atom_site_label
  _atom_site_occupancy
  _atom_site_fract_x
  _atom_site_fract_y
  _atom_site_fract_z
  _atom_site_thermal_displace_type
  _atom_site_B_iso_or_equiv
  _atom_site_type_symbol
  Cu1      1.0000 0.75810  0.98350  0.83350  Biso   1.000  Cu
  Cu2      1.0000 0.74190  0.01650  0.33350  Biso   1.000  Cu
  Cu3      1.0000 0.25810  0.51650  0.16650  Biso   1.000  Cu
  Cu4      1.0000 0.24190  0.48350  0.66650  Biso   1.000  Cu
  N1       1.0000 0.80340  0.11830  0.85100  Biso   1.000  N
  N2       1.0000 0.69660  0.88170  0.35100  Biso   1.000  N
  N3       1.0000 0.30340  0.38170  0.14900  Biso   1.000  N
  N4       1.0000 0.19660  0.61830  0.64900  Biso   1.000  N
  C1       1.0000 0.71250  0.17850  0.80390  Biso   1.000  C
  C2       1.0000 0.78750  0.82150  0.30390  Biso   1.000  C
  C3       1.0000 0.21250  0.32150  0.19610  Biso   1.000  C
  C4       1.0000 0.28750  0.67850  0.69610  Biso   1.000  C
  C5       1.0000 0.76760  0.27130  0.80850  Biso   1.000  C
  C6       1.0000 0.73240  0.72870  0.30850  Biso   1.000  C
  C7       1.0000 0.26760  0.22870  0.19150  Biso   1.000  C
  C8       1.0000 0.23240  0.77130  0.69150  Biso   1.000  C
  C9       1.0000 0.92290  0.30370  0.86140  Biso   1.000  C
  C10      1.0000 0.57710  0.69630  0.36140  Biso   1.000  C
  C11      1.0000 0.42290  0.19630  0.13860  Biso   1.000  C
  C12      1.0000 0.07710  0.80370  0.63860  Biso   1.000  C
  C13      1.0000 0.02560  0.24220  0.90990  Biso   1.000  C
  C14      1.0000 0.47440  0.75780  0.40990  Biso   1.000  C
  C15      1.0000 0.52560  0.25780  0.09010  Biso   1.000  C
  C16      1.0000 0.97440  0.74220  0.59010  Biso   1.000  C
  C17      1.0000 0.95640  0.14960  0.90430  Biso   1.000  C
  C18      1.0000 0.54360  0.85040  0.40430  Biso   1.000  C
  C19      1.0000 0.45640  0.35040  0.09570  Biso   1.000  C
  C20      1.0000 0.04360  0.64960  0.59570  Biso   1.000  C
  C21      1.0000 0.05000  0.08410  0.95930  Biso   1.000  C
  C22      1.0000 0.45000  0.91590  0.45930  Biso   1.000  C
  C23      1.0000 0.55000  0.41590  0.04070  Biso   1.000  C
  C24      1.0000 0.95000  0.58410  0.54070  Biso   1.000  C
  O1       1.0000 0.25930  0.10130  0.99110  Biso   1.000  O
  O2       1.0000 0.24070  0.89870  0.49110  Biso   1.000  O
  O3       1.0000 0.75930  0.39870  0.00890  Biso   1.000  O
  O4       1.0000 0.74070  0.60130  0.50890  Biso   1.000  O
  N5       1.0000 0.71000  0.96230  0.93590  Biso   1.000  N
  N6       1.0000 0.79000  0.03770  0.43590  Biso   1.000  N
  N7       1.0000 0.21000  0.53770  0.06410  Biso   1.000  N
  N8       1.0000 0.29000  0.46230  0.56410  Biso   1.000  N
  C25      1.0000 0.87180  0.00440  0.98250  Biso   1.000  C
  C26      1.0000 0.62820  0.99560  0.48250  Biso   1.000  C
  C27      1.0000 0.37180  0.49560  0.01750  Biso   1.000  C
  C28      1.0000 0.12820  0.50440  0.51750  Biso   1.000  C
  C29      1.0000 0.87670  0.98130  0.05240  Biso   1.000  C
  C30      1.0000 0.62330  0.01870  0.55240  Biso   1.000  C
  C31      1.0000 0.37670  0.51870  0.94760  Biso   1.000  C
  C32      1.0000 0.12330  0.48130  0.44760  Biso   1.000  C
  C33      1.0000 0.70070  0.91120  0.07530  Biso   1.000  C
  C34      1.0000 0.79930  0.08880  0.57530  Biso   1.000  C
  C35      1.0000 0.20070  0.58880  0.92470  Biso   1.000  C
  C36      1.0000 0.29930  0.41120  0.42470  Biso   1.000  C
  C37      1.0000 0.53270  0.86950  0.02830  Biso   1.000  C
  C38      1.0000 0.96730  0.13050  0.52830  Biso   1.000  C
  C39      1.0000 0.03270  0.63050  0.97170  Biso   1.000  C
  C40      1.0000 0.46730  0.36950  0.47170  Biso   1.000  C
  C41      1.0000 0.54450  0.89580  0.95880  Biso   1.000  C
  C42      1.0000 0.95550  0.10420  0.45880  Biso   1.000  C
  C43      1.0000 0.04450  0.60420  0.04120  Biso   1.000  C
  C44      1.0000 0.45550  0.39580  0.54120  Biso   1.000  C
  N9       1.0000 0.22040  0.00280  0.75360  Biso   1.000  N
  N10      1.0000 0.27960  0.99720  0.25360  Biso   1.000  N
  N11      1.0000 0.72040  0.49720  0.24640  Biso   1.000  N
  N12      1.0000 0.77960  0.50280  0.74640  Biso   1.000  N
  O5       1.0000 0.95940  0.99440  0.74210  Biso   1.000  O
  O6       1.0000 0.54060  0.00560  0.24210  Biso   1.000  O
  O7       1.0000 0.45940  0.50560  0.25790  Biso   1.000  O
  O8       1.0000 0.04060  0.49440  0.75790  Biso   1.000  O
  O9       1.0000 0.29230  0.00780  0.81630  Biso   1.000  O
  O10      1.0000 0.20770  0.99220  0.31630  Biso   1.000  O
  O11      1.0000 0.79230  0.49220  0.18370  Biso   1.000  O
  O12      1.0000 0.70770  0.50780  0.68370  Biso   1.000  O
  O13      1.0000 0.37410  0.00390  0.70430  Biso   1.000  O
  O14      1.0000 0.12590  0.99610  0.20430  Biso   1.000  O
  O15      1.0000 0.87410  0.49610  0.29570  Biso   1.000  O
  O16      1.0000 0.62590  0.50390  0.79570  Biso   1.000  O
  N13      1.0000 0.83370  0.79150  0.82930  Biso   1.000  N
  N14      1.0000 0.66630  0.20850  0.32930  Biso   1.000  N
  N15      1.0000 0.33370  0.70850  0.17070  Biso   1.000  N
  N16      1.0000 0.16630  0.29150  0.67070  Biso   1.000  N
  O17      1.0000 0.66970  0.85690  0.80770  Biso   1.000  O
  O18      1.0000 0.83030  0.14310  0.30770  Biso   1.000  O
  O19      1.0000 0.16970  0.64310  0.19230  Biso   1.000  O
  O20      1.0000 0.33030  0.35690  0.69230  Biso   1.000  O
  O21      1.0000 0.76740  0.71170  0.81510  Biso   1.000  O
  O22      1.0000 0.73260  0.28830  0.31510  Biso   1.000  O
  O23      1.0000 0.26740  0.78830  0.18490  Biso   1.000  O
  O24      1.0000 0.23260  0.21170  0.68490  Biso   1.000  O
  O25      1.0000 0.03550  0.81350  0.86110  Biso   1.000  O
  O26      1.0000 0.46450  0.18650  0.36110  Biso   1.000  O
  O27      1.0000 0.53550  0.68650  0.13890  Biso   1.000  O
  O28      1.0000 0.96450  0.31350  0.63890  Biso   1.000  O
  H1       1.0000 0.60830  0.15700  0.76670  Biso   1.000  H
  H2       1.0000 0.89170  0.84300  0.26670  Biso   1.000  H
  H3       1.0000 0.10830  0.34300  0.23330  Biso   1.000  H
  H4       1.0000 0.39170  0.65700  0.73330  Biso   1.000  H
  H5       1.0000 0.69830  0.31190  0.77520  Biso   1.000  H
  H6       1.0000 0.80170  0.68810  0.27520  Biso   1.000  H
  H7       1.0000 0.19830  0.18810  0.22480  Biso   1.000  H
  H8       1.0000 0.30170  0.81190  0.72480  Biso   1.000  H
  H9       1.0000 0.96020  0.36660  0.86510  Biso   1.000  H
  H10      1.0000 0.53980  0.63340  0.36510  Biso   1.000  H
  H11      1.0000 0.46020  0.13340  0.13490  Biso   1.000  H
  H12      1.0000 0.03980  0.86660  0.63490  Biso   1.000  H
  H13      1.0000 0.13890  0.26260  0.94570  Biso   1.000  H
  H14      1.0000 0.36110  0.73740  0.44570  Biso   1.000  H
  H15      1.0000 0.63890  0.23740  0.05430  Biso   1.000  H
  H16      1.0000 0.86110  0.76260  0.55430  Biso   1.000  H
  H17      1.0000 0.99300  0.01130  0.08340  Biso   1.000  H
  H18      1.0000 0.50700  0.98870  0.58340  Biso   1.000  H
  H19      1.0000 0.49300  0.48870  0.91660  Biso   1.000  H
  H20      1.0000 0.00700  0.51130  0.41660  Biso   1.000  H
  H21      1.0000 0.69870  0.89350  0.12200  Biso   1.000  H
  H22      1.0000 0.80130  0.10650  0.62200  Biso   1.000  H
  H23      1.0000 0.19870  0.60650  0.87800  Biso   1.000  H
  H24      1.0000 0.30130  0.39350  0.37800  Biso   1.000  H
  H25      1.0000 0.41150  0.82390  0.04270  Biso   1.000  H
  H26      1.0000 0.08850  0.17610  0.54270  Biso   1.000  H
  H27      1.0000 0.91150  0.67610  0.95730  Biso   1.000  H
  H28      1.0000 0.58850  0.32390  0.45730  Biso   1.000  H
  H29      1.0000 0.43240  0.86590  0.92670  Biso   1.000  H
  H30      1.0000 0.06760  0.13410  0.42670  Biso   1.000  H
  H31      1.0000 0.93240  0.63410  0.07330  Biso   1.000  H
  H32      1.0000 0.56760  0.36590  0.57330  Biso   1.000  H
