data_image0
_cell_length_a       7.8
_cell_length_b       8.946
_cell_length_c       13.383
_cell_angle_alpha    118.964
_cell_angle_beta     92.693
_cell_angle_gamma    66.824

_symmetry_space_group_name_H-M    "P 1"
_symmetry_int_tables_number       1

loop_
  _symmetry_equiv_pos_as_xyz
  'x, y, z'

loop_
  _atom_site_label
  _atom_site_occupancy
  _atom_site_fract_x
  _atom_site_fract_y
  _atom_site_fract_z
  _atom_site_thermal_displace_type
  _atom_site_B_iso_or_equiv
  _atom_site_type_symbol
  Cu1      1.0000 0.19699  0.41145  0.38790  Biso   1.000  Cu
  Cu2      1.0000 0.80301  0.58855  0.61210  Biso   1.000  Cu
  Cu3      1.0000 0.43486  0.17788  0.15610  Biso   1.000  Cu
  Cu4      1.0000 0.56514  0.82212  0.84390  Biso   1.000  Cu
  Cl1      1.0000 0.81420  0.63610  0.46320  Biso   1.000  Cl
  Cl2      1.0000 0.18580  0.36390  0.53680  Biso   1.000  Cl
  Cl3      1.0000 0.66060  0.87950  0.05461  Biso   1.000  Cl
  Cl4      1.0000 0.33940  0.12050  0.94539  Biso   1.000  Cl
  Cl5      1.0000 0.24720  0.10890  0.24240  Biso   1.000  Cl
  Cl6      1.0000 0.75280  0.89110  0.75760  Biso   1.000  Cl
  O1       1.0000 0.24360  0.43470  0.25390  Biso   1.000  O
  O2       1.0000 0.75640  0.56530  0.74610  Biso   1.000  O
  N1       1.0000 0.25060  0.63770  0.47190  Biso   1.000  N
  N2       1.0000 0.74940  0.36230  0.52810  Biso   1.000  N
  N3       1.0000 0.59230  0.31450  0.16690  Biso   1.000  N
  N4       1.0000 0.40770  0.68550  0.83310  Biso   1.000  N
  C1       1.0000 0.23740  0.73850  0.58810  Biso   1.000  C
  C2       1.0000 0.76260  0.26150  0.41190  Biso   1.000  C
  C3       1.0000 0.24100  0.91160  0.64220  Biso   1.000  C
  C4       1.0000 0.75900  0.08840  0.35780  Biso   1.000  C
  C5       1.0000 0.25240  0.98870  0.57730  Biso   1.000  C
  C6       1.0000 0.74760  0.01130  0.42270  Biso   1.000  C
  C7       1.0000 0.26440  0.88750  0.45750  Biso   1.000  C
  C8       1.0000 0.73560  0.11250  0.54250  Biso   1.000  C
  C9       1.0000 0.26780  0.70990  0.40780  Biso   1.000  C
  C10      1.0000 0.73220  0.29010  0.59220  Biso   1.000  C
  C11      1.0000 0.28880  0.58320  0.27630  Biso   1.000  C
  C12      1.0000 0.71120  0.41680  0.72370  Biso   1.000  C
  C13      1.0000 0.49450  0.50310  0.21770  Biso   1.000  C
  C14      1.0000 0.50550  0.49690  0.78230  Biso   1.000  C
  C15      1.0000 0.57490  0.61580  0.21880  Biso   1.000  C
  C16      1.0000 0.42510  0.38420  0.78120  Biso   1.000  C
  C17      1.0000 0.76550  0.53410  0.17270  Biso   1.000  C
  C18      1.0000 0.23450  0.46590  0.82730  Biso   1.000  C
  C19      1.0000 0.86800  0.34370  0.12580  Biso   1.000  C
  C20      1.0000 0.13200  0.65630  0.87420  Biso   1.000  C
  C21      1.0000 0.77710  0.23600  0.12160  Biso   1.000  C
  C22      1.0000 0.22290  0.76400  0.87840  Biso   1.000  C
  O3       1.0000 0.16260  0.70510  0.24180  Biso   1.000  O
  O4       1.0000 0.83740  0.29490  0.75820  Biso   1.000  O
  C23      1.0000 0.17510  0.63250  0.11950  Biso   1.000  C
  C24      1.0000 0.82490  0.36750  0.88050  Biso   1.000  C
  H1       1.0000 0.20900  0.69600  0.63500  Biso   1.000  H
  H2       1.0000 0.79100  0.30400  0.36500  Biso   1.000  H
  H3       1.0000 0.22400  0.98300  0.72400  Biso   1.000  H
  H4       1.0000 0.77600  0.01700  0.27600  Biso   1.000  H
  H5       1.0000 0.26800  0.10700  0.61200  Biso   1.000  H
  H6       1.0000 0.73200  0.89300  0.38800  Biso   1.000  H
  H7       1.0000 0.25700  0.93800  0.41700  Biso   1.000  H
  H8       1.0000 0.74300  0.06200  0.58300  Biso   1.000  H
  H9       1.0000 0.49600  0.74700  0.24700  Biso   1.000  H
  H10      1.0000 0.50400  0.25300  0.75300  Biso   1.000  H
  H11      1.0000 0.82600  0.60100  0.17400  Biso   1.000  H
  H12      1.0000 0.17400  0.39900  0.82600  Biso   1.000  H
  H13      1.0000 0.97100  0.29500  0.10400  Biso   1.000  H
  H14      1.0000 0.02900  0.70500  0.89600  Biso   1.000  H
  H15      1.0000 0.83500  0.10900  0.08700  Biso   1.000  H
  H16      1.0000 0.16500  0.89100  0.91300  Biso   1.000  H
  H17      1.0000 0.15800  0.52700  0.08500  Biso   1.000  H
  H18      1.0000 0.84200  0.47300  0.91500  Biso   1.000  H
  H19      1.0000 0.28100  0.61000  0.08500  Biso   1.000  H
  H20      1.0000 0.71900  0.39000  0.91500  Biso   1.000  H
  H21      1.0000 0.08100  0.72800  0.11400  Biso   1.000  H
  H22      1.0000 0.91900  0.27200  0.88600  Biso   1.000  H
