data_image0
_cell_length_a       7.761
_cell_length_b       8.867
_cell_length_c       11.921
_cell_angle_alpha    78.35
_cell_angle_beta     76.43
_cell_angle_gamma    66.7

_symmetry_space_group_name_H-M    "P 1"
_symmetry_int_tables_number       1

loop_
  _symmetry_equiv_pos_as_xyz
  'x, y, z'

loop_
  _atom_site_label
  _atom_site_occupancy
  _atom_site_fract_x
  _atom_site_fract_y
  _atom_site_fract_z
  _atom_site_thermal_displace_type
  _atom_site_B_iso_or_equiv
  _atom_site_type_symbol
  Cu1      1.0000 0.19410  0.02540  0.38840  Biso   1.000  Cu
  Cu2      1.0000 0.80590  0.97460  0.61160  Biso   1.000  Cu
  Cu3      1.0000 0.43320  0.02220  0.15620  Biso   1.000  Cu
  Cu4      1.0000 0.56680  0.97780  0.84380  Biso   1.000  Cu
  Cl1      1.0000 0.65980  0.82390  0.05400  Biso   1.000  Cl
  Cl2      1.0000 0.34020  0.17610  0.94600  Biso   1.000  Cl
  Cl3      1.0000 0.81370  0.17190  0.46170  Biso   1.000  Cl
  Cl4      1.0000 0.18630  0.82810  0.53830  Biso   1.000  Cl
  Cl5      1.0000 0.24440  0.86710  0.24220  Biso   1.000  Cl
  Cl6      1.0000 0.75560  0.13290  0.75780  Biso   1.000  Cl
  N1       1.0000 0.59270  0.14780  0.16710  Biso   1.000  N
  N2       1.0000 0.40730  0.85220  0.83290  Biso   1.000  N
  C1       1.0000 0.77920  0.11350  0.12280  Biso   1.000  C
  C2       1.0000 0.22080  0.88650  0.87720  Biso   1.000  C
  C3       1.0000 0.87090  0.21830  0.12440  Biso   1.000  C
  C4       1.0000 0.12910  0.78170  0.87560  Biso   1.000  C
  C5       1.0000 0.76760  0.36290  0.17220  Biso   1.000  C
  C6       1.0000 0.23240  0.63710  0.82780  Biso   1.000  C
  C7       1.0000 0.57480  0.40150  0.21640  Biso   1.000  C
  C8       1.0000 0.42520  0.59850  0.78360  Biso   1.000  C
  C9       1.0000 0.49420  0.28570  0.21650  Biso   1.000  C
  C10      1.0000 0.50580  0.71430  0.78350  Biso   1.000  C
  C11      1.0000 0.28740  0.30930  0.27720  Biso   1.000  C
  C12      1.0000 0.71260  0.69070  0.72280  Biso   1.000  C
  C13      1.0000 0.26700  0.30440  0.40730  Biso   1.000  C
  C14      1.0000 0.73300  0.69560  0.59270  Biso   1.000  C
  C15      1.0000 0.26560  0.43410  0.45810  Biso   1.000  C
  C16      1.0000 0.73440  0.56590  0.54190  Biso   1.000  C
  C17      1.0000 0.25340  0.41510  0.57600  Biso   1.000  C
  C18      1.0000 0.74660  0.58490  0.42400  Biso   1.000  C
  C19      1.0000 0.24280  0.27110  0.64270  Biso   1.000  C
  C20      1.0000 0.75720  0.72890  0.35730  Biso   1.000  C
  C21      1.0000 0.24030  0.15080  0.58820  Biso   1.000  C
  C22      1.0000 0.75970  0.84920  0.41180  Biso   1.000  C
  N3       1.0000 0.25020  0.16770  0.47230  Biso   1.000  N
  N4       1.0000 0.74980  0.83230  0.52770  Biso   1.000  N
  O1       1.0000 0.24070  0.18320  0.25290  Biso   1.000  O
  O2       1.0000 0.75930  0.81680  0.74710  Biso   1.000  O
  O3       1.0000 0.15900  0.46720  0.24140  Biso   1.000  O
  O4       1.0000 0.84100  0.53280  0.75860  Biso   1.000  O
  C23      1.0000 0.17420  0.51590  0.11850  Biso   1.000  C
  C24      1.0000 0.82580  0.48410  0.88150  Biso   1.000  C
  H1       1.0000 0.85070  0.01240  0.08890  Biso   1.000  H
  H2       1.0000 0.14930  0.98760  0.91110  Biso   1.000  H
  H3       1.0000 0.00370  0.19060  0.09250  Biso   1.000  H
  H4       1.0000 0.99630  0.80940  0.90750  Biso   1.000  H
  H5       1.0000 0.82840  0.43720  0.17540  Biso   1.000  H
  H6       1.0000 0.17160  0.56280  0.82460  Biso   1.000  H
  H7       1.0000 0.49880  0.50510  0.24610  Biso   1.000  H
  H8       1.0000 0.50120  0.49490  0.75390  Biso   1.000  H
  H9       1.0000 0.27310  0.53380  0.41140  Biso   1.000  H
  H10      1.0000 0.72690  0.46620  0.58860  Biso   1.000  H
  H11      1.0000 0.25220  0.50250  0.61280  Biso   1.000  H
  H12      1.0000 0.74780  0.49750  0.38720  Biso   1.000  H
  H13      1.0000 0.23720  0.25610  0.72540  Biso   1.000  H
  H14      1.0000 0.76280  0.74390  0.27460  Biso   1.000  H
  H15      1.0000 0.23130  0.05100  0.63390  Biso   1.000  H
  H16      1.0000 0.76870  0.94900  0.36610  Biso   1.000  H
  H17      1.0000 0.08130  0.62450  0.10340  Biso   1.000  H
  H18      1.0000 0.91870  0.37550  0.89660  Biso   1.000  H
  H19      1.0000 0.15220  0.43880  0.08290  Biso   1.000  H
  H20      1.0000 0.84780  0.56120  0.91710  Biso   1.000  H
  H21      1.0000 0.29950  0.51710  0.08680  Biso   1.000  H
  H22      1.0000 0.70050  0.48290  0.91320  Biso   1.000  H
