data_image0
_cell_length_a       7.7405
_cell_length_b       8.8843
_cell_length_c       11.9126
_cell_angle_alpha    78.2995
_cell_angle_beta     76.1188
_cell_angle_gamma    66.9589

_symmetry_space_group_name_H-M    "P 1"
_symmetry_int_tables_number       1

loop_
  _symmetry_equiv_pos_as_xyz
  'x, y, z'

loop_
  _atom_site_label
  _atom_site_occupancy
  _atom_site_fract_x
  _atom_site_fract_y
  _atom_site_fract_z
  _atom_site_thermal_displace_type
  _atom_site_B_iso_or_equiv
  _atom_site_type_symbol
  Cu1      1.0000 0.43312  0.02227  0.15616  Biso   1.000  Cu
  Cu2      1.0000 0.56688  0.97773  0.84384  Biso   1.000  Cu
  Cu3      1.0000 0.19375  0.02564  0.38839  Biso   1.000  Cu
  Cu4      1.0000 0.80625  0.97436  0.61161  Biso   1.000  Cu
  Cl1      1.0000 0.65971  0.82413  0.05409  Biso   1.000  Cl
  Cl2      1.0000 0.34029  0.17587  0.94591  Biso   1.000  Cl
  Cl3      1.0000 0.24379  0.86722  0.24223  Biso   1.000  Cl
  Cl4      1.0000 0.75621  0.13278  0.75777  Biso   1.000  Cl
  Cl5      1.0000 0.18603  0.82790  0.53803  Biso   1.000  Cl
  Cl6      1.0000 0.81397  0.17210  0.46197  Biso   1.000  Cl
  O1       1.0000 0.24070  0.18240  0.25377  Biso   1.000  O
  O2       1.0000 0.75930  0.81760  0.74623  Biso   1.000  O
  N1       1.0000 0.25060  0.16760  0.47210  Biso   1.000  N
  N2       1.0000 0.74940  0.83240  0.52790  Biso   1.000  N
  O3       1.0000 0.15900  0.46660  0.24219  Biso   1.000  O
  O4       1.0000 0.84100  0.53340  0.75781  Biso   1.000  O
  N3       1.0000 0.59200  0.14790  0.16720  Biso   1.000  N
  N4       1.0000 0.40800  0.85210  0.83280  Biso   1.000  N
  C1       1.0000 0.28600  0.31040  0.27620  Biso   1.000  C
  C2       1.0000 0.71400  0.68960  0.72380  Biso   1.000  C
  C3       1.0000 0.49260  0.28770  0.21730  Biso   1.000  C
  C4       1.0000 0.50740  0.71230  0.78270  Biso   1.000  C
  C5       1.0000 0.57570  0.40020  0.21660  Biso   1.000  C
  C6       1.0000 0.42430  0.59980  0.78340  Biso   1.000  C
  H1       1.0000 0.50170  0.50150  0.24740  Biso   1.000  H
  H2       1.0000 0.49830  0.49850  0.75260  Biso   1.000  H
  C7       1.0000 0.76710  0.36420  0.17080  Biso   1.000  C
  C8       1.0000 0.23290  0.63580  0.82920  Biso   1.000  C
  H3       1.0000 0.82600  0.44030  0.17010  Biso   1.000  H
  H4       1.0000 0.17400  0.55970  0.82990  Biso   1.000  H
  C9       1.0000 0.87140  0.21720  0.12620  Biso   1.000  C
  C10      1.0000 0.12860  0.78280  0.87380  Biso   1.000  C
  H5       1.0000 0.00490  0.18700  0.09870  Biso   1.000  H
  H6       1.0000 0.99510  0.81300  0.90130  Biso   1.000  H
  C11      1.0000 0.77800  0.11370  0.12230  Biso   1.000  C
  C12      1.0000 0.22200  0.88630  0.87770  Biso   1.000  C
  H7       1.0000 0.84770  0.01550  0.08670  Biso   1.000  H
  H8       1.0000 0.15230  0.98450  0.91330  Biso   1.000  H
  C13      1.0000 0.26670  0.30500  0.40770  Biso   1.000  C
  C14      1.0000 0.73330  0.69500  0.59230  Biso   1.000  C
  C15      1.0000 0.26480  0.43390  0.45760  Biso   1.000  C
  C16      1.0000 0.73520  0.56610  0.54240  Biso   1.000  C
  H9       1.0000 0.26990  0.53280  0.41090  Biso   1.000  H
  H10      1.0000 0.73010  0.46720  0.58910  Biso   1.000  H
  C17      1.0000 0.25530  0.41520  0.57710  Biso   1.000  C
  C18      1.0000 0.74470  0.58480  0.42290  Biso   1.000  C
  H11      1.0000 0.25670  0.50060  0.61320  Biso   1.000  H
  H12      1.0000 0.74330  0.49940  0.38680  Biso   1.000  H
  C19      1.0000 0.24390  0.27220  0.64290  Biso   1.000  C
  C20      1.0000 0.75610  0.72780  0.35710  Biso   1.000  C
  H13      1.0000 0.23970  0.25730  0.72470  Biso   1.000  H
  H14      1.0000 0.76030  0.74270  0.27530  Biso   1.000  H
  C21      1.0000 0.23880  0.15090  0.58960  Biso   1.000  C
  C22      1.0000 0.76120  0.84910  0.41040  Biso   1.000  C
  H15      1.0000 0.22670  0.05360  0.63560  Biso   1.000  H
  H16      1.0000 0.77330  0.94640  0.36440  Biso   1.000  H
  C23      1.0000 0.17380  0.51730  0.11860  Biso   1.000  C
  C24      1.0000 0.82620  0.48270  0.88140  Biso   1.000  C
  H17      1.0000 0.06270  0.61590  0.10350  Biso   1.000  H
  H18      1.0000 0.93730  0.38410  0.89650  Biso   1.000  H
  H19      1.0000 0.17850  0.42830  0.07970  Biso   1.000  H
  H20      1.0000 0.82150  0.57170  0.92030  Biso   1.000  H
  H21      1.0000 0.29040  0.54220  0.08870  Biso   1.000  H
  H22      1.0000 0.70960  0.45780  0.91130  Biso   1.000  H
