data_image0
_cell_length_a       5.8754
_cell_length_b       13.367
_cell_length_c       14.6338
_cell_angle_alpha    114.664
_cell_angle_beta     99.732
_cell_angle_gamma    95.8

_symmetry_space_group_name_H-M    "P 1"
_symmetry_int_tables_number       1

loop_
  _symmetry_equiv_pos_as_xyz
  'x, y, z'

loop_
  _atom_site_label
  _atom_site_occupancy
  _atom_site_fract_x
  _atom_site_fract_y
  _atom_site_fract_z
  _atom_site_thermal_displace_type
  _atom_site_B_iso_or_equiv
  _atom_site_type_symbol
  Cu1      1.0000 0.00000  0.00000  0.00000  Biso   1.000  Cu
  Cl1      1.0000 0.38770  0.71372  0.33507  Biso   1.000  Cl
  Cl2      1.0000 0.61230  0.28628  0.66493  Biso   1.000  Cl
  O1       1.0000 0.14450  0.89727  0.04684  Biso   1.000  O
  O2       1.0000 0.85550  0.10273  0.95316  Biso   1.000  O
  O3       1.0000 0.93140  0.09170  0.13281  Biso   1.000  O
  O4       1.0000 0.06860  0.90830  0.86719  Biso   1.000  O
  O5       1.0000 0.52390  0.25790  0.25799  Biso   1.000  O
  O6       1.0000 0.47610  0.74210  0.74201  Biso   1.000  O
  O7       1.0000 0.40980  0.11130  0.05400  Biso   1.000  O
  O8       1.0000 0.59020  0.88870  0.94600  Biso   1.000  O
  O9       1.0000 0.36140  0.79090  0.29650  Biso   1.000  O
  O10      1.0000 0.63860  0.20910  0.70350  Biso   1.000  O
  O11      1.0000 0.57140  0.65620  0.30620  Biso   1.000  O
  O12      1.0000 0.42860  0.34380  0.69380  Biso   1.000  O
  O13      1.0000 0.18700  0.63360  0.29580  Biso   1.000  O
  O14      1.0000 0.81300  0.36640  0.70420  Biso   1.000  O
  O15      1.0000 0.44710  0.76410  0.44030  Biso   1.000  O
  O16      1.0000 0.55290  0.23590  0.55970  Biso   1.000  O
  N1       1.0000 0.01740  0.79868  0.03001  Biso   1.000  N
  N2       1.0000 0.98260  0.20132  0.96999  Biso   1.000  N
  N3       1.0000 0.94830  0.05685  0.20753  Biso   1.000  N
  N4       1.0000 0.05170  0.94315  0.79247  Biso   1.000  N
  N5       1.0000 0.73990  0.30340  0.31460  Biso   1.000  N
  N6       1.0000 0.26010  0.69660  0.68540  Biso   1.000  N
  C1       1.0000 0.89650  0.72470  0.93540  Biso   1.000  C
  C2       1.0000 0.10350  0.27530  0.06460  Biso   1.000  C
  H1       1.0000 0.89780  0.74090  0.87950  Biso   1.000  H
  H2       1.0000 0.10220  0.25910  0.12050  Biso   1.000  H
  C3       1.0000 0.77080  0.62490  0.92050  Biso   1.000  C
  C4       1.0000 0.22920  0.37510  0.07950  Biso   1.000  C
  H3       1.0000 0.68760  0.57370  0.85430  Biso   1.000  H
  H4       1.0000 0.31240  0.42630  0.14570  Biso   1.000  H
  C5       1.0000 0.76550  0.59900  0.00300  Biso   1.000  C
  C6       1.0000 0.23450  0.40100  0.99700  Biso   1.000  C
  C7       1.0000 0.61980  0.49190  0.98890  Biso   1.000  C
  C8       1.0000 0.38020  0.50810  0.01110  Biso   1.000  C
  H5       1.0000 0.70250  0.46530  0.03500  Biso   1.000  H
  H6       1.0000 0.29750  0.53470  0.96500  Biso   1.000  H
  H7       1.0000 0.60000  0.43510  0.91850  Biso   1.000  H
  H8       1.0000 0.40000  0.56490  0.08150  Biso   1.000  H
  C9       1.0000 0.89370  0.67770  0.09850  Biso   1.000  C
  C10      1.0000 0.10630  0.32230  0.90150  Biso   1.000  C
  H9       1.0000 0.89430  0.66370  0.15570  Biso   1.000  H
  H10      1.0000 0.10570  0.33630  0.84430  Biso   1.000  H
  C11      1.0000 0.02010  0.77570  0.11130  Biso   1.000  C
  C12      1.0000 0.97990  0.22430  0.88870  Biso   1.000  C
  H11      1.0000 0.10870  0.82700  0.17650  Biso   1.000  H
  H12      1.0000 0.89130  0.17300  0.82350  Biso   1.000  H
  C13      1.0000 0.75540  0.99930  0.21410  Biso   1.000  C
  C14      1.0000 0.24460  0.00070  0.78590  Biso   1.000  C
  H13      1.0000 0.61390  0.98130  0.16600  Biso   1.000  H
  H14      1.0000 0.38610  0.01870  0.83400  Biso   1.000  H
  C15      1.0000 0.76940  0.96780  0.29180  Biso   1.000  C
  C16      1.0000 0.23060  0.03220  0.70820  Biso   1.000  C
  H15      1.0000 0.63580  0.92750  0.29560  Biso   1.000  H
  H16      1.0000 0.36420  0.07250  0.70440  Biso   1.000  H
  C17      1.0000 0.97680  0.99410  0.36530  Biso   1.000  C
  C18      1.0000 0.02320  0.00590  0.63470  Biso   1.000  C
  C19      1.0000 0.99540  0.96010  0.45230  Biso   1.000  C
  C20      1.0000 0.00460  0.03990  0.54770  Biso   1.000  C
  H17      1.0000 0.86140  0.90110  0.43410  Biso   1.000  H
  H18      1.0000 0.13860  0.09890  0.56590  Biso   1.000  H
  H19      1.0000 0.13540  0.92790  0.45550  Biso   1.000  H
  H20      1.0000 0.86460  0.07210  0.54450  Biso   1.000  H
  C21      1.0000 0.16820  0.05470  0.35620  Biso   1.000  C
  C22      1.0000 0.83180  0.94530  0.64380  Biso   1.000  C
  H21      1.0000 0.31070  0.07500  0.40430  Biso   1.000  H
  H22      1.0000 0.68930  0.92500  0.59570  Biso   1.000  H
  C23      1.0000 0.15120  0.08580  0.27640  Biso   1.000  C
  C24      1.0000 0.84880  0.91420  0.72360  Biso   1.000  C
  H23      1.0000 0.28170  0.12680  0.27110  Biso   1.000  H
  H24      1.0000 0.71830  0.87320  0.72890  Biso   1.000  H
  C25      1.0000 0.81940  0.28370  0.39650  Biso   1.000  C
  C26      1.0000 0.18060  0.71630  0.60350  Biso   1.000  C
  H25      1.0000 0.72160  0.23550  0.41060  Biso   1.000  H
  H26      1.0000 0.27840  0.76450  0.58940  Biso   1.000  H
  C27      1.0000 0.03600  0.33170  0.45810  Biso   1.000  C
  C28      1.0000 0.96400  0.66830  0.54190  Biso   1.000  C
  H27      1.0000 0.08490  0.31620  0.51390  Biso   1.000  H
  H28      1.0000 0.91510  0.68380  0.48610  Biso   1.000  H
  C29      1.0000 0.18810  0.40430  0.43960  Biso   1.000  C
  C30      1.0000 0.81190  0.59570  0.56040  Biso   1.000  C
  C31      1.0000 0.42840  0.45800  0.51170  Biso   1.000  C
  C32      1.0000 0.57160  0.54200  0.48830  Biso   1.000  C
  H29      1.0000 0.51630  0.39940  0.50830  Biso   1.000  H
  H30      1.0000 0.48370  0.60060  0.49170  Biso   1.000  H
  H31      1.0000 0.40920  0.49570  0.58190  Biso   1.000  H
  H32      1.0000 0.59080  0.50430  0.41810  Biso   1.000  H
  C33      1.0000 0.10370  0.42330  0.35570  Biso   1.000  C
  C34      1.0000 0.89630  0.57670  0.64430  Biso   1.000  C
  H33      1.0000 0.19950  0.47080  0.34010  Biso   1.000  H
  H34      1.0000 0.80050  0.52920  0.65990  Biso   1.000  H
  C35      1.0000 0.87990  0.37320  0.29420  Biso   1.000  C
  C36      1.0000 0.12010  0.62680  0.70580  Biso   1.000  C
  H35      1.0000 0.82610  0.38790  0.23840  Biso   1.000  H
  H36      1.0000 0.17390  0.61210  0.76160  Biso   1.000  H
  H37      1.0000 0.45200  0.16400  0.11500  Biso   1.000  H
  H38      1.0000 0.54800  0.83600  0.88500  Biso   1.000  H
  H39      1.0000 0.52100  0.10100  0.03600  Biso   1.000  H
  H40      1.0000 0.47900  0.89900  0.96400  Biso   1.000  H
