data_image0
_cell_length_a       3.5232
_cell_length_b       10.337
_cell_length_c       25.0518
_cell_angle_alpha    90
_cell_angle_beta     90.229
_cell_angle_gamma    90

_symmetry_space_group_name_H-M    "P 1"
_symmetry_int_tables_number       1

loop_
  _symmetry_equiv_pos_as_xyz
  'x, y, z'

loop_
  _atom_site_label
  _atom_site_occupancy
  _atom_site_fract_x
  _atom_site_fract_y
  _atom_site_fract_z
  _atom_site_thermal_displace_type
  _atom_site_B_iso_or_equiv
  _atom_site_type_symbol
  Cu1      1.0000 0.50000  0.00000  0.00000  Biso   1.000  Cu
  Cu2      1.0000 0.50000  0.50000  0.50000  Biso   1.000  Cu
  C1       1.0000 0.40460  0.35550  0.07992  Biso   1.000  C
  C2       1.0000 0.59540  0.85550  0.42008  Biso   1.000  C
  C3       1.0000 0.59540  0.64450  0.92008  Biso   1.000  C
  C4       1.0000 0.40460  0.14450  0.57992  Biso   1.000  C
  C5       1.0000 0.53180  0.31330  0.12947  Biso   1.000  C
  C6       1.0000 0.46820  0.81330  0.37053  Biso   1.000  C
  C7       1.0000 0.46820  0.68670  0.87053  Biso   1.000  C
  C8       1.0000 0.53180  0.18670  0.62947  Biso   1.000  C
  H1       1.0000 0.59200  0.22470  0.13500  Biso   1.000  H
  H2       1.0000 0.40800  0.72470  0.36500  Biso   1.000  H
  H3       1.0000 0.40800  0.77530  0.86500  Biso   1.000  H
  H4       1.0000 0.59200  0.27530  0.63500  Biso   1.000  H
  C9       1.0000 0.56990  0.40090  0.17050  Biso   1.000  C
  C10      1.0000 0.43010  0.90090  0.32950  Biso   1.000  C
  C11      1.0000 0.43010  0.59910  0.82950  Biso   1.000  C
  C12      1.0000 0.56990  0.09910  0.67050  Biso   1.000  C
  H5       1.0000 0.65290  0.37300  0.20470  Biso   1.000  H
  H6       1.0000 0.34710  0.87300  0.29530  Biso   1.000  H
  H7       1.0000 0.34710  0.62700  0.79530  Biso   1.000  H
  H8       1.0000 0.65290  0.12700  0.70470  Biso   1.000  H
  N1       1.0000 0.48850  0.52660  0.16176  Biso   1.000  N
  N2       1.0000 0.51150  0.02660  0.33824  Biso   1.000  N
  N3       1.0000 0.51150  0.47340  0.83824  Biso   1.000  N
  N4       1.0000 0.48850  0.97340  0.66176  Biso   1.000  N
  H9       1.0000 0.50000  0.58300  0.18790  Biso   1.000  H
  H10      1.0000 0.50000  0.08300  0.31210  Biso   1.000  H
  H11      1.0000 0.50000  0.41700  0.81210  Biso   1.000  H
  H12      1.0000 0.50000  0.91700  0.68790  Biso   1.000  H
  C13      1.0000 0.36750  0.57110  0.11432  Biso   1.000  C
  C14      1.0000 0.63250  0.07110  0.38568  Biso   1.000  C
  C15      1.0000 0.63250  0.42890  0.88568  Biso   1.000  C
  C16      1.0000 0.36750  0.92890  0.61432  Biso   1.000  C
  H13      1.0000 0.31440  0.66050  0.10980  Biso   1.000  H
  H14      1.0000 0.68560  0.16050  0.39020  Biso   1.000  H
  H15      1.0000 0.68560  0.33950  0.89020  Biso   1.000  H
  H16      1.0000 0.31440  0.83950  0.60980  Biso   1.000  H
  C17      1.0000 0.32060  0.48730  0.07247  Biso   1.000  C
  C18      1.0000 0.67940  0.98730  0.42753  Biso   1.000  C
  C19      1.0000 0.67940  0.51270  0.92753  Biso   1.000  C
  C20      1.0000 0.32060  0.01270  0.57247  Biso   1.000  C
  H17      1.0000 0.23250  0.51780  0.03890  Biso   1.000  H
  H18      1.0000 0.76750  0.01780  0.46110  Biso   1.000  H
  H19      1.0000 0.76750  0.48220  0.96110  Biso   1.000  H
  H20      1.0000 0.23250  0.98220  0.53890  Biso   1.000  H
  C21      1.0000 0.35540  0.26010  0.03434  Biso   1.000  C
  C22      1.0000 0.64460  0.76010  0.46566  Biso   1.000  C
  C23      1.0000 0.64460  0.73990  0.96566  Biso   1.000  C
  C24      1.0000 0.35540  0.23990  0.53434  Biso   1.000  C
  O1       1.0000 0.49680  0.14955  0.04465  Biso   1.000  O
  O2       1.0000 0.50320  0.64955  0.45535  Biso   1.000  O
  O3       1.0000 0.50320  0.85045  0.95535  Biso   1.000  O
  O4       1.0000 0.49680  0.35045  0.54465  Biso   1.000  O
  O5       1.0000 0.18550  0.29449  0.99344  Biso   1.000  O
  O6       1.0000 0.81450  0.79449  0.50656  Biso   1.000  O
  O7       1.0000 0.81450  0.70551  0.00656  Biso   1.000  O
  O8       1.0000 0.18550  0.20551  0.49344  Biso   1.000  O
  O9       1.0000 0.89380  0.07510  0.95293  Biso   1.000  O
  O10      1.0000 0.10620  0.57510  0.54707  Biso   1.000  O
  O11      1.0000 0.10620  0.92490  0.04707  Biso   1.000  O
  O12      1.0000 0.89380  0.42490  0.45293  Biso   1.000  O
  H21      1.0000 0.90700  0.05400  0.92020  Biso   1.000  H
  H22      1.0000 0.09300  0.55400  0.57980  Biso   1.000  H
  H23      1.0000 0.09300  0.94600  0.07980  Biso   1.000  H
  H24      1.0000 0.90700  0.44600  0.42020  Biso   1.000  H
  H25      1.0000 0.96500  0.14700  0.95950  Biso   1.000  H
  H26      1.0000 0.03500  0.64700  0.54050  Biso   1.000  H
  H27      1.0000 0.03500  0.85300  0.04050  Biso   1.000  H
  H28      1.0000 0.96500  0.35300  0.45950  Biso   1.000  H
  N5       1.0000 0.05450  0.40190  0.32387  Biso   1.000  N
  N6       1.0000 0.94550  0.90190  0.17613  Biso   1.000  N
  N7       1.0000 0.94550  0.59810  0.67613  Biso   1.000  N
  N8       1.0000 0.05450  0.09810  0.82387  Biso   1.000  N
  O13      1.0000 0.16300  0.30716  0.35009  Biso   1.000  O
  O14      1.0000 0.83700  0.80716  0.14991  Biso   1.000  O
  O15      1.0000 0.83700  0.69284  0.64991  Biso   1.000  O
  O16      1.0000 0.16300  0.19284  0.85009  Biso   1.000  O
  O17      1.0000 0.91440  0.49855  0.34706  Biso   1.000  O
  O18      1.0000 0.08560  0.99855  0.15294  Biso   1.000  O
  O19      1.0000 0.08560  0.50145  0.65294  Biso   1.000  O
  O20      1.0000 0.91440  0.00145  0.84706  Biso   1.000  O
  O21      1.0000 0.08050  0.40258  0.27389  Biso   1.000  O
  O22      1.0000 0.91950  0.90258  0.22611  Biso   1.000  O
  O23      1.0000 0.91950  0.59742  0.72611  Biso   1.000  O
  O24      1.0000 0.08050  0.09742  0.77389  Biso   1.000  O
  O25      1.0000 0.61240  0.65726  0.25232  Biso   1.000  O
  O26      1.0000 0.38760  0.15726  0.24768  Biso   1.000  O
  O27      1.0000 0.38760  0.34274  0.74768  Biso   1.000  O
  O28      1.0000 0.61240  0.84274  0.75232  Biso   1.000  O
  H29      1.0000 0.74400  0.61100  0.27380  Biso   1.000  H
  H30      1.0000 0.25600  0.11100  0.22620  Biso   1.000  H
  H31      1.0000 0.25600  0.38900  0.72620  Biso   1.000  H
  H32      1.0000 0.74400  0.88900  0.77380  Biso   1.000  H
  H33      1.0000 0.72000  0.72100  0.24600  Biso   1.000  H
  H34      1.0000 0.28000  0.22100  0.25400  Biso   1.000  H
  H35      1.0000 0.28000  0.27900  0.75400  Biso   1.000  H
  H36      1.0000 0.72000  0.77900  0.74600  Biso   1.000  H
