data_image0
_cell_length_a       10.5123
_cell_length_b       22.448
_cell_length_c       10.6567
_cell_angle_alpha    90
_cell_angle_beta     118.17
_cell_angle_gamma    90

_symmetry_space_group_name_H-M    "P 1"
_symmetry_int_tables_number       1

loop_
  _symmetry_equiv_pos_as_xyz
  'x, y, z'

loop_
  _atom_site_label
  _atom_site_occupancy
  _atom_site_fract_x
  _atom_site_fract_y
  _atom_site_fract_z
  _atom_site_thermal_displace_type
  _atom_site_B_iso_or_equiv
  _atom_site_type_symbol
  Cu1      1.0000 0.67610  0.29775  0.85401  Biso   1.000  Cu
  Cu2      1.0000 0.32390  0.79775  0.64599  Biso   1.000  Cu
  Cu3      1.0000 0.32390  0.70225  0.14599  Biso   1.000  Cu
  Cu4      1.0000 0.67610  0.20225  0.35401  Biso   1.000  Cu
  O1       1.0000 0.79340  0.23795  0.81610  Biso   1.000  O
  O2       1.0000 0.20660  0.73795  0.68390  Biso   1.000  O
  O3       1.0000 0.20660  0.76205  0.18390  Biso   1.000  O
  O4       1.0000 0.79340  0.26205  0.31610  Biso   1.000  O
  O5       1.0000 0.88910  0.14748  0.86560  Biso   1.000  O
  O6       1.0000 0.11090  0.64748  0.63440  Biso   1.000  O
  O7       1.0000 0.11090  0.85252  0.13440  Biso   1.000  O
  O8       1.0000 0.88910  0.35252  0.36560  Biso   1.000  O
  O9       1.0000 0.82360  0.25506  0.07140  Biso   1.000  O
  O10      1.0000 0.17640  0.75506  0.42860  Biso   1.000  O
  O11      1.0000 0.17640  0.74494  0.92860  Biso   1.000  O
  O12      1.0000 0.82360  0.24494  0.57140  Biso   1.000  O
  C1       1.0000 0.84800  0.19326  0.89790  Biso   1.000  C
  C2       1.0000 0.15200  0.69326  0.60210  Biso   1.000  C
  C3       1.0000 0.15200  0.80674  0.10210  Biso   1.000  C
  C4       1.0000 0.84800  0.30674  0.39790  Biso   1.000  C
  C5       1.0000 0.86110  0.19667  0.04740  Biso   1.000  C
  C6       1.0000 0.13890  0.69667  0.45260  Biso   1.000  C
  C7       1.0000 0.13890  0.80333  0.95260  Biso   1.000  C
  C8       1.0000 0.86110  0.30333  0.54740  Biso   1.000  C
  H1       1.0000 0.79220  0.16850  0.05180  Biso   1.000  H
  H2       1.0000 0.20780  0.66850  0.44820  Biso   1.000  H
  H3       1.0000 0.20780  0.83150  0.94820  Biso   1.000  H
  H4       1.0000 0.79220  0.33150  0.55180  Biso   1.000  H
  C9       1.0000 0.01220  0.17910  0.16090  Biso   1.000  C
  C10      1.0000 0.98780  0.67910  0.33910  Biso   1.000  C
  C11      1.0000 0.98780  0.82090  0.83910  Biso   1.000  C
  C12      1.0000 0.01220  0.32090  0.66090  Biso   1.000  C
  H5       1.0000 0.08210  0.20470  0.15430  Biso   1.000  H
  H6       1.0000 0.91790  0.70470  0.34570  Biso   1.000  H
  H7       1.0000 0.91790  0.79530  0.84570  Biso   1.000  H
  H8       1.0000 0.08210  0.29530  0.65430  Biso   1.000  H
  H9       1.0000 0.03100  0.13850  0.14640  Biso   1.000  H
  H10      1.0000 0.96900  0.63850  0.35360  Biso   1.000  H
  H11      1.0000 0.96900  0.86150  0.85360  Biso   1.000  H
  H12      1.0000 0.03100  0.36150  0.64640  Biso   1.000  H
  H13      1.0000 0.01880  0.18310  0.25350  Biso   1.000  H
  H14      1.0000 0.98120  0.68310  0.24650  Biso   1.000  H
  H15      1.0000 0.98120  0.81690  0.74650  Biso   1.000  H
  H16      1.0000 0.01880  0.31690  0.75350  Biso   1.000  H
  O13      1.0000 0.53360  0.23661  0.83560  Biso   1.000  O
  O14      1.0000 0.46640  0.73661  0.66440  Biso   1.000  O
  O15      1.0000 0.46640  0.76339  0.16440  Biso   1.000  O
  O16      1.0000 0.53360  0.26339  0.33560  Biso   1.000  O
  O17      1.0000 0.35810  0.17377  0.70600  Biso   1.000  O
  O18      1.0000 0.64190  0.67377  0.79400  Biso   1.000  O
  O19      1.0000 0.64190  0.82623  0.29400  Biso   1.000  O
  O20      1.0000 0.35810  0.32623  0.20600  Biso   1.000  O
  O21      1.0000 0.51140  0.29620  0.61200  Biso   1.000  O
  O22      1.0000 0.48860  0.79620  0.88800  Biso   1.000  O
  O23      1.0000 0.48860  0.70380  0.38800  Biso   1.000  O
  O24      1.0000 0.51140  0.20380  0.11200  Biso   1.000  O
  C13      1.0000 0.43690  0.21679  0.71820  Biso   1.000  C
  C14      1.0000 0.56310  0.71679  0.78180  Biso   1.000  C
  C15      1.0000 0.56310  0.78321  0.28180  Biso   1.000  C
  C16      1.0000 0.43690  0.28321  0.21820  Biso   1.000  C
  C17      1.0000 0.41780  0.24590  0.58120  Biso   1.000  C
  C18      1.0000 0.58220  0.74590  0.91880  Biso   1.000  C
  C19      1.0000 0.58220  0.75410  0.41880  Biso   1.000  C
  C20      1.0000 0.41780  0.25410  0.08120  Biso   1.000  C
  H17      1.0000 0.44410  0.21670  0.52910  Biso   1.000  H
  H18      1.0000 0.55590  0.71670  0.97090  Biso   1.000  H
  H19      1.0000 0.55590  0.78330  0.47090  Biso   1.000  H
  H20      1.0000 0.44410  0.28330  0.02910  Biso   1.000  H
  C21      1.0000 0.26210  0.26540  0.48500  Biso   1.000  C
  C22      1.0000 0.73790  0.76540  0.01500  Biso   1.000  C
  C23      1.0000 0.73790  0.73460  0.51500  Biso   1.000  C
  C24      1.0000 0.26210  0.23460  0.98500  Biso   1.000  C
  H21      1.0000 0.23620  0.29610  0.53160  Biso   1.000  H
  H22      1.0000 0.76380  0.79610  0.96840  Biso   1.000  H
  H23      1.0000 0.76380  0.70390  0.46840  Biso   1.000  H
  H24      1.0000 0.23620  0.20390  0.03160  Biso   1.000  H
  H25      1.0000 0.19880  0.23190  0.46580  Biso   1.000  H
  H26      1.0000 0.80120  0.73190  0.03420  Biso   1.000  H
  H27      1.0000 0.80120  0.76810  0.53420  Biso   1.000  H
  H28      1.0000 0.19880  0.26810  0.96580  Biso   1.000  H
  H29      1.0000 0.25360  0.28060  0.39710  Biso   1.000  H
  H30      1.0000 0.74640  0.78060  0.10290  Biso   1.000  H
  H31      1.0000 0.74640  0.71940  0.60290  Biso   1.000  H
  H32      1.0000 0.25360  0.21940  0.89710  Biso   1.000  H
  N1       1.0000 0.81900  0.36123  0.86950  Biso   1.000  N
  N2       1.0000 0.18100  0.86123  0.63050  Biso   1.000  N
  N3       1.0000 0.18100  0.63877  0.13050  Biso   1.000  N
  N4       1.0000 0.81900  0.13877  0.36950  Biso   1.000  N
  N5       1.0000 0.57020  0.35819  0.91030  Biso   1.000  N
  N6       1.0000 0.42980  0.85819  0.58970  Biso   1.000  N
  N7       1.0000 0.42980  0.64181  0.08970  Biso   1.000  N
  N8       1.0000 0.57020  0.14181  0.41030  Biso   1.000  N
  S1       1.0000 0.14274  0.50243  0.89890  Biso   1.000  S
  S2       1.0000 0.85726  0.00243  0.60110  Biso   1.000  S
  S3       1.0000 0.85726  0.49757  0.10110  Biso   1.000  S
  S4       1.0000 0.14274  0.99757  0.39890  Biso   1.000  S
  S5       1.0000 0.33255  0.48051  0.06997  Biso   1.000  S
  S6       1.0000 0.66745  0.98051  0.43003  Biso   1.000  S
  S7       1.0000 0.66745  0.51949  0.93003  Biso   1.000  S
  S8       1.0000 0.33255  0.01949  0.56997  Biso   1.000  S
  C25      1.0000 0.95780  0.35754  0.97120  Biso   1.000  C
  C26      1.0000 0.04220  0.85754  0.52880  Biso   1.000  C
  C27      1.0000 0.04220  0.64246  0.02880  Biso   1.000  C
  C28      1.0000 0.95780  0.14246  0.47120  Biso   1.000  C
  H33      1.0000 0.98500  0.32580  0.03470  Biso   1.000  H
  H34      1.0000 0.01500  0.82580  0.46530  Biso   1.000  H
  H35      1.0000 0.01500  0.67420  0.96530  Biso   1.000  H
  H36      1.0000 0.98500  0.17420  0.53470  Biso   1.000  H
  C29      1.0000 0.06030  0.39802  0.98550  Biso   1.000  C
  C30      1.0000 0.93970  0.89802  0.51450  Biso   1.000  C
  C31      1.0000 0.93970  0.60198  0.01450  Biso   1.000  C
  C32      1.0000 0.06030  0.10198  0.48550  Biso   1.000  C
  H37      1.0000 0.15520  0.39340  0.05640  Biso   1.000  H
  H38      1.0000 0.84480  0.89340  0.44360  Biso   1.000  H
  H39      1.0000 0.84480  0.60660  0.94360  Biso   1.000  H
  H40      1.0000 0.15520  0.10660  0.55640  Biso   1.000  H
  C33      1.0000 0.02200  0.44634  0.89330  Biso   1.000  C
  C34      1.0000 0.97800  0.94634  0.60670  Biso   1.000  C
  C35      1.0000 0.97800  0.55366  0.10670  Biso   1.000  C
  C36      1.0000 0.02200  0.05366  0.39330  Biso   1.000  C
  C37      1.0000 0.87930  0.45062  0.78990  Biso   1.000  C
  C38      1.0000 0.12070  0.95062  0.71010  Biso   1.000  C
  C39      1.0000 0.12070  0.54938  0.21010  Biso   1.000  C
  C40      1.0000 0.87930  0.04938  0.28990  Biso   1.000  C
  H41      1.0000 0.84950  0.48230  0.72610  Biso   1.000  H
  H42      1.0000 0.15050  0.98230  0.77390  Biso   1.000  H
  H43      1.0000 0.15050  0.51770  0.27390  Biso   1.000  H
  H44      1.0000 0.84950  0.01770  0.22610  Biso   1.000  H
  C41      1.0000 0.78230  0.40829  0.78170  Biso   1.000  C
  C42      1.0000 0.21770  0.90829  0.71830  Biso   1.000  C
  C43      1.0000 0.21770  0.59171  0.21830  Biso   1.000  C
  C44      1.0000 0.78230  0.09171  0.28170  Biso   1.000  C
  H45      1.0000 0.68670  0.41230  0.71210  Biso   1.000  H
  H46      1.0000 0.31330  0.91230  0.78790  Biso   1.000  H
  H47      1.0000 0.31330  0.58770  0.28790  Biso   1.000  H
  H48      1.0000 0.68670  0.08770  0.21210  Biso   1.000  H
  C45      1.0000 0.62550  0.37516  0.04760  Biso   1.000  C
  C46      1.0000 0.37450  0.87516  0.45240  Biso   1.000  C
  C47      1.0000 0.37450  0.62484  0.95240  Biso   1.000  C
  C48      1.0000 0.62550  0.12484  0.54760  Biso   1.000  C
  H49      1.0000 0.71700  0.36170  0.11210  Biso   1.000  H
  H50      1.0000 0.28300  0.86170  0.38790  Biso   1.000  H
  H51      1.0000 0.28300  0.63830  0.88790  Biso   1.000  H
  H52      1.0000 0.71700  0.13830  0.61210  Biso   1.000  H
  C49      1.0000 0.55340  0.41129  0.09680  Biso   1.000  C
  C50      1.0000 0.44660  0.91129  0.40320  Biso   1.000  C
  C51      1.0000 0.44660  0.58871  0.90320  Biso   1.000  C
  C52      1.0000 0.55340  0.08871  0.59680  Biso   1.000  C
  H53      1.0000 0.59500  0.42170  0.19250  Biso   1.000  H
  H54      1.0000 0.40500  0.92170  0.30750  Biso   1.000  H
  H55      1.0000 0.40500  0.57830  0.80750  Biso   1.000  H
  H56      1.0000 0.59500  0.07830  0.69250  Biso   1.000  H
  C53      1.0000 0.41670  0.43222  0.00070  Biso   1.000  C
  C54      1.0000 0.58330  0.93222  0.49930  Biso   1.000  C
  C55      1.0000 0.58330  0.56778  0.99930  Biso   1.000  C
  C56      1.0000 0.41670  0.06778  0.50070  Biso   1.000  C
  C57      1.0000 0.36060  0.41638  0.85990  Biso   1.000  C
  C58      1.0000 0.63940  0.91638  0.64010  Biso   1.000  C
  C59      1.0000 0.63940  0.58362  0.14010  Biso   1.000  C
  C60      1.0000 0.36060  0.08362  0.35990  Biso   1.000  C
  H57      1.0000 0.27080  0.43040  0.79280  Biso   1.000  H
  H58      1.0000 0.72920  0.93040  0.70720  Biso   1.000  H
  H59      1.0000 0.72920  0.56960  0.20720  Biso   1.000  H
  H60      1.0000 0.27080  0.06960  0.29280  Biso   1.000  H
  C61      1.0000 0.44070  0.37899  0.81950  Biso   1.000  C
  C62      1.0000 0.55930  0.87899  0.68050  Biso   1.000  C
  C63      1.0000 0.55930  0.62101  0.18050  Biso   1.000  C
  C64      1.0000 0.44070  0.12101  0.31950  Biso   1.000  C
  H61      1.0000 0.40160  0.36810  0.72430  Biso   1.000  H
  H62      1.0000 0.59840  0.86810  0.77570  Biso   1.000  H
  H63      1.0000 0.59840  0.63190  0.27570  Biso   1.000  H
  H64      1.0000 0.40160  0.13190  0.22430  Biso   1.000  H
  H65      1.0000 0.81900  0.25700  0.15400  Biso   1.000  H
  H66      1.0000 0.18100  0.75700  0.34600  Biso   1.000  H
  H67      1.0000 0.18100  0.74300  0.84600  Biso   1.000  H
  H68      1.0000 0.81900  0.24300  0.65400  Biso   1.000  H
  H69      1.0000 0.49300  0.31600  0.53400  Biso   1.000  H
  H70      1.0000 0.50700  0.81600  0.96600  Biso   1.000  H
  H71      1.0000 0.50700  0.68400  0.46600  Biso   1.000  H
  H72      1.0000 0.49300  0.18400  0.03400  Biso   1.000  H
