data_image0
_cell_length_a       7.1154
_cell_length_b       7.424
_cell_length_c       8.8217
_cell_angle_alpha    109.36
_cell_angle_beta     95.13
_cell_angle_gamma    90.52

_symmetry_space_group_name_H-M    "P 1"
_symmetry_int_tables_number       1

loop_
  _symmetry_equiv_pos_as_xyz
  'x, y, z'

loop_
  _atom_site_label
  _atom_site_occupancy
  _atom_site_fract_x
  _atom_site_fract_y
  _atom_site_fract_z
  _atom_site_thermal_displace_type
  _atom_site_B_iso_or_equiv
  _atom_site_type_symbol
  Cu1      1.0000 0.00000  0.00000  0.00000  Biso   1.000  Cu
  Cu2      1.0000 0.74125  0.29824  0.90495  Biso   1.000  Cu
  Cu3      1.0000 0.25875  0.70176  0.09505  Biso   1.000  Cu
  Cu4      1.0000 0.50000  0.00000  0.00000  Biso   1.000  Cu
  P1       1.0000 0.23609  0.27571  0.86360  Biso   1.000  P
  P2       1.0000 0.76391  0.72429  0.13640  Biso   1.000  P
  S1       1.0000 0.27971  0.12811  0.34278  Biso   1.000  S
  S2       1.0000 0.72029  0.87189  0.65722  Biso   1.000  S
  O1       1.0000 0.42290  0.20290  0.91410  Biso   1.000  O
  O2       1.0000 0.57710  0.79710  0.08590  Biso   1.000  O
  O3       1.0000 0.07250  0.21980  0.94350  Biso   1.000  O
  O4       1.0000 0.92750  0.78020  0.05650  Biso   1.000  O
  O5       1.0000 0.24710  0.49030  0.89690  Biso   1.000  O
  O6       1.0000 0.75290  0.50970  0.10310  Biso   1.000  O
  O7       1.0000 0.27410  0.92050  0.30830  Biso   1.000  O
  O8       1.0000 0.72590  0.07950  0.69170  Biso   1.000  O
  O9       1.0000 0.09860  0.19220  0.29260  Biso   1.000  O
  O10      1.0000 0.90140  0.80780  0.70740  Biso   1.000  O
  O11      1.0000 0.43670  0.19230  0.27290  Biso   1.000  O
  O12      1.0000 0.56330  0.80770  0.72710  Biso   1.000  O
  O13      1.0000 0.75480  0.12530  0.03730  Biso   1.000  O
  O14      1.0000 0.24520  0.87470  0.96270  Biso   1.000  O
  O15      1.0000 0.21930  0.65240  0.54760  Biso   1.000  O
  O16      1.0000 0.78070  0.34760  0.45240  Biso   1.000  O
  O17      1.0000 0.75480  0.45900  0.77040  Biso   1.000  O
  O18      1.0000 0.24520  0.54100  0.22960  Biso   1.000  O
  C1       1.0000 0.18430  0.16920  0.64950  Biso   1.000  C
  C2       1.0000 0.81570  0.83080  0.35050  Biso   1.000  C
  H1       1.0000 0.18250  0.03120  0.62120  Biso   1.000  H
  H2       1.0000 0.81750  0.96880  0.37880  Biso   1.000  H
  H3       1.0000 0.05940  0.20440  0.61840  Biso   1.000  H
  H4       1.0000 0.94060  0.79560  0.38160  Biso   1.000  H
  C3       1.0000 0.32760  0.23040  0.55500  Biso   1.000  C
  C4       1.0000 0.67240  0.76960  0.44500  Biso   1.000  C
  H5       1.0000 0.45220  0.19490  0.58650  Biso   1.000  H
  H6       1.0000 0.54780  0.80510  0.41350  Biso   1.000  H
  H7       1.0000 0.32970  0.36850  0.58430  Biso   1.000  H
  H8       1.0000 0.67030  0.63150  0.41570  Biso   1.000  H
