data_image0
_cell_length_a       5.1072
_cell_length_b       7.8485
_cell_length_c       10.285
_cell_angle_alpha    71.4
_cell_angle_beta     87.38
_cell_angle_gamma    80.58

_symmetry_space_group_name_H-M    "P 1"
_symmetry_int_tables_number       1

loop_
  _symmetry_equiv_pos_as_xyz
  'x, y, z'

loop_
  _atom_site_label
  _atom_site_occupancy
  _atom_site_fract_x
  _atom_site_fract_y
  _atom_site_fract_z
  _atom_site_thermal_displace_type
  _atom_site_B_iso_or_equiv
  _atom_site_type_symbol
  Cu1      1.0000 0.00000  0.50000  0.00000  Biso   1.000  Cu
  Cu2      1.0000 0.49614  0.45419  0.77522  Biso   1.000  Cu
  Cu3      1.0000 0.50386  0.54581  0.22478  Biso   1.000  Cu
  P1       1.0000 0.45366  0.73891  0.91470  Biso   1.000  P
  P2       1.0000 0.54634  0.26109  0.08530  Biso   1.000  P
  S1       1.0000 0.99871  0.26279  0.67698  Biso   1.000  S
  S2       1.0000 0.00129  0.73721  0.32302  Biso   1.000  S
  O1       1.0000 0.29130  0.60550  0.88015  Biso   1.000  O
  O2       1.0000 0.70870  0.39450  0.11985  Biso   1.000  O
  O3       1.0000 0.70490  0.31300  0.66622  Biso   1.000  O
  O4       1.0000 0.29510  0.68700  0.33378  Biso   1.000  O
  O5       1.0000 0.38750  0.74220  0.05970  Biso   1.000  O
  O6       1.0000 0.61250  0.25780  0.94030  Biso   1.000  O
  O7       1.0000 0.74700  0.68670  0.88632  Biso   1.000  O
  O8       1.0000 0.25300  0.31330  0.11368  Biso   1.000  O
  O9       1.0000 0.44020  0.67070  0.60950  Biso   1.000  O
  O10      1.0000 0.55980  0.32930  0.39050  Biso   1.000  O
  H1       1.0000 0.54400  0.70100  0.54500  Biso   1.000  H
  H2       1.0000 0.45600  0.29900  0.45500  Biso   1.000  H
  H3       1.0000 0.32800  0.67500  0.57500  Biso   1.000  H
  H4       1.0000 0.67200  0.32500  0.42500  Biso   1.000  H
  O11      1.0000 0.10950  0.37300  0.74440  Biso   1.000  O
  O12      1.0000 0.89050  0.62700  0.25560  Biso   1.000  O
  O13      1.0000 0.10700  0.26900  0.54340  Biso   1.000  O
  O14      1.0000 0.89300  0.73100  0.45660  Biso   1.000  O
  C1       1.0000 0.36030  0.96440  0.79740  Biso   1.000  C
  C2       1.0000 0.63970  0.03560  0.20260  Biso   1.000  C
  H5       1.0000 0.44570  0.04810  0.82630  Biso   1.000  H
  H6       1.0000 0.55430  0.95190  0.17370  Biso   1.000  H
  H7       1.0000 0.42750  0.96650  0.70720  Biso   1.000  H
  H8       1.0000 0.57250  0.03350  0.29280  Biso   1.000  H
  C3       1.0000 0.06220  0.03270  0.78550  Biso   1.000  C
  C4       1.0000 0.93780  0.96730  0.21450  Biso   1.000  C
  H9       1.0000 0.98980  0.02420  0.87580  Biso   1.000  H
  H10      1.0000 0.01020  0.97580  0.12420  Biso   1.000  H
  H11      1.0000 0.97570  0.95720  0.74810  Biso   1.000  H
  H12      1.0000 0.02430  0.04280  0.25190  Biso   1.000  H
