data_image0
_cell_length_a       5.5089
_cell_length_b       8.3129
_cell_length_c       9.5576
_cell_angle_alpha    75.62
_cell_angle_beta     78.01
_cell_angle_gamma    83.88

_symmetry_space_group_name_H-M    "P 1"
_symmetry_int_tables_number       1

loop_
  _symmetry_equiv_pos_as_xyz
  'x, y, z'

loop_
  _atom_site_label
  _atom_site_occupancy
  _atom_site_fract_x
  _atom_site_fract_y
  _atom_site_fract_z
  _atom_site_thermal_displace_type
  _atom_site_B_iso_or_equiv
  _atom_site_type_symbol
  Cu1      1.0000 0.07249  0.41656  0.36959  Biso   1.000  Cu
  Cu2      1.0000 0.92751  0.58344  0.63041  Biso   1.000  Cu
  Cu3      1.0000 0.50000  0.50000  0.50000  Biso   1.000  Cu
  Cu4      1.0000 0.00000  0.50000  0.00000  Biso   1.000  Cu
  Cu5      1.0000 0.50000  0.50000  0.00000  Biso   1.000  Cu
  P1       1.0000 0.68691  0.25805  0.28694  Biso   1.000  P
  P2       1.0000 0.31309  0.74195  0.71306  Biso   1.000  P
  S1       1.0000 0.63684  0.79073  0.16520  Biso   1.000  S
  S2       1.0000 0.36316  0.20927  0.83480  Biso   1.000  S
  O1       1.0000 0.47870  0.32700  0.39360  Biso   1.000  O
  O2       1.0000 0.52130  0.67300  0.60640  Biso   1.000  O
  O3       1.0000 0.71420  0.37440  0.12980  Biso   1.000  O
  O4       1.0000 0.28580  0.62560  0.87020  Biso   1.000  O
  O5       1.0000 0.93920  0.23200  0.33250  Biso   1.000  O
  O6       1.0000 0.06080  0.76800  0.66750  Biso   1.000  O
  O7       1.0000 0.36440  0.80850  0.18700  Biso   1.000  O
  O8       1.0000 0.63560  0.19150  0.81300  Biso   1.000  O
  O9       1.0000 0.74400  0.74530  0.02480  Biso   1.000  O
  O10      1.0000 0.25600  0.25470  0.97520  Biso   1.000  O
  O11      1.0000 0.72630  0.67660  0.29000  Biso   1.000  O
  O12      1.0000 0.27370  0.32340  0.71000  Biso   1.000  O
  O13      1.0000 0.19540  0.51330  0.14920  Biso   1.000  O
  O14      1.0000 0.80460  0.48670  0.85080  Biso   1.000  O
  O15      1.0000 0.17980  0.59090  0.44480  Biso   1.000  O
  O16      1.0000 0.82020  0.40910  0.55520  Biso   1.000  O
  H1       1.0000 0.21500  0.68400  0.36100  Biso   1.000  H
  H2       1.0000 0.78500  0.31600  0.63900  Biso   1.000  H
  C1       1.0000 0.58700  0.06210  0.27970  Biso   1.000  C
  C2       1.0000 0.41300  0.93790  0.72030  Biso   1.000  C
  H3       1.0000 0.59600  0.98320  0.37240  Biso   1.000  H
  H4       1.0000 0.40400  0.01680  0.62760  Biso   1.000  H
  H5       1.0000 0.41440  0.07650  0.26860  Biso   1.000  H
  H6       1.0000 0.58560  0.92350  0.73140  Biso   1.000  H
  C3       1.0000 0.74030  0.98900  0.15440  Biso   1.000  C
  C4       1.0000 0.25970  0.01100  0.84560  Biso   1.000  C
  H7       1.0000 0.91470  0.97870  0.16150  Biso   1.000  H
  H8       1.0000 0.08530  0.02130  0.83850  Biso   1.000  H
  H9       1.0000 0.72270  0.06270  0.06050  Biso   1.000  H
  H10      1.0000 0.27730  0.93730  0.93950  Biso   1.000  H
