data_image0
_cell_length_a       16.651
_cell_length_b       11.089
_cell_length_c       14.36
_cell_angle_alpha    90
_cell_angle_beta     116.45
_cell_angle_gamma    90

_symmetry_space_group_name_H-M    "P 1"
_symmetry_int_tables_number       1

loop_
  _symmetry_equiv_pos_as_xyz
  'x, y, z'

loop_
  _atom_site_label
  _atom_site_occupancy
  _atom_site_fract_x
  _atom_site_fract_y
  _atom_site_fract_z
  _atom_site_thermal_displace_type
  _atom_site_B_iso_or_equiv
  _atom_site_type_symbol
  Cu1      1.0000 0.00000  0.10056  0.25000  Biso   1.000  Cu
  Cu2      1.0000 0.50000  0.60056  0.25000  Biso   1.000  Cu
  Cu3      1.0000 0.00000  0.89944  0.75000  Biso   1.000  Cu
  Cu4      1.0000 0.50000  0.39944  0.75000  Biso   1.000  Cu
  Cl1      1.0000 0.14927  0.08511  0.11541  Biso   1.000  Cl
  Cl2      1.0000 0.85073  0.08511  0.38459  Biso   1.000  Cl
  Cl3      1.0000 0.64927  0.58511  0.11541  Biso   1.000  Cl
  Cl4      1.0000 0.35073  0.58511  0.38459  Biso   1.000  Cl
  Cl5      1.0000 0.85073  0.91489  0.88459  Biso   1.000  Cl
  Cl6      1.0000 0.14927  0.91489  0.61541  Biso   1.000  Cl
  Cl7      1.0000 0.35073  0.41489  0.88459  Biso   1.000  Cl
  Cl8      1.0000 0.64927  0.41489  0.61541  Biso   1.000  Cl
  O1       1.0000 0.09960  0.10850  0.16900  Biso   1.000  O
  O2       1.0000 0.90040  0.10850  0.33100  Biso   1.000  O
  O3       1.0000 0.59960  0.60850  0.16900  Biso   1.000  O
  O4       1.0000 0.40040  0.60850  0.33100  Biso   1.000  O
  O5       1.0000 0.90040  0.89150  0.83100  Biso   1.000  O
  O6       1.0000 0.09960  0.89150  0.66900  Biso   1.000  O
  O7       1.0000 0.40040  0.39150  0.83100  Biso   1.000  O
  O8       1.0000 0.59960  0.39150  0.66900  Biso   1.000  O
  O9       1.0000 0.18140  0.96610  0.13060  Biso   1.000  O
  O10      1.0000 0.81860  0.96610  0.36940  Biso   1.000  O
  O11      1.0000 0.68140  0.46610  0.13060  Biso   1.000  O
  O12      1.0000 0.31860  0.46610  0.36940  Biso   1.000  O
  O13      1.0000 0.81860  0.03390  0.86940  Biso   1.000  O
  O14      1.0000 0.18140  0.03390  0.63060  Biso   1.000  O
  O15      1.0000 0.31860  0.53390  0.86940  Biso   1.000  O
  O16      1.0000 0.68140  0.53390  0.63060  Biso   1.000  O
  O17      1.0000 0.09870  0.10920  0.01010  Biso   1.000  O
  O18      1.0000 0.90130  0.10920  0.48990  Biso   1.000  O
  O19      1.0000 0.59870  0.60920  0.01010  Biso   1.000  O
  O20      1.0000 0.40130  0.60920  0.48990  Biso   1.000  O
  O21      1.0000 0.90130  0.89080  0.98990  Biso   1.000  O
  O22      1.0000 0.09870  0.89080  0.51010  Biso   1.000  O
  O23      1.0000 0.40130  0.39080  0.98990  Biso   1.000  O
  O24      1.0000 0.59870  0.39080  0.51010  Biso   1.000  O
  O25      1.0000 0.21890  0.16750  0.14750  Biso   1.000  O
  O26      1.0000 0.78110  0.16750  0.35250  Biso   1.000  O
  O27      1.0000 0.71890  0.66750  0.14750  Biso   1.000  O
  O28      1.0000 0.28110  0.66750  0.35250  Biso   1.000  O
  O29      1.0000 0.78110  0.83250  0.85250  Biso   1.000  O
  O30      1.0000 0.21890  0.83250  0.64750  Biso   1.000  O
  O31      1.0000 0.28110  0.33250  0.85250  Biso   1.000  O
  O32      1.0000 0.71890  0.33250  0.64750  Biso   1.000  O
  O33      1.0000 0.89800  0.10440  0.11040  Biso   1.000  O
  O34      1.0000 0.10200  0.10440  0.38960  Biso   1.000  O
  O35      1.0000 0.39800  0.60440  0.11040  Biso   1.000  O
  O36      1.0000 0.60200  0.60440  0.38960  Biso   1.000  O
  O37      1.0000 0.10200  0.89560  0.88960  Biso   1.000  O
  O38      1.0000 0.89800  0.89560  0.61040  Biso   1.000  O
  O39      1.0000 0.60200  0.39560  0.88960  Biso   1.000  O
  O40      1.0000 0.39800  0.39560  0.61040  Biso   1.000  O
  N1       1.0000 0.00000  0.28080  0.25000  Biso   1.000  N
  N2       1.0000 0.50000  0.78080  0.25000  Biso   1.000  N
  N3       1.0000 0.00000  0.71920  0.75000  Biso   1.000  N
  N4       1.0000 0.50000  0.21920  0.75000  Biso   1.000  N
  C1       1.0000 0.92490  0.34400  0.22770  Biso   1.000  C
  C2       1.0000 0.07510  0.34400  0.27230  Biso   1.000  C
  C3       1.0000 0.42490  0.84400  0.22770  Biso   1.000  C
  C4       1.0000 0.57510  0.84400  0.27230  Biso   1.000  C
  C5       1.0000 0.07510  0.65600  0.77230  Biso   1.000  C
  C6       1.0000 0.92490  0.65600  0.72770  Biso   1.000  C
  C7       1.0000 0.57510  0.15600  0.77230  Biso   1.000  C
  C8       1.0000 0.42490  0.15600  0.72770  Biso   1.000  C
  C9       1.0000 0.92190  0.46800  0.22690  Biso   1.000  C
  C10      1.0000 0.07810  0.46800  0.27310  Biso   1.000  C
  C11      1.0000 0.42190  0.96800  0.22690  Biso   1.000  C
  C12      1.0000 0.57810  0.96800  0.27310  Biso   1.000  C
  C13      1.0000 0.07810  0.53200  0.77310  Biso   1.000  C
  C14      1.0000 0.92190  0.53200  0.72690  Biso   1.000  C
  C15      1.0000 0.57810  0.03200  0.77310  Biso   1.000  C
  C16      1.0000 0.42190  0.03200  0.72690  Biso   1.000  C
  C17      1.0000 0.00000  0.53350  0.25000  Biso   1.000  C
  C18      1.0000 0.50000  0.03350  0.25000  Biso   1.000  C
  C19      1.0000 0.00000  0.46650  0.75000  Biso   1.000  C
  C20      1.0000 0.50000  0.96650  0.75000  Biso   1.000  C
  C21      1.0000 0.00000  0.66810  0.25000  Biso   1.000  C
  C22      1.0000 0.50000  0.16810  0.25000  Biso   1.000  C
  C23      1.0000 0.00000  0.33190  0.75000  Biso   1.000  C
  C24      1.0000 0.50000  0.83190  0.75000  Biso   1.000  C
  C25      1.0000 0.92550  0.73340  0.23930  Biso   1.000  C
  C26      1.0000 0.07450  0.73340  0.26070  Biso   1.000  C
  C27      1.0000 0.42550  0.23340  0.23930  Biso   1.000  C
  C28      1.0000 0.57450  0.23340  0.26070  Biso   1.000  C
  C29      1.0000 0.07450  0.26660  0.76070  Biso   1.000  C
  C30      1.0000 0.92550  0.26660  0.73930  Biso   1.000  C
  C31      1.0000 0.57450  0.76660  0.76070  Biso   1.000  C
  C32      1.0000 0.42550  0.76660  0.73930  Biso   1.000  C
  C33      1.0000 0.92780  0.85770  0.23980  Biso   1.000  C
  C34      1.0000 0.07220  0.85770  0.26020  Biso   1.000  C
  C35      1.0000 0.42780  0.35770  0.23980  Biso   1.000  C
  C36      1.0000 0.57220  0.35770  0.26020  Biso   1.000  C
  C37      1.0000 0.07220  0.14230  0.76020  Biso   1.000  C
  C38      1.0000 0.92780  0.14230  0.73980  Biso   1.000  C
  C39      1.0000 0.57220  0.64230  0.76020  Biso   1.000  C
  C40      1.0000 0.42780  0.64230  0.73980  Biso   1.000  C
  N5       1.0000 0.00000  0.92050  0.25000  Biso   1.000  N
  N6       1.0000 0.50000  0.42050  0.25000  Biso   1.000  N
  N7       1.0000 0.00000  0.07950  0.75000  Biso   1.000  N
  N8       1.0000 0.50000  0.57950  0.75000  Biso   1.000  N
  H1       1.0000 0.87050  0.30010  0.21050  Biso   1.000  H
  H2       1.0000 0.12950  0.30010  0.28950  Biso   1.000  H
  H3       1.0000 0.37050  0.80010  0.21050  Biso   1.000  H
  H4       1.0000 0.62950  0.80010  0.28950  Biso   1.000  H
  H5       1.0000 0.12950  0.69990  0.78950  Biso   1.000  H
  H6       1.0000 0.87050  0.69990  0.71050  Biso   1.000  H
  H7       1.0000 0.62950  0.19990  0.78950  Biso   1.000  H
  H8       1.0000 0.37050  0.19990  0.71050  Biso   1.000  H
  H9       1.0000 0.86660  0.50910  0.21100  Biso   1.000  H
  H10      1.0000 0.13340  0.50910  0.28900  Biso   1.000  H
  H11      1.0000 0.36660  0.00910  0.21100  Biso   1.000  H
  H12      1.0000 0.63340  0.00910  0.28900  Biso   1.000  H
  H13      1.0000 0.13340  0.49090  0.78900  Biso   1.000  H
  H14      1.0000 0.86660  0.49090  0.71100  Biso   1.000  H
  H15      1.0000 0.63340  0.99090  0.78900  Biso   1.000  H
  H16      1.0000 0.36660  0.99090  0.71100  Biso   1.000  H
  H17      1.0000 0.87220  0.69190  0.23150  Biso   1.000  H
  H18      1.0000 0.12780  0.69190  0.26850  Biso   1.000  H
  H19      1.0000 0.37220  0.19190  0.23150  Biso   1.000  H
  H20      1.0000 0.62780  0.19190  0.26850  Biso   1.000  H
  H21      1.0000 0.12780  0.30810  0.76850  Biso   1.000  H
  H22      1.0000 0.87220  0.30810  0.73150  Biso   1.000  H
  H23      1.0000 0.62780  0.80810  0.76850  Biso   1.000  H
  H24      1.0000 0.37220  0.80810  0.73150  Biso   1.000  H
  H25      1.0000 0.87550  0.90110  0.23260  Biso   1.000  H
  H26      1.0000 0.12450  0.90110  0.26740  Biso   1.000  H
  H27      1.0000 0.37550  0.40110  0.23260  Biso   1.000  H
  H28      1.0000 0.62450  0.40110  0.26740  Biso   1.000  H
  H29      1.0000 0.12450  0.09890  0.76740  Biso   1.000  H
  H30      1.0000 0.87550  0.09890  0.73260  Biso   1.000  H
  H31      1.0000 0.62450  0.59890  0.76740  Biso   1.000  H
  H32      1.0000 0.37550  0.59890  0.73260  Biso   1.000  H
  H33      1.0000 0.90050  0.05690  0.06480  Biso   1.000  H
  H34      1.0000 0.09950  0.05690  0.43520  Biso   1.000  H
  H35      1.0000 0.40050  0.55690  0.06480  Biso   1.000  H
  H36      1.0000 0.59950  0.55690  0.43520  Biso   1.000  H
  H37      1.0000 0.09950  0.94310  0.93520  Biso   1.000  H
  H38      1.0000 0.90050  0.94310  0.56480  Biso   1.000  H
  H39      1.0000 0.59950  0.44310  0.93520  Biso   1.000  H
  H40      1.0000 0.40050  0.44310  0.56480  Biso   1.000  H
  H41      1.0000 0.83970  0.09690  0.08520  Biso   1.000  H
  H42      1.0000 0.16030  0.09690  0.41480  Biso   1.000  H
  H43      1.0000 0.33970  0.59690  0.08520  Biso   1.000  H
  H44      1.0000 0.66030  0.59690  0.41480  Biso   1.000  H
  H45      1.0000 0.16030  0.90310  0.91480  Biso   1.000  H
  H46      1.0000 0.83970  0.90310  0.58520  Biso   1.000  H
  H47      1.0000 0.66030  0.40310  0.91480  Biso   1.000  H
  H48      1.0000 0.33970  0.40310  0.58520  Biso   1.000  H
  N9       1.0000 0.72780  0.06260  0.06590  Biso   1.000  N
  N10      1.0000 0.27220  0.06260  0.43410  Biso   1.000  N
  N11      1.0000 0.22780  0.56260  0.06590  Biso   1.000  N
  N12      1.0000 0.77220  0.56260  0.43410  Biso   1.000  N
  N13      1.0000 0.27220  0.93740  0.93410  Biso   1.000  N
  N14      1.0000 0.72780  0.93740  0.56590  Biso   1.000  N
  N15      1.0000 0.77220  0.43740  0.93410  Biso   1.000  N
  N16      1.0000 0.22780  0.43740  0.56590  Biso   1.000  N
  C41      1.0000 0.67040  0.15010  0.05550  Biso   1.000  C
  C42      1.0000 0.32960  0.15010  0.44450  Biso   1.000  C
  C43      1.0000 0.17040  0.65010  0.05550  Biso   1.000  C
  C44      1.0000 0.82960  0.65010  0.44450  Biso   1.000  C
  C45      1.0000 0.32960  0.84990  0.94450  Biso   1.000  C
  C46      1.0000 0.67040  0.84990  0.55550  Biso   1.000  C
  C47      1.0000 0.82960  0.34990  0.94450  Biso   1.000  C
  C48      1.0000 0.17040  0.34990  0.55550  Biso   1.000  C
  C49      1.0000 0.58080  0.13130  0.02870  Biso   1.000  C
  C50      1.0000 0.41920  0.13130  0.47130  Biso   1.000  C
  C51      1.0000 0.08080  0.63130  0.02870  Biso   1.000  C
  C52      1.0000 0.91920  0.63130  0.47130  Biso   1.000  C
  C53      1.0000 0.41920  0.86870  0.97130  Biso   1.000  C
  C54      1.0000 0.58080  0.86870  0.52870  Biso   1.000  C
  C55      1.0000 0.91920  0.36870  0.97130  Biso   1.000  C
  C56      1.0000 0.08080  0.36870  0.52870  Biso   1.000  C
  C57      1.0000 0.54810  0.01340  0.01390  Biso   1.000  C
  C58      1.0000 0.45190  0.01340  0.48610  Biso   1.000  C
  C59      1.0000 0.04810  0.51340  0.01390  Biso   1.000  C
  C60      1.0000 0.95190  0.51340  0.48610  Biso   1.000  C
  C61      1.0000 0.45190  0.98660  0.98610  Biso   1.000  C
  C62      1.0000 0.54810  0.98660  0.51390  Biso   1.000  C
  C63      1.0000 0.95190  0.48660  0.98610  Biso   1.000  C
  C64      1.0000 0.04810  0.48660  0.51390  Biso   1.000  C
  C65      1.0000 0.60780  0.92230  0.02310  Biso   1.000  C
  C66      1.0000 0.39220  0.92230  0.47690  Biso   1.000  C
  C67      1.0000 0.10780  0.42230  0.02310  Biso   1.000  C
  C68      1.0000 0.89220  0.42230  0.47690  Biso   1.000  C
  C69      1.0000 0.39220  0.07770  0.97690  Biso   1.000  C
  C70      1.0000 0.60780  0.07770  0.52310  Biso   1.000  C
  C71      1.0000 0.89220  0.57770  0.97690  Biso   1.000  C
  C72      1.0000 0.10780  0.57770  0.52310  Biso   1.000  C
  C73      1.0000 0.69590  0.95210  0.04910  Biso   1.000  C
  C74      1.0000 0.30410  0.95210  0.45090  Biso   1.000  C
  C75      1.0000 0.19590  0.45210  0.04910  Biso   1.000  C
  C76      1.0000 0.80410  0.45210  0.45090  Biso   1.000  C
  C77      1.0000 0.30410  0.04790  0.95090  Biso   1.000  C
  C78      1.0000 0.69590  0.04790  0.54910  Biso   1.000  C
  C79      1.0000 0.80410  0.54790  0.95090  Biso   1.000  C
  C80      1.0000 0.19590  0.54790  0.54910  Biso   1.000  C
  H49      1.0000 0.69220  0.23150  0.06770  Biso   1.000  H
  H50      1.0000 0.30780  0.23150  0.43230  Biso   1.000  H
  H51      1.0000 0.19220  0.73150  0.06770  Biso   1.000  H
  H52      1.0000 0.80780  0.73150  0.43230  Biso   1.000  H
  H53      1.0000 0.30780  0.76850  0.93230  Biso   1.000  H
  H54      1.0000 0.69220  0.76850  0.56770  Biso   1.000  H
  H55      1.0000 0.80780  0.26850  0.93230  Biso   1.000  H
  H56      1.0000 0.19220  0.26850  0.56770  Biso   1.000  H
  H57      1.0000 0.54110  0.19750  0.02080  Biso   1.000  H
  H58      1.0000 0.45890  0.19750  0.47920  Biso   1.000  H
  H59      1.0000 0.04110  0.69750  0.02080  Biso   1.000  H
  H60      1.0000 0.95890  0.69750  0.47920  Biso   1.000  H
  H61      1.0000 0.45890  0.80250  0.97920  Biso   1.000  H
  H62      1.0000 0.54110  0.80250  0.52080  Biso   1.000  H
  H63      1.0000 0.95890  0.30250  0.97920  Biso   1.000  H
  H64      1.0000 0.04110  0.30250  0.52080  Biso   1.000  H
  H65      1.0000 0.58760  0.84020  0.01120  Biso   1.000  H
  H66      1.0000 0.41240  0.84020  0.48880  Biso   1.000  H
  H67      1.0000 0.08760  0.34020  0.01120  Biso   1.000  H
  H68      1.0000 0.91240  0.34020  0.48880  Biso   1.000  H
  H69      1.0000 0.41240  0.15980  0.98880  Biso   1.000  H
  H70      1.0000 0.58760  0.15980  0.51120  Biso   1.000  H
  H71      1.0000 0.91240  0.65980  0.98880  Biso   1.000  H
  H72      1.0000 0.08760  0.65980  0.51120  Biso   1.000  H
  H73      1.0000 0.73710  0.88810  0.05610  Biso   1.000  H
  H74      1.0000 0.26290  0.88810  0.44390  Biso   1.000  H
  H75      1.0000 0.23710  0.38810  0.05610  Biso   1.000  H
  H76      1.0000 0.76290  0.38810  0.44390  Biso   1.000  H
  H77      1.0000 0.26290  0.11190  0.94390  Biso   1.000  H
  H78      1.0000 0.73710  0.11190  0.55610  Biso   1.000  H
  H79      1.0000 0.76290  0.61190  0.94390  Biso   1.000  H
  H80      1.0000 0.23710  0.61190  0.55610  Biso   1.000  H
