data_image0
_cell_length_a       16.65
_cell_length_b       11.066
_cell_length_c       14.34
_cell_angle_alpha    90
_cell_angle_beta     116.42
_cell_angle_gamma    90

_symmetry_space_group_name_H-M    "P 1"
_symmetry_int_tables_number       1

loop_
  _symmetry_equiv_pos_as_xyz
  'x, y, z'

loop_
  _atom_site_label
  _atom_site_occupancy
  _atom_site_fract_x
  _atom_site_fract_y
  _atom_site_fract_z
  _atom_site_thermal_displace_type
  _atom_site_B_iso_or_equiv
  _atom_site_type_symbol
  Cu1      1.0000 0.00000  0.10051  0.25000  Biso   1.000  Cu
  Cu2      1.0000 0.50000  0.60051  0.25000  Biso   1.000  Cu
  Cu3      1.0000 0.00000  0.89949  0.75000  Biso   1.000  Cu
  Cu4      1.0000 0.50000  0.39949  0.75000  Biso   1.000  Cu
  O1       1.0000 0.89795  0.10440  0.11067  Biso   1.000  O
  O2       1.0000 0.10205  0.10440  0.38933  Biso   1.000  O
  O3       1.0000 0.39795  0.60440  0.11067  Biso   1.000  O
  O4       1.0000 0.60205  0.60440  0.38933  Biso   1.000  O
  O5       1.0000 0.10205  0.89560  0.88933  Biso   1.000  O
  O6       1.0000 0.89795  0.89560  0.61067  Biso   1.000  O
  O7       1.0000 0.60205  0.39560  0.88933  Biso   1.000  O
  O8       1.0000 0.39795  0.39560  0.61067  Biso   1.000  O
  N1       1.0000 0.00000  0.28100  0.25000  Biso   1.000  N
  N2       1.0000 0.50000  0.78100  0.25000  Biso   1.000  N
  N3       1.0000 0.00000  0.71900  0.75000  Biso   1.000  N
  N4       1.0000 0.50000  0.21900  0.75000  Biso   1.000  N
  N5       1.0000 0.00000  0.91940  0.25000  Biso   1.000  N
  N6       1.0000 0.50000  0.41940  0.25000  Biso   1.000  N
  N7       1.0000 0.00000  0.08060  0.75000  Biso   1.000  N
  N8       1.0000 0.50000  0.58060  0.75000  Biso   1.000  N
  N9       1.0000 0.72830  0.06340  0.06630  Biso   1.000  N
  N10      1.0000 0.27170  0.06340  0.43370  Biso   1.000  N
  N11      1.0000 0.22830  0.56340  0.06630  Biso   1.000  N
  N12      1.0000 0.77170  0.56340  0.43370  Biso   1.000  N
  N13      1.0000 0.27170  0.93660  0.93370  Biso   1.000  N
  N14      1.0000 0.72830  0.93660  0.56630  Biso   1.000  N
  N15      1.0000 0.77170  0.43660  0.93370  Biso   1.000  N
  N16      1.0000 0.22830  0.43660  0.56630  Biso   1.000  N
  C1       1.0000 0.07500  0.34350  0.27220  Biso   1.000  C
  C2       1.0000 0.92500  0.34350  0.22780  Biso   1.000  C
  C3       1.0000 0.57500  0.84350  0.27220  Biso   1.000  C
  C4       1.0000 0.42500  0.84350  0.22780  Biso   1.000  C
  C5       1.0000 0.92500  0.65650  0.72780  Biso   1.000  C
  C6       1.0000 0.07500  0.65650  0.77220  Biso   1.000  C
  C7       1.0000 0.42500  0.15650  0.72780  Biso   1.000  C
  C8       1.0000 0.57500  0.15650  0.77220  Biso   1.000  C
  C9       1.0000 0.07740  0.46730  0.27230  Biso   1.000  C
  C10      1.0000 0.92260  0.46730  0.22770  Biso   1.000  C
  C11      1.0000 0.57740  0.96730  0.27230  Biso   1.000  C
  C12      1.0000 0.42260  0.96730  0.22770  Biso   1.000  C
  C13      1.0000 0.92260  0.53270  0.72770  Biso   1.000  C
  C14      1.0000 0.07740  0.53270  0.77230  Biso   1.000  C
  C15      1.0000 0.42260  0.03270  0.72770  Biso   1.000  C
  C16      1.0000 0.57740  0.03270  0.77230  Biso   1.000  C
  C17      1.0000 0.00000  0.53330  0.25000  Biso   1.000  C
  C18      1.0000 0.50000  0.03330  0.25000  Biso   1.000  C
  C19      1.0000 0.00000  0.46670  0.75000  Biso   1.000  C
  C20      1.0000 0.50000  0.96670  0.75000  Biso   1.000  C
  C21      1.0000 0.00000  0.66890  0.25000  Biso   1.000  C
  C22      1.0000 0.50000  0.16890  0.25000  Biso   1.000  C
  C23      1.0000 0.00000  0.33110  0.75000  Biso   1.000  C
  C24      1.0000 0.50000  0.83110  0.75000  Biso   1.000  C
  C25      1.0000 0.92550  0.73300  0.23970  Biso   1.000  C
  C26      1.0000 0.07450  0.73300  0.26030  Biso   1.000  C
  C27      1.0000 0.42550  0.23300  0.23970  Biso   1.000  C
  C28      1.0000 0.57450  0.23300  0.26030  Biso   1.000  C
  C29      1.0000 0.07450  0.26700  0.76030  Biso   1.000  C
  C30      1.0000 0.92550  0.26700  0.73970  Biso   1.000  C
  C31      1.0000 0.57450  0.76700  0.76030  Biso   1.000  C
  C32      1.0000 0.42550  0.76700  0.73970  Biso   1.000  C
  C33      1.0000 0.92800  0.85710  0.23990  Biso   1.000  C
  C34      1.0000 0.07200  0.85710  0.26010  Biso   1.000  C
  C35      1.0000 0.42800  0.35710  0.23990  Biso   1.000  C
  C36      1.0000 0.57200  0.35710  0.26010  Biso   1.000  C
  C37      1.0000 0.07200  0.14290  0.76010  Biso   1.000  C
  C38      1.0000 0.92800  0.14290  0.73990  Biso   1.000  C
  C39      1.0000 0.57200  0.64290  0.76010  Biso   1.000  C
  C40      1.0000 0.42800  0.64290  0.73990  Biso   1.000  C
  C41      1.0000 0.66960  0.15110  0.05520  Biso   1.000  C
  C42      1.0000 0.33040  0.15110  0.44480  Biso   1.000  C
  C43      1.0000 0.16960  0.65110  0.05520  Biso   1.000  C
  C44      1.0000 0.83040  0.65110  0.44480  Biso   1.000  C
  C45      1.0000 0.33040  0.84890  0.94480  Biso   1.000  C
  C46      1.0000 0.66960  0.84890  0.55520  Biso   1.000  C
  C47      1.0000 0.83040  0.34890  0.94480  Biso   1.000  C
  C48      1.0000 0.16960  0.34890  0.55520  Biso   1.000  C
  C49      1.0000 0.58090  0.13110  0.02890  Biso   1.000  C
  C50      1.0000 0.41910  0.13110  0.47110  Biso   1.000  C
  C51      1.0000 0.08090  0.63110  0.02890  Biso   1.000  C
  C52      1.0000 0.91910  0.63110  0.47110  Biso   1.000  C
  C53      1.0000 0.41910  0.86890  0.97110  Biso   1.000  C
  C54      1.0000 0.58090  0.86890  0.52890  Biso   1.000  C
  C55      1.0000 0.91910  0.36890  0.97110  Biso   1.000  C
  C56      1.0000 0.08090  0.36890  0.52890  Biso   1.000  C
  C57      1.0000 0.54770  0.01330  0.01350  Biso   1.000  C
  C58      1.0000 0.45230  0.01330  0.48650  Biso   1.000  C
  C59      1.0000 0.04770  0.51330  0.01350  Biso   1.000  C
  C60      1.0000 0.95230  0.51330  0.48650  Biso   1.000  C
  C61      1.0000 0.45230  0.98670  0.98650  Biso   1.000  C
  C62      1.0000 0.54770  0.98670  0.51350  Biso   1.000  C
  C63      1.0000 0.95230  0.48670  0.98650  Biso   1.000  C
  C64      1.0000 0.04770  0.48670  0.51350  Biso   1.000  C
  C65      1.0000 0.60770  0.92240  0.02350  Biso   1.000  C
  C66      1.0000 0.39230  0.92240  0.47650  Biso   1.000  C
  C67      1.0000 0.10770  0.42240  0.02350  Biso   1.000  C
  C68      1.0000 0.89230  0.42240  0.47650  Biso   1.000  C
  C69      1.0000 0.39230  0.07760  0.97650  Biso   1.000  C
  C70      1.0000 0.60770  0.07760  0.52350  Biso   1.000  C
  C71      1.0000 0.89230  0.57760  0.97650  Biso   1.000  C
  C72      1.0000 0.10770  0.57760  0.52350  Biso   1.000  C
  C73      1.0000 0.69580  0.95190  0.04900  Biso   1.000  C
  C74      1.0000 0.30420  0.95190  0.45100  Biso   1.000  C
  C75      1.0000 0.19580  0.45190  0.04900  Biso   1.000  C
  C76      1.0000 0.80420  0.45190  0.45100  Biso   1.000  C
  C77      1.0000 0.30420  0.04810  0.95100  Biso   1.000  C
  C78      1.0000 0.69580  0.04810  0.54900  Biso   1.000  C
  C79      1.0000 0.80420  0.54810  0.95100  Biso   1.000  C
  C80      1.0000 0.19580  0.54810  0.54900  Biso   1.000  C
  Cl1      1.0000 0.14927  0.08481  0.11557  Biso   1.000  Cl
  Cl2      1.0000 0.85073  0.08481  0.38443  Biso   1.000  Cl
  Cl3      1.0000 0.64927  0.58481  0.11557  Biso   1.000  Cl
  Cl4      1.0000 0.35073  0.58481  0.38443  Biso   1.000  Cl
  Cl5      1.0000 0.85073  0.91519  0.88443  Biso   1.000  Cl
  Cl6      1.0000 0.14927  0.91519  0.61557  Biso   1.000  Cl
  Cl7      1.0000 0.35073  0.41519  0.88443  Biso   1.000  Cl
  Cl8      1.0000 0.64927  0.41519  0.61557  Biso   1.000  Cl
  O9       1.0000 0.08100  0.10540  0.14420  Biso   1.000  O
  O10      1.0000 0.91900  0.10540  0.35580  Biso   1.000  O
  O11      1.0000 0.58100  0.60540  0.14420  Biso   1.000  O
  O12      1.0000 0.41900  0.60540  0.35580  Biso   1.000  O
  O13      1.0000 0.91900  0.89460  0.85580  Biso   1.000  O
  O14      1.0000 0.08100  0.89460  0.64420  Biso   1.000  O
  O15      1.0000 0.41900  0.39460  0.85580  Biso   1.000  O
  O16      1.0000 0.58100  0.39460  0.64420  Biso   1.000  O
  O17      1.0000 0.11830  0.11010  0.19060  Biso   1.000  O
  O18      1.0000 0.88170  0.11010  0.30940  Biso   1.000  O
  O19      1.0000 0.61830  0.61010  0.19060  Biso   1.000  O
  O20      1.0000 0.38170  0.61010  0.30940  Biso   1.000  O
  O21      1.0000 0.88170  0.88990  0.80940  Biso   1.000  O
  O22      1.0000 0.11830  0.88990  0.69060  Biso   1.000  O
  O23      1.0000 0.38170  0.38990  0.80940  Biso   1.000  O
  O24      1.0000 0.61830  0.38990  0.69060  Biso   1.000  O
  O25      1.0000 0.19350  0.97650  0.14210  Biso   1.000  O
  O26      1.0000 0.80650  0.97650  0.35790  Biso   1.000  O
  O27      1.0000 0.69350  0.47650  0.14210  Biso   1.000  O
  O28      1.0000 0.30650  0.47650  0.35790  Biso   1.000  O
  O29      1.0000 0.80650  0.02350  0.85790  Biso   1.000  O
  O30      1.0000 0.19350  0.02350  0.64210  Biso   1.000  O
  O31      1.0000 0.30650  0.52350  0.85790  Biso   1.000  O
  O32      1.0000 0.69350  0.52350  0.64210  Biso   1.000  O
  O33      1.0000 0.16510  0.95720  0.11840  Biso   1.000  O
  O34      1.0000 0.83490  0.95720  0.38160  Biso   1.000  O
  O35      1.0000 0.66510  0.45720  0.11840  Biso   1.000  O
  O36      1.0000 0.33490  0.45720  0.38160  Biso   1.000  O
  O37      1.0000 0.83490  0.04280  0.88160  Biso   1.000  O
  O38      1.0000 0.16510  0.04280  0.61840  Biso   1.000  O
  O39      1.0000 0.33490  0.54280  0.88160  Biso   1.000  O
  O40      1.0000 0.66510  0.54280  0.61840  Biso   1.000  O
  O41      1.0000 0.11990  0.11580  0.01080  Biso   1.000  O
  O42      1.0000 0.88010  0.11580  0.48920  Biso   1.000  O
  O43      1.0000 0.61990  0.61580  0.01080  Biso   1.000  O
  O44      1.0000 0.38010  0.61580  0.48920  Biso   1.000  O
  O45      1.0000 0.88010  0.88420  0.98920  Biso   1.000  O
  O46      1.0000 0.11990  0.88420  0.51080  Biso   1.000  O
  O47      1.0000 0.38010  0.38420  0.98920  Biso   1.000  O
  O48      1.0000 0.61990  0.38420  0.51080  Biso   1.000  O
  O49      1.0000 0.07500  0.09960  0.01450  Biso   1.000  O
  O50      1.0000 0.92500  0.09960  0.48550  Biso   1.000  O
  O51      1.0000 0.57500  0.59960  0.01450  Biso   1.000  O
  O52      1.0000 0.42500  0.59960  0.48550  Biso   1.000  O
  O53      1.0000 0.92500  0.90040  0.98550  Biso   1.000  O
  O54      1.0000 0.07500  0.90040  0.51450  Biso   1.000  O
  O55      1.0000 0.42500  0.40040  0.98550  Biso   1.000  O
  O56      1.0000 0.57500  0.40040  0.51450  Biso   1.000  O
  O57      1.0000 0.21800  0.17250  0.17420  Biso   1.000  O
  O58      1.0000 0.78200  0.17250  0.32580  Biso   1.000  O
  O59      1.0000 0.71800  0.67250  0.17420  Biso   1.000  O
  O60      1.0000 0.28200  0.67250  0.32580  Biso   1.000  O
  O61      1.0000 0.78200  0.82750  0.82580  Biso   1.000  O
  O62      1.0000 0.21800  0.82750  0.67420  Biso   1.000  O
  O63      1.0000 0.28200  0.32750  0.82580  Biso   1.000  O
  O64      1.0000 0.71800  0.32750  0.67420  Biso   1.000  O
  O65      1.0000 0.21560  0.15870  0.12020  Biso   1.000  O
  O66      1.0000 0.78440  0.15870  0.37980  Biso   1.000  O
  O67      1.0000 0.71560  0.65870  0.12020  Biso   1.000  O
  O68      1.0000 0.28440  0.65870  0.37980  Biso   1.000  O
  O69      1.0000 0.78440  0.84130  0.87980  Biso   1.000  O
  O70      1.0000 0.21560  0.84130  0.62020  Biso   1.000  O
  O71      1.0000 0.28440  0.34130  0.87980  Biso   1.000  O
  O72      1.0000 0.71560  0.34130  0.62020  Biso   1.000  O
  H1       1.0000 0.84290  0.09000  0.09790  Biso   1.000  H
  H2       1.0000 0.15710  0.09000  0.40210  Biso   1.000  H
  H3       1.0000 0.34290  0.59000  0.09790  Biso   1.000  H
  H4       1.0000 0.65710  0.59000  0.40210  Biso   1.000  H
  H5       1.0000 0.15710  0.91000  0.90210  Biso   1.000  H
  H6       1.0000 0.84290  0.91000  0.59790  Biso   1.000  H
  H7       1.0000 0.65710  0.41000  0.90210  Biso   1.000  H
  H8       1.0000 0.34290  0.41000  0.59790  Biso   1.000  H
  H9       1.0000 0.90070  0.05860  0.06660  Biso   1.000  H
  H10      1.0000 0.09930  0.05860  0.43340  Biso   1.000  H
  H11      1.0000 0.40070  0.55860  0.06660  Biso   1.000  H
  H12      1.0000 0.59930  0.55860  0.43340  Biso   1.000  H
  H13      1.0000 0.09930  0.94140  0.93340  Biso   1.000  H
  H14      1.0000 0.90070  0.94140  0.56660  Biso   1.000  H
  H15      1.0000 0.59930  0.44140  0.93340  Biso   1.000  H
  H16      1.0000 0.40070  0.44140  0.56660  Biso   1.000  H
  H17      1.0000 0.12450  0.30230  0.27990  Biso   1.000  H
  H18      1.0000 0.87550  0.30230  0.22010  Biso   1.000  H
  H19      1.0000 0.62450  0.80230  0.27990  Biso   1.000  H
  H20      1.0000 0.37550  0.80230  0.22010  Biso   1.000  H
  H21      1.0000 0.87550  0.69770  0.72010  Biso   1.000  H
  H22      1.0000 0.12450  0.69770  0.77990  Biso   1.000  H
  H23      1.0000 0.37550  0.19770  0.72010  Biso   1.000  H
  H24      1.0000 0.62450  0.19770  0.77990  Biso   1.000  H
  H25      1.0000 0.13030  0.49780  0.29170  Biso   1.000  H
  H26      1.0000 0.86970  0.49780  0.20830  Biso   1.000  H
  H27      1.0000 0.63030  0.99780  0.29170  Biso   1.000  H
  H28      1.0000 0.36970  0.99780  0.20830  Biso   1.000  H
  H29      1.0000 0.86970  0.50220  0.70830  Biso   1.000  H
  H30      1.0000 0.13030  0.50220  0.79170  Biso   1.000  H
  H31      1.0000 0.36970  0.00220  0.70830  Biso   1.000  H
  H32      1.0000 0.63030  0.00220  0.79170  Biso   1.000  H
  H33      1.0000 0.86800  0.69800  0.23590  Biso   1.000  H
  H34      1.0000 0.13200  0.69800  0.26410  Biso   1.000  H
  H35      1.0000 0.36800  0.19800  0.23590  Biso   1.000  H
  H36      1.0000 0.63200  0.19800  0.26410  Biso   1.000  H
  H37      1.0000 0.13200  0.30200  0.76410  Biso   1.000  H
  H38      1.0000 0.86800  0.30200  0.73590  Biso   1.000  H
  H39      1.0000 0.63200  0.80200  0.76410  Biso   1.000  H
  H40      1.0000 0.36800  0.80200  0.73590  Biso   1.000  H
  H41      1.0000 0.87640  0.89900  0.23420  Biso   1.000  H
  H42      1.0000 0.12360  0.89900  0.26580  Biso   1.000  H
  H43      1.0000 0.37640  0.39900  0.23420  Biso   1.000  H
  H44      1.0000 0.62360  0.39900  0.26580  Biso   1.000  H
  H45      1.0000 0.12360  0.10100  0.76580  Biso   1.000  H
  H46      1.0000 0.87640  0.10100  0.73420  Biso   1.000  H
  H47      1.0000 0.62360  0.60100  0.76580  Biso   1.000  H
  H48      1.0000 0.37640  0.60100  0.73420  Biso   1.000  H
  H49      1.0000 0.70240  0.23390  0.06320  Biso   1.000  H
  H50      1.0000 0.29760  0.23390  0.43680  Biso   1.000  H
  H51      1.0000 0.20240  0.73390  0.06320  Biso   1.000  H
  H52      1.0000 0.79760  0.73390  0.43680  Biso   1.000  H
  H53      1.0000 0.29760  0.76610  0.93680  Biso   1.000  H
  H54      1.0000 0.70240  0.76610  0.56320  Biso   1.000  H
  H55      1.0000 0.79760  0.26610  0.93680  Biso   1.000  H
  H56      1.0000 0.20240  0.26610  0.56320  Biso   1.000  H
  H57      1.0000 0.54140  0.19600  0.02310  Biso   1.000  H
  H58      1.0000 0.45860  0.19600  0.47690  Biso   1.000  H
  H59      1.0000 0.04140  0.69600  0.02310  Biso   1.000  H
  H60      1.0000 0.95860  0.69600  0.47690  Biso   1.000  H
  H61      1.0000 0.45860  0.80400  0.97690  Biso   1.000  H
  H62      1.0000 0.54140  0.80400  0.52310  Biso   1.000  H
  H63      1.0000 0.95860  0.30400  0.97690  Biso   1.000  H
  H64      1.0000 0.04140  0.30400  0.52310  Biso   1.000  H
  H65      1.0000 0.58470  0.83600  0.99980  Biso   1.000  H
  H66      1.0000 0.41530  0.83600  0.50020  Biso   1.000  H
  H67      1.0000 0.08470  0.33600  0.99980  Biso   1.000  H
  H68      1.0000 0.91530  0.33600  0.50020  Biso   1.000  H
  H69      1.0000 0.41530  0.16400  0.00020  Biso   1.000  H
  H70      1.0000 0.58470  0.16400  0.49980  Biso   1.000  H
  H71      1.0000 0.91530  0.66400  0.00020  Biso   1.000  H
  H72      1.0000 0.08470  0.66400  0.49980  Biso   1.000  H
  H73      1.0000 0.72730  0.88760  0.04450  Biso   1.000  H
  H74      1.0000 0.27270  0.88760  0.45550  Biso   1.000  H
  H75      1.0000 0.22730  0.38760  0.04450  Biso   1.000  H
  H76      1.0000 0.77270  0.38760  0.45550  Biso   1.000  H
  H77      1.0000 0.27270  0.11240  0.95550  Biso   1.000  H
  H78      1.0000 0.72730  0.11240  0.54450  Biso   1.000  H
  H79      1.0000 0.77270  0.61240  0.95550  Biso   1.000  H
  H80      1.0000 0.22730  0.61240  0.54450  Biso   1.000  H
