data_image0
_cell_length_a       7.5594
_cell_length_b       8.7732
_cell_length_c       10.1664
_cell_angle_alpha    105.971
_cell_angle_beta     99.874
_cell_angle_gamma    106.879

_symmetry_space_group_name_H-M    "P 1"
_symmetry_int_tables_number       1

loop_
  _symmetry_equiv_pos_as_xyz
  'x, y, z'

loop_
  _atom_site_label
  _atom_site_occupancy
  _atom_site_fract_x
  _atom_site_fract_y
  _atom_site_fract_z
  _atom_site_thermal_displace_type
  _atom_site_B_iso_or_equiv
  _atom_site_type_symbol
  Cu1      1.0000 0.50000  0.50000  0.00000  Biso   1.000  Cu
  Cl1      1.0000 0.11270  0.38248  0.17891  Biso   1.000  Cl
  Cl2      1.0000 0.88730  0.61752  0.82109  Biso   1.000  Cl
  O1       1.0000 0.61290  0.33570  0.04080  Biso   1.000  O
  O2       1.0000 0.38710  0.66430  0.95920  Biso   1.000  O
  N1       1.0000 0.32170  0.31620  0.81960  Biso   1.000  N
  N2       1.0000 0.67830  0.68380  0.18040  Biso   1.000  N
  O3       1.0000 0.27340  0.42470  0.12900  Biso   1.000  O
  O4       1.0000 0.72660  0.57530  0.87100  Biso   1.000  O
  C1       1.0000 0.06730  0.06580  0.56710  Biso   1.000  C
  C2       1.0000 0.93270  0.93420  0.43290  Biso   1.000  C
  C3       1.0000 0.08020  0.04030  0.69680  Biso   1.000  C
  C4       1.0000 0.91980  0.95970  0.30320  Biso   1.000  C
  H1       1.0000 0.00310  0.93890  0.70140  Biso   1.000  H
  H2       1.0000 0.99690  0.06110  0.29860  Biso   1.000  H
  N3       1.0000 0.43810  0.80520  0.76010  Biso   1.000  N
  N4       1.0000 0.56190  0.19480  0.23990  Biso   1.000  N
  C5       1.0000 0.18880  0.22060  0.56810  Biso   1.000  C
  C6       1.0000 0.81120  0.77940  0.43190  Biso   1.000  C
  H3       1.0000 0.18620  0.24300  0.48370  Biso   1.000  H
  H4       1.0000 0.81380  0.75700  0.51630  Biso   1.000  H
  O5       1.0000 0.17100  0.38250  0.31700  Biso   1.000  O
  O6       1.0000 0.82900  0.61750  0.68300  Biso   1.000  O
  C7       1.0000 0.31250  0.33990  0.69450  Biso   1.000  C
  C8       1.0000 0.68750  0.66010  0.30550  Biso   1.000  C
  H5       1.0000 0.39330  0.44150  0.69270  Biso   1.000  H
  H6       1.0000 0.60670  0.55850  0.30730  Biso   1.000  H
  C9       1.0000 0.48680  0.95960  0.55440  Biso   1.000  C
  C10      1.0000 0.51320  0.04040  0.44560  Biso   1.000  C
  C11      1.0000 0.57300  0.95740  0.79290  Biso   1.000  C
  C12      1.0000 0.42700  0.04260  0.20710  Biso   1.000  C
  H7       1.0000 0.65190  0.01130  0.88550  Biso   1.000  H
  H8       1.0000 0.34810  0.98870  0.11450  Biso   1.000  H
  O7       1.0000 0.97480  0.22460  0.08660  Biso   1.000  O
  O8       1.0000 0.02520  0.77540  0.91340  Biso   1.000  O
  C13      1.0000 0.20870  0.16700  0.81990  Biso   1.000  C
  C14      1.0000 0.79130  0.83300  0.18010  Biso   1.000  C
  H9       1.0000 0.21660  0.14740  0.90580  Biso   1.000  H
  H10      1.0000 0.78340  0.85260  0.09420  Biso   1.000  H
  C15      1.0000 0.60030  0.03750  0.69640  Biso   1.000  C
  C16      1.0000 0.39970  0.96250  0.30360  Biso   1.000  C
  H11      1.0000 0.69470  0.14450  0.72470  Biso   1.000  H
  H12      1.0000 0.30530  0.85550  0.27530  Biso   1.000  H
  C17      1.0000 0.32620  0.73190  0.62760  Biso   1.000  C
  C18      1.0000 0.67380  0.26810  0.37240  Biso   1.000  C
  H13      1.0000 0.22960  0.62720  0.60420  Biso   1.000  H
  H14      1.0000 0.77040  0.37280  0.39580  Biso   1.000  H
  O9       1.0000 0.02720  0.50290  0.19310  Biso   1.000  O
  O10      1.0000 0.97280  0.49710  0.80690  Biso   1.000  O
  C19      1.0000 0.34470  0.80210  0.52260  Biso   1.000  C
  C20      1.0000 0.65530  0.19790  0.47740  Biso   1.000  C
  H15      1.0000 0.26290  0.74470  0.43120  Biso   1.000  H
  H16      1.0000 0.73710  0.25530  0.56880  Biso   1.000  H
