data_image0
_cell_length_a       23.791
_cell_length_b       24.236
_cell_length_c       8.1907
_cell_angle_alpha    90
_cell_angle_beta     90
_cell_angle_gamma    90

_symmetry_space_group_name_H-M    "P 1"
_symmetry_int_tables_number       1

loop_
  _symmetry_equiv_pos_as_xyz
  'x, y, z'

loop_
  _atom_site_label
  _atom_site_occupancy
  _atom_site_fract_x
  _atom_site_fract_y
  _atom_site_fract_z
  _atom_site_thermal_displace_type
  _atom_site_B_iso_or_equiv
  _atom_site_type_symbol
  Cu1      1.0000 0.00000  0.26090  0.25000  Biso   1.000  Cu
  Cu2      1.0000 0.50000  0.73910  0.25000  Biso   1.000  Cu
  Cu3      1.0000 0.00000  0.73910  0.75000  Biso   1.000  Cu
  Cu4      1.0000 0.50000  0.26090  0.75000  Biso   1.000  Cu
  N1       1.0000 0.04738  0.20103  0.14270  Biso   1.000  N
  N2       1.0000 0.45262  0.79897  0.14270  Biso   1.000  N
  N3       1.0000 0.95262  0.20103  0.35730  Biso   1.000  N
  N4       1.0000 0.54738  0.79897  0.35730  Biso   1.000  N
  N5       1.0000 0.95262  0.79897  0.85730  Biso   1.000  N
  N6       1.0000 0.54738  0.20103  0.85730  Biso   1.000  N
  N7       1.0000 0.04738  0.79897  0.64270  Biso   1.000  N
  N8       1.0000 0.45262  0.20103  0.64270  Biso   1.000  N
  N9       1.0000 0.17001  0.98298  0.87710  Biso   1.000  N
  N10      1.0000 0.32999  0.01702  0.87710  Biso   1.000  N
  N11      1.0000 0.82999  0.98298  0.62290  Biso   1.000  N
  N12      1.0000 0.67001  0.01702  0.62290  Biso   1.000  N
  N13      1.0000 0.82999  0.01702  0.12290  Biso   1.000  N
  N14      1.0000 0.67001  0.98298  0.12290  Biso   1.000  N
  N15      1.0000 0.17001  0.01702  0.37710  Biso   1.000  N
  N16      1.0000 0.32999  0.98298  0.37710  Biso   1.000  N
  N17      1.0000 0.20368  0.02024  0.80110  Biso   1.000  N
  N18      1.0000 0.29632  0.97976  0.80110  Biso   1.000  N
  N19      1.0000 0.79632  0.02024  0.69890  Biso   1.000  N
  N20      1.0000 0.70368  0.97976  0.69890  Biso   1.000  N
  N21      1.0000 0.79632  0.97976  0.19890  Biso   1.000  N
  N22      1.0000 0.70368  0.02024  0.19890  Biso   1.000  N
  N23      1.0000 0.20368  0.97976  0.30110  Biso   1.000  N
  N24      1.0000 0.29632  0.02024  0.30110  Biso   1.000  N
  N25      1.0000 0.04526  0.31936  0.13150  Biso   1.000  N
  N26      1.0000 0.45474  0.68064  0.13150  Biso   1.000  N
  N27      1.0000 0.95474  0.31936  0.36850  Biso   1.000  N
  N28      1.0000 0.54526  0.68064  0.36850  Biso   1.000  N
  N29      1.0000 0.95474  0.68064  0.86850  Biso   1.000  N
  N30      1.0000 0.54526  0.31936  0.86850  Biso   1.000  N
  N31      1.0000 0.04526  0.68064  0.63150  Biso   1.000  N
  N32      1.0000 0.45474  0.31936  0.63150  Biso   1.000  N
  N33      1.0000 0.20195  0.48467  0.72800  Biso   1.000  N
  N34      1.0000 0.29805  0.51533  0.72800  Biso   1.000  N
  N35      1.0000 0.79805  0.48467  0.77200  Biso   1.000  N
  N36      1.0000 0.70195  0.51533  0.77200  Biso   1.000  N
  N37      1.0000 0.79805  0.51533  0.27200  Biso   1.000  N
  N38      1.0000 0.70195  0.48467  0.27200  Biso   1.000  N
  N39      1.0000 0.20195  0.51533  0.22800  Biso   1.000  N
  N40      1.0000 0.29805  0.48467  0.22800  Biso   1.000  N
  N41      1.0000 0.16893  0.52526  0.78640  Biso   1.000  N
  N42      1.0000 0.33107  0.47474  0.78640  Biso   1.000  N
  N43      1.0000 0.83107  0.52526  0.71360  Biso   1.000  N
  N44      1.0000 0.66893  0.47474  0.71360  Biso   1.000  N
  N45      1.0000 0.83107  0.47474  0.21360  Biso   1.000  N
  N46      1.0000 0.66893  0.52526  0.21360  Biso   1.000  N
  N47      1.0000 0.16893  0.47474  0.28640  Biso   1.000  N
  N48      1.0000 0.33107  0.52526  0.28640  Biso   1.000  N
  C1       1.0000 0.08750  0.15780  0.90890  Biso   1.000  C
  C2       1.0000 0.41250  0.84220  0.90890  Biso   1.000  C
  C3       1.0000 0.91250  0.15780  0.59110  Biso   1.000  C
  C4       1.0000 0.58750  0.84220  0.59110  Biso   1.000  C
  C5       1.0000 0.91250  0.84220  0.09110  Biso   1.000  C
  C6       1.0000 0.58750  0.15780  0.09110  Biso   1.000  C
  C7       1.0000 0.08750  0.84220  0.40890  Biso   1.000  C
  C8       1.0000 0.41250  0.15780  0.40890  Biso   1.000  C
  H1       1.0000 0.09270  0.15790  0.79640  Biso   1.000  H
  H2       1.0000 0.40730  0.84210  0.79640  Biso   1.000  H
  H3       1.0000 0.90730  0.15790  0.70360  Biso   1.000  H
  H4       1.0000 0.59270  0.84210  0.70360  Biso   1.000  H
  H5       1.0000 0.90730  0.84210  0.20360  Biso   1.000  H
  H6       1.0000 0.59270  0.15790  0.20360  Biso   1.000  H
  H7       1.0000 0.09270  0.84210  0.29640  Biso   1.000  H
  H8       1.0000 0.40730  0.15790  0.29640  Biso   1.000  H
  C9       1.0000 0.05650  0.19930  0.98160  Biso   1.000  C
  C10      1.0000 0.44350  0.80070  0.98160  Biso   1.000  C
  C11      1.0000 0.94350  0.19930  0.51840  Biso   1.000  C
  C12      1.0000 0.55650  0.80070  0.51840  Biso   1.000  C
  C13      1.0000 0.94350  0.80070  0.01840  Biso   1.000  C
  C14      1.0000 0.55650  0.19930  0.01840  Biso   1.000  C
  C15      1.0000 0.05650  0.80070  0.48160  Biso   1.000  C
  C16      1.0000 0.44350  0.19930  0.48160  Biso   1.000  C
  H9       1.0000 0.04150  0.22710  0.91630  Biso   1.000  H
  H10      1.0000 0.45850  0.77290  0.91630  Biso   1.000  H
  H11      1.0000 0.95850  0.22710  0.58370  Biso   1.000  H
  H12      1.0000 0.54150  0.77290  0.58370  Biso   1.000  H
  H13      1.0000 0.95850  0.77290  0.08370  Biso   1.000  H
  H14      1.0000 0.54150  0.22710  0.08370  Biso   1.000  H
  H15      1.0000 0.04150  0.77290  0.41630  Biso   1.000  H
  H16      1.0000 0.45850  0.22710  0.41630  Biso   1.000  H
  C17      1.0000 0.07050  0.16120  0.23370  Biso   1.000  C
  C18      1.0000 0.42950  0.83880  0.23370  Biso   1.000  C
  C19      1.0000 0.92950  0.16120  0.26630  Biso   1.000  C
  C20      1.0000 0.57050  0.83880  0.26630  Biso   1.000  C
  C21      1.0000 0.92950  0.83880  0.76630  Biso   1.000  C
  C22      1.0000 0.57050  0.16120  0.76630  Biso   1.000  C
  C23      1.0000 0.07050  0.83880  0.73370  Biso   1.000  C
  C24      1.0000 0.42950  0.16120  0.73370  Biso   1.000  C
  H17      1.0000 0.06530  0.16240  0.34620  Biso   1.000  H
  H18      1.0000 0.43470  0.83760  0.34620  Biso   1.000  H
  H19      1.0000 0.93470  0.16240  0.15380  Biso   1.000  H
  H20      1.0000 0.56530  0.83760  0.15380  Biso   1.000  H
  H21      1.0000 0.93470  0.83760  0.65380  Biso   1.000  H
  H22      1.0000 0.56530  0.16240  0.65380  Biso   1.000  H
  H23      1.0000 0.06530  0.83760  0.84620  Biso   1.000  H
  H24      1.0000 0.43470  0.16240  0.84620  Biso   1.000  H
  C25      1.0000 0.10110  0.11920  0.17030  Biso   1.000  C
  C26      1.0000 0.39890  0.88080  0.17030  Biso   1.000  C
  C27      1.0000 0.89890  0.11920  0.32970  Biso   1.000  C
  C28      1.0000 0.60110  0.88080  0.32970  Biso   1.000  C
  C29      1.0000 0.89890  0.88080  0.82970  Biso   1.000  C
  C30      1.0000 0.60110  0.11920  0.82970  Biso   1.000  C
  C31      1.0000 0.10110  0.88080  0.67030  Biso   1.000  C
  C32      1.0000 0.39890  0.11920  0.67030  Biso   1.000  C
  H25      1.0000 0.11590  0.09220  0.23880  Biso   1.000  H
  H26      1.0000 0.38410  0.90780  0.23880  Biso   1.000  H
  H27      1.0000 0.88410  0.09220  0.26120  Biso   1.000  H
  H28      1.0000 0.61590  0.90780  0.26120  Biso   1.000  H
  H29      1.0000 0.88410  0.90780  0.76120  Biso   1.000  H
  H30      1.0000 0.61590  0.09220  0.76120  Biso   1.000  H
  H31      1.0000 0.11590  0.90780  0.73880  Biso   1.000  H
  H32      1.0000 0.38410  0.09220  0.73880  Biso   1.000  H
  C33      1.0000 0.11051  0.11644  0.00220  Biso   1.000  C
  C34      1.0000 0.38949  0.88356  0.00220  Biso   1.000  C
  C35      1.0000 0.88949  0.11644  0.49780  Biso   1.000  C
  C36      1.0000 0.61051  0.88356  0.49780  Biso   1.000  C
  C37      1.0000 0.88949  0.88356  0.99780  Biso   1.000  C
  C38      1.0000 0.61051  0.11644  0.99780  Biso   1.000  C
  C39      1.0000 0.11051  0.88356  0.50220  Biso   1.000  C
  C40      1.0000 0.38949  0.11644  0.50220  Biso   1.000  C
  C41      1.0000 0.14269  0.07027  0.93280  Biso   1.000  C
  C42      1.0000 0.35731  0.92973  0.93280  Biso   1.000  C
  C43      1.0000 0.85731  0.07027  0.56720  Biso   1.000  C
  C44      1.0000 0.64269  0.92973  0.56720  Biso   1.000  C
  C45      1.0000 0.85731  0.92973  0.06720  Biso   1.000  C
  C46      1.0000 0.64269  0.07027  0.06720  Biso   1.000  C
  C47      1.0000 0.14269  0.92973  0.43280  Biso   1.000  C
  C48      1.0000 0.35731  0.07027  0.43280  Biso   1.000  C
  C49      1.0000 0.13289  0.01335  0.95640  Biso   1.000  C
  C50      1.0000 0.36711  0.98665  0.95640  Biso   1.000  C
  C51      1.0000 0.86711  0.01335  0.54360  Biso   1.000  C
  C52      1.0000 0.63289  0.98665  0.54360  Biso   1.000  C
  C53      1.0000 0.86711  0.98665  0.04360  Biso   1.000  C
  C54      1.0000 0.63289  0.01335  0.04360  Biso   1.000  C
  C55      1.0000 0.13289  0.98665  0.45640  Biso   1.000  C
  C56      1.0000 0.36711  0.01335  0.45640  Biso   1.000  C
  C57      1.0000 0.18939  0.07347  0.83150  Biso   1.000  C
  C58      1.0000 0.31061  0.92653  0.83150  Biso   1.000  C
  C59      1.0000 0.81061  0.07347  0.66850  Biso   1.000  C
  C60      1.0000 0.68939  0.92653  0.66850  Biso   1.000  C
  C61      1.0000 0.81061  0.92653  0.16850  Biso   1.000  C
  C62      1.0000 0.68939  0.07347  0.16850  Biso   1.000  C
  C63      1.0000 0.18939  0.92653  0.33150  Biso   1.000  C
  C64      1.0000 0.31061  0.07347  0.33150  Biso   1.000  C
  C65      1.0000 0.08537  0.98560  0.04470  Biso   1.000  C
  C66      1.0000 0.41463  0.01440  0.04470  Biso   1.000  C
  C67      1.0000 0.91463  0.98560  0.45530  Biso   1.000  C
  C68      1.0000 0.58537  0.01440  0.45530  Biso   1.000  C
  C69      1.0000 0.91463  0.01440  0.95530  Biso   1.000  C
  C70      1.0000 0.58537  0.98560  0.95530  Biso   1.000  C
  C71      1.0000 0.08537  0.01440  0.54470  Biso   1.000  C
  C72      1.0000 0.41463  0.98560  0.54470  Biso   1.000  C
  H33      1.0000 0.05680  0.97530  0.96770  Biso   1.000  H
  H34      1.0000 0.44320  0.02470  0.96770  Biso   1.000  H
  H35      1.0000 0.94320  0.97530  0.53230  Biso   1.000  H
  H36      1.0000 0.55680  0.02470  0.53230  Biso   1.000  H
  H37      1.0000 0.94320  0.02470  0.03230  Biso   1.000  H
  H38      1.0000 0.55680  0.97530  0.03230  Biso   1.000  H
  H39      1.0000 0.05680  0.02470  0.46770  Biso   1.000  H
  H40      1.0000 0.44320  0.97530  0.46770  Biso   1.000  H
  H41      1.0000 0.06980  0.01050  0.12370  Biso   1.000  H
  H42      1.0000 0.43020  0.98950  0.12370  Biso   1.000  H
  H43      1.0000 0.93020  0.01050  0.37630  Biso   1.000  H
  H44      1.0000 0.56980  0.98950  0.37630  Biso   1.000  H
  H45      1.0000 0.93020  0.98950  0.87630  Biso   1.000  H
  H46      1.0000 0.56980  0.01050  0.87630  Biso   1.000  H
  H47      1.0000 0.06980  0.98950  0.62370  Biso   1.000  H
  H48      1.0000 0.43020  0.01050  0.62370  Biso   1.000  H
  H49      1.0000 0.09910  0.95320  0.09910  Biso   1.000  H
  H50      1.0000 0.40090  0.04680  0.09910  Biso   1.000  H
  H51      1.0000 0.90090  0.95320  0.40090  Biso   1.000  H
  H52      1.0000 0.59910  0.04680  0.40090  Biso   1.000  H
  H53      1.0000 0.90090  0.04680  0.90090  Biso   1.000  H
  H54      1.0000 0.59910  0.95320  0.90090  Biso   1.000  H
  H55      1.0000 0.09910  0.04680  0.59910  Biso   1.000  H
  H56      1.0000 0.40090  0.95320  0.59910  Biso   1.000  H
  C73      1.0000 0.25000  0.00000  0.70240  Biso   1.000  C
  C74      1.0000 0.75000  0.00000  0.79760  Biso   1.000  C
  C75      1.0000 0.75000  0.00000  0.29760  Biso   1.000  C
  C76      1.0000 0.25000  0.00000  0.20240  Biso   1.000  C
  H57      1.0000 0.23660  0.97040  0.63270  Biso   1.000  H
  H58      1.0000 0.26340  0.02960  0.63270  Biso   1.000  H
  H59      1.0000 0.76340  0.97040  0.86730  Biso   1.000  H
  H60      1.0000 0.73660  0.02960  0.86730  Biso   1.000  H
  H61      1.0000 0.76340  0.02960  0.36730  Biso   1.000  H
  H62      1.0000 0.73660  0.97040  0.36730  Biso   1.000  H
  H63      1.0000 0.23660  0.02960  0.13270  Biso   1.000  H
  H64      1.0000 0.26340  0.97040  0.13270  Biso   1.000  H
  C77      1.0000 0.21960  0.12120  0.76410  Biso   1.000  C
  C78      1.0000 0.28040  0.87880  0.76410  Biso   1.000  C
  C79      1.0000 0.78040  0.12120  0.73590  Biso   1.000  C
  C80      1.0000 0.71960  0.87880  0.73590  Biso   1.000  C
  C81      1.0000 0.78040  0.87880  0.23590  Biso   1.000  C
  C82      1.0000 0.71960  0.12120  0.23590  Biso   1.000  C
  C83      1.0000 0.21960  0.87880  0.26410  Biso   1.000  C
  C84      1.0000 0.28040  0.12120  0.26410  Biso   1.000  C
  H65      1.0000 0.25910  0.11710  0.78390  Biso   1.000  H
  H66      1.0000 0.24090  0.88290  0.78390  Biso   1.000  H
  H67      1.0000 0.74090  0.11710  0.71610  Biso   1.000  H
  H68      1.0000 0.75910  0.88290  0.71610  Biso   1.000  H
  H69      1.0000 0.74090  0.88290  0.21610  Biso   1.000  H
  H70      1.0000 0.75910  0.11710  0.21610  Biso   1.000  H
  H71      1.0000 0.25910  0.88290  0.28390  Biso   1.000  H
  H72      1.0000 0.24090  0.11710  0.28390  Biso   1.000  H
  H73      1.0000 0.20630  0.15440  0.81570  Biso   1.000  H
  H74      1.0000 0.29370  0.84560  0.81570  Biso   1.000  H
  H75      1.0000 0.79370  0.15440  0.68430  Biso   1.000  H
  H76      1.0000 0.70630  0.84560  0.68430  Biso   1.000  H
  H77      1.0000 0.79370  0.84560  0.18430  Biso   1.000  H
  H78      1.0000 0.70630  0.15440  0.18430  Biso   1.000  H
  H79      1.0000 0.20630  0.84560  0.31570  Biso   1.000  H
  H80      1.0000 0.29370  0.15440  0.31570  Biso   1.000  H
  H81      1.0000 0.21290  0.12350  0.64870  Biso   1.000  H
  H82      1.0000 0.28710  0.87650  0.64870  Biso   1.000  H
  H83      1.0000 0.78710  0.12350  0.85130  Biso   1.000  H
  H84      1.0000 0.71290  0.87650  0.85130  Biso   1.000  H
  H85      1.0000 0.78710  0.87650  0.35130  Biso   1.000  H
  H86      1.0000 0.71290  0.12350  0.35130  Biso   1.000  H
  H87      1.0000 0.21290  0.87650  0.14870  Biso   1.000  H
  H88      1.0000 0.28710  0.12350  0.14870  Biso   1.000  H
  C85      1.0000 0.04877  0.39870  0.96110  Biso   1.000  C
  C86      1.0000 0.45123  0.60130  0.96110  Biso   1.000  C
  C87      1.0000 0.95123  0.39870  0.53890  Biso   1.000  C
  C88      1.0000 0.54877  0.60130  0.53890  Biso   1.000  C
  C89      1.0000 0.95123  0.60130  0.03890  Biso   1.000  C
  C90      1.0000 0.54877  0.39870  0.03890  Biso   1.000  C
  C91      1.0000 0.04877  0.60130  0.46110  Biso   1.000  C
  C92      1.0000 0.45123  0.39870  0.46110  Biso   1.000  C
  H89      1.0000 0.02910  0.42550  0.90320  Biso   1.000  H
  H90      1.0000 0.47090  0.57450  0.90320  Biso   1.000  H
  H91      1.0000 0.97090  0.42550  0.59680  Biso   1.000  H
  H92      1.0000 0.52910  0.57450  0.59680  Biso   1.000  H
  H93      1.0000 0.97090  0.57450  0.09680  Biso   1.000  H
  H94      1.0000 0.52910  0.42550  0.09680  Biso   1.000  H
  H95      1.0000 0.02910  0.57450  0.40320  Biso   1.000  H
  H96      1.0000 0.47090  0.42550  0.40320  Biso   1.000  H
  C93      1.0000 0.01990  0.35880  0.04640  Biso   1.000  C
  C94      1.0000 0.48010  0.64120  0.04640  Biso   1.000  C
  C95      1.0000 0.98010  0.35880  0.45360  Biso   1.000  C
  C96      1.0000 0.51990  0.64120  0.45360  Biso   1.000  C
  C97      1.0000 0.98010  0.64120  0.95360  Biso   1.000  C
  C98      1.0000 0.51990  0.35880  0.95360  Biso   1.000  C
  C99      1.0000 0.01990  0.64120  0.54640  Biso   1.000  C
  C100     1.0000 0.48010  0.35880  0.54640  Biso   1.000  C
  H97      1.0000 0.98080  0.35940  0.04420  Biso   1.000  H
  H98      1.0000 0.51920  0.64060  0.04420  Biso   1.000  H
  H99      1.0000 0.01920  0.35940  0.45580  Biso   1.000  H
  H100     1.0000 0.48080  0.64060  0.45580  Biso   1.000  H
  H101     1.0000 0.01920  0.64060  0.95580  Biso   1.000  H
  H102     1.0000 0.48080  0.35940  0.95580  Biso   1.000  H
  H103     1.0000 0.98080  0.64060  0.54420  Biso   1.000  H
  H104     1.0000 0.51920  0.35940  0.54420  Biso   1.000  H
  C101     1.0000 0.10130  0.31910  0.13190  Biso   1.000  C
  C102     1.0000 0.39870  0.68090  0.13190  Biso   1.000  C
  C103     1.0000 0.89870  0.31910  0.36810  Biso   1.000  C
  C104     1.0000 0.60130  0.68090  0.36810  Biso   1.000  C
  C105     1.0000 0.89870  0.68090  0.86810  Biso   1.000  C
  C106     1.0000 0.60130  0.31910  0.86810  Biso   1.000  C
  C107     1.0000 0.10130  0.68090  0.63190  Biso   1.000  C
  C108     1.0000 0.39870  0.31910  0.63190  Biso   1.000  C
  H105     1.0000 0.11990  0.29180  0.19080  Biso   1.000  H
  H106     1.0000 0.38010  0.70820  0.19080  Biso   1.000  H
  H107     1.0000 0.88010  0.29180  0.30920  Biso   1.000  H
  H108     1.0000 0.61990  0.70820  0.30920  Biso   1.000  H
  H109     1.0000 0.88010  0.70820  0.80920  Biso   1.000  H
  H110     1.0000 0.61990  0.29180  0.80920  Biso   1.000  H
  H111     1.0000 0.11990  0.70820  0.69080  Biso   1.000  H
  H112     1.0000 0.38010  0.29180  0.69080  Biso   1.000  H
  C109     1.0000 0.13267  0.35751  0.04860  Biso   1.000  C
  C110     1.0000 0.36733  0.64249  0.04860  Biso   1.000  C
  C111     1.0000 0.86733  0.35751  0.45140  Biso   1.000  C
  C112     1.0000 0.63267  0.64249  0.45140  Biso   1.000  C
  C113     1.0000 0.86733  0.64249  0.95140  Biso   1.000  C
  C114     1.0000 0.63267  0.35751  0.95140  Biso   1.000  C
  C115     1.0000 0.13267  0.64249  0.54860  Biso   1.000  C
  C116     1.0000 0.36733  0.35751  0.54860  Biso   1.000  C
  H113     1.0000 0.17170  0.35540  0.05120  Biso   1.000  H
  H114     1.0000 0.32830  0.64460  0.05120  Biso   1.000  H
  H115     1.0000 0.82830  0.35540  0.44880  Biso   1.000  H
  H116     1.0000 0.67170  0.64460  0.44880  Biso   1.000  H
  H117     1.0000 0.82830  0.64460  0.94880  Biso   1.000  H
  H118     1.0000 0.67170  0.35540  0.94880  Biso   1.000  H
  H119     1.0000 0.17170  0.64460  0.55120  Biso   1.000  H
  H120     1.0000 0.32830  0.35540  0.55120  Biso   1.000  H
  C117     1.0000 0.10706  0.39916  0.96120  Biso   1.000  C
  C118     1.0000 0.39294  0.60084  0.96120  Biso   1.000  C
  C119     1.0000 0.89294  0.39916  0.53880  Biso   1.000  C
  C120     1.0000 0.60706  0.60084  0.53880  Biso   1.000  C
  C121     1.0000 0.89294  0.60084  0.03880  Biso   1.000  C
  C122     1.0000 0.60706  0.39916  0.03880  Biso   1.000  C
  C123     1.0000 0.10706  0.60084  0.46120  Biso   1.000  C
  C124     1.0000 0.39294  0.39916  0.46120  Biso   1.000  C
  C125     1.0000 0.13953  0.44170  0.87470  Biso   1.000  C
  C126     1.0000 0.36047  0.55830  0.87470  Biso   1.000  C
  C127     1.0000 0.86047  0.44170  0.62530  Biso   1.000  C
  C128     1.0000 0.63953  0.55830  0.62530  Biso   1.000  C
  C129     1.0000 0.86047  0.55830  0.12530  Biso   1.000  C
  C130     1.0000 0.63953  0.44170  0.12530  Biso   1.000  C
  C131     1.0000 0.13953  0.55830  0.37470  Biso   1.000  C
  C132     1.0000 0.36047  0.44170  0.37470  Biso   1.000  C
  C133     1.0000 0.18643  0.43372  0.77650  Biso   1.000  C
  C134     1.0000 0.31357  0.56628  0.77650  Biso   1.000  C
  C135     1.0000 0.81357  0.43372  0.72350  Biso   1.000  C
  C136     1.0000 0.68643  0.56628  0.72350  Biso   1.000  C
  C137     1.0000 0.81357  0.56628  0.22350  Biso   1.000  C
  C138     1.0000 0.68643  0.43372  0.22350  Biso   1.000  C
  C139     1.0000 0.18643  0.56628  0.27650  Biso   1.000  C
  C140     1.0000 0.31357  0.43372  0.27650  Biso   1.000  C
  C141     1.0000 0.13008  0.49912  0.87530  Biso   1.000  C
  C142     1.0000 0.36992  0.50088  0.87530  Biso   1.000  C
  C143     1.0000 0.86992  0.49912  0.62470  Biso   1.000  C
  C144     1.0000 0.63008  0.50088  0.62470  Biso   1.000  C
  C145     1.0000 0.86992  0.50088  0.12470  Biso   1.000  C
  C146     1.0000 0.63008  0.49912  0.12470  Biso   1.000  C
  C147     1.0000 0.13008  0.50088  0.37530  Biso   1.000  C
  C148     1.0000 0.36992  0.49912  0.37530  Biso   1.000  C
  C149     1.0000 0.08518  0.53160  0.95620  Biso   1.000  C
  C150     1.0000 0.41482  0.46840  0.95620  Biso   1.000  C
  C151     1.0000 0.91482  0.53160  0.54380  Biso   1.000  C
  C152     1.0000 0.58518  0.46840  0.54380  Biso   1.000  C
  C153     1.0000 0.91482  0.46840  0.04380  Biso   1.000  C
  C154     1.0000 0.58518  0.53160  0.04380  Biso   1.000  C
  C155     1.0000 0.08518  0.46840  0.45620  Biso   1.000  C
  C156     1.0000 0.41482  0.53160  0.45620  Biso   1.000  C
  H121     1.0000 0.09720  0.56920  0.96780  Biso   1.000  H
  H122     1.0000 0.40280  0.43080  0.96780  Biso   1.000  H
  H123     1.0000 0.90280  0.56920  0.53220  Biso   1.000  H
  H124     1.0000 0.59720  0.43080  0.53220  Biso   1.000  H
  H125     1.0000 0.90280  0.43080  0.03220  Biso   1.000  H
  H126     1.0000 0.59720  0.56920  0.03220  Biso   1.000  H
  H127     1.0000 0.09720  0.43080  0.46780  Biso   1.000  H
  H128     1.0000 0.40280  0.56920  0.46780  Biso   1.000  H
  H129     1.0000 0.07760  0.51620  0.06200  Biso   1.000  H
  H130     1.0000 0.42240  0.48380  0.06200  Biso   1.000  H
  H131     1.0000 0.92240  0.51620  0.43800  Biso   1.000  H
  H132     1.0000 0.57760  0.48380  0.43800  Biso   1.000  H
  H133     1.0000 0.92240  0.48380  0.93800  Biso   1.000  H
  H134     1.0000 0.57760  0.51620  0.93800  Biso   1.000  H
  H135     1.0000 0.07760  0.48380  0.56200  Biso   1.000  H
  H136     1.0000 0.42240  0.51620  0.56200  Biso   1.000  H
  H137     1.0000 0.05170  0.53030  0.89100  Biso   1.000  H
  H138     1.0000 0.44830  0.46970  0.89100  Biso   1.000  H
  H139     1.0000 0.94830  0.53030  0.60900  Biso   1.000  H
  H140     1.0000 0.55170  0.46970  0.60900  Biso   1.000  H
  H141     1.0000 0.94830  0.46970  0.10900  Biso   1.000  H
  H142     1.0000 0.55170  0.53030  0.10900  Biso   1.000  H
  H143     1.0000 0.05170  0.46970  0.39100  Biso   1.000  H
  H144     1.0000 0.44830  0.53030  0.39100  Biso   1.000  H
  C157     1.0000 0.21490  0.38270  0.72500  Biso   1.000  C
  C158     1.0000 0.28510  0.61730  0.72500  Biso   1.000  C
  C159     1.0000 0.78510  0.38270  0.77500  Biso   1.000  C
  C160     1.0000 0.71490  0.61730  0.77500  Biso   1.000  C
  C161     1.0000 0.78510  0.61730  0.27500  Biso   1.000  C
  C162     1.0000 0.71490  0.38270  0.27500  Biso   1.000  C
  C163     1.0000 0.21490  0.61730  0.22500  Biso   1.000  C
  C164     1.0000 0.28510  0.38270  0.22500  Biso   1.000  C
  H145     1.0000 0.21900  0.38260  0.60840  Biso   1.000  H
  H146     1.0000 0.28100  0.61740  0.60840  Biso   1.000  H
  H147     1.0000 0.78100  0.38260  0.89160  Biso   1.000  H
  H148     1.0000 0.71900  0.61740  0.89160  Biso   1.000  H
  H149     1.0000 0.78100  0.61740  0.39160  Biso   1.000  H
  H150     1.0000 0.71900  0.38260  0.39160  Biso   1.000  H
  H151     1.0000 0.21900  0.61740  0.10840  Biso   1.000  H
  H152     1.0000 0.28100  0.38260  0.10840  Biso   1.000  H
  H153     1.0000 0.19300  0.35140  0.75800  Biso   1.000  H
  H154     1.0000 0.30700  0.64860  0.75800  Biso   1.000  H
  H155     1.0000 0.80700  0.35140  0.74200  Biso   1.000  H
  H156     1.0000 0.69300  0.64860  0.74200  Biso   1.000  H
  H157     1.0000 0.80700  0.64860  0.24200  Biso   1.000  H
  H158     1.0000 0.69300  0.35140  0.24200  Biso   1.000  H
  H159     1.0000 0.19300  0.64860  0.25800  Biso   1.000  H
  H160     1.0000 0.30700  0.35140  0.25800  Biso   1.000  H
  H161     1.0000 0.25140  0.38080  0.77510  Biso   1.000  H
  H162     1.0000 0.24860  0.61920  0.77510  Biso   1.000  H
  H163     1.0000 0.74860  0.38080  0.72490  Biso   1.000  H
  H164     1.0000 0.75140  0.61920  0.72490  Biso   1.000  H
  H165     1.0000 0.74860  0.61920  0.22490  Biso   1.000  H
  H166     1.0000 0.75140  0.38080  0.22490  Biso   1.000  H
  H167     1.0000 0.25140  0.61920  0.27510  Biso   1.000  H
  H168     1.0000 0.24860  0.38080  0.27510  Biso   1.000  H
  C165     1.0000 0.25000  0.50000  0.62950  Biso   1.000  C
  C166     1.0000 0.75000  0.50000  0.87050  Biso   1.000  C
  C167     1.0000 0.75000  0.50000  0.37050  Biso   1.000  C
  C168     1.0000 0.25000  0.50000  0.12950  Biso   1.000  C
  H169     1.0000 0.26020  0.46920  0.55980  Biso   1.000  H
  H170     1.0000 0.23980  0.53080  0.55980  Biso   1.000  H
  H171     1.0000 0.73980  0.46920  0.94020  Biso   1.000  H
  H172     1.0000 0.76020  0.53080  0.94020  Biso   1.000  H
  H173     1.0000 0.73980  0.53080  0.44020  Biso   1.000  H
  H174     1.0000 0.76020  0.46920  0.44020  Biso   1.000  H
  H175     1.0000 0.26020  0.53080  0.05980  Biso   1.000  H
  H176     1.0000 0.23980  0.46920  0.05980  Biso   1.000  H
  N49      1.0000 0.06200  0.25810  0.48870  Biso   1.000  N
  N50      1.0000 0.43800  0.74190  0.48870  Biso   1.000  N
  N51      1.0000 0.93800  0.25810  0.01130  Biso   1.000  N
  N52      1.0000 0.56200  0.74190  0.01130  Biso   1.000  N
  N53      1.0000 0.93800  0.74190  0.51130  Biso   1.000  N
  N54      1.0000 0.56200  0.25810  0.51130  Biso   1.000  N
  N55      1.0000 0.06200  0.74190  0.98870  Biso   1.000  N
  N56      1.0000 0.43800  0.25810  0.98870  Biso   1.000  N
  C169     1.0000 0.10890  0.25200  0.51530  Biso   1.000  C
  C170     1.0000 0.39110  0.74800  0.51530  Biso   1.000  C
  C171     1.0000 0.89110  0.25200  0.98470  Biso   1.000  C
  C172     1.0000 0.60890  0.74800  0.98470  Biso   1.000  C
  C173     1.0000 0.89110  0.74800  0.48470  Biso   1.000  C
  C174     1.0000 0.60890  0.25200  0.48470  Biso   1.000  C
  C175     1.0000 0.10890  0.74800  0.01530  Biso   1.000  C
  C176     1.0000 0.39110  0.25200  0.01530  Biso   1.000  C
  N57      1.0000 0.15860  0.22910  0.59300  Biso   1.000  N
  N58      1.0000 0.34140  0.77090  0.59300  Biso   1.000  N
  N59      1.0000 0.84140  0.22910  0.90700  Biso   1.000  N
  N60      1.0000 0.65860  0.77090  0.90700  Biso   1.000  N
  N61      1.0000 0.84140  0.77090  0.40700  Biso   1.000  N
  N62      1.0000 0.65860  0.22910  0.40700  Biso   1.000  N
  N63      1.0000 0.15860  0.77090  0.09300  Biso   1.000  N
  N64      1.0000 0.34140  0.22910  0.09300  Biso   1.000  N
  C177     1.0000 0.21160  0.25220  0.53130  Biso   1.000  C
  C178     1.0000 0.28840  0.74780  0.53130  Biso   1.000  C
  C179     1.0000 0.78840  0.25220  0.96870  Biso   1.000  C
  C180     1.0000 0.71160  0.74780  0.96870  Biso   1.000  C
  C181     1.0000 0.78840  0.74780  0.46870  Biso   1.000  C
  C182     1.0000 0.71160  0.25220  0.46870  Biso   1.000  C
  C183     1.0000 0.21160  0.74780  0.03130  Biso   1.000  C
  C184     1.0000 0.28840  0.25220  0.03130  Biso   1.000  C
  N65      1.0000 0.25970  0.25520  0.53000  Biso   1.000  N
  N66      1.0000 0.24030  0.74480  0.53000  Biso   1.000  N
  N67      1.0000 0.74030  0.25520  0.97000  Biso   1.000  N
  N68      1.0000 0.75970  0.74480  0.97000  Biso   1.000  N
  N69      1.0000 0.74030  0.74480  0.47000  Biso   1.000  N
  N70      1.0000 0.75970  0.25520  0.47000  Biso   1.000  N
  N71      1.0000 0.25970  0.74480  0.03000  Biso   1.000  N
  N72      1.0000 0.24030  0.25520  0.03000  Biso   1.000  N
  N73      1.0000 0.10120  0.27540  0.56410  Biso   1.000  N
  N74      1.0000 0.39880  0.72460  0.56410  Biso   1.000  N
  N75      1.0000 0.89880  0.27540  0.93590  Biso   1.000  N
  N76      1.0000 0.60120  0.72460  0.93590  Biso   1.000  N
  N77      1.0000 0.89880  0.72460  0.43590  Biso   1.000  N
  N78      1.0000 0.60120  0.27540  0.43590  Biso   1.000  N
  N79      1.0000 0.10120  0.72460  0.06410  Biso   1.000  N
  N80      1.0000 0.39880  0.27540  0.06410  Biso   1.000  N
  O1       1.0000 0.13210  0.25360  0.66100  Biso   1.000  O
  O2       1.0000 0.36790  0.74640  0.66100  Biso   1.000  O
  O3       1.0000 0.86790  0.25360  0.83900  Biso   1.000  O
  O4       1.0000 0.63210  0.74640  0.83900  Biso   1.000  O
  O5       1.0000 0.86790  0.74640  0.33900  Biso   1.000  O
  O6       1.0000 0.63210  0.25360  0.33900  Biso   1.000  O
  O7       1.0000 0.13210  0.74640  0.16100  Biso   1.000  O
  O8       1.0000 0.36790  0.25360  0.16100  Biso   1.000  O
  O9       1.0000 0.11200  0.32440  0.53770  Biso   1.000  O
  O10      1.0000 0.38800  0.67560  0.53770  Biso   1.000  O
  O11      1.0000 0.88800  0.32440  0.96230  Biso   1.000  O
  O12      1.0000 0.61200  0.67560  0.96230  Biso   1.000  O
  O13      1.0000 0.88800  0.67560  0.46230  Biso   1.000  O
  O14      1.0000 0.61200  0.32440  0.46230  Biso   1.000  O
  O15      1.0000 0.11200  0.67560  0.03770  Biso   1.000  O
  O16      1.0000 0.38800  0.32440  0.03770  Biso   1.000  O
