data_image0
_cell_length_a       23.955
_cell_length_b       24.334
_cell_length_c       8.163
_cell_angle_alpha    90
_cell_angle_beta     90
_cell_angle_gamma    90

_symmetry_space_group_name_H-M    "P 1"
_symmetry_int_tables_number       1

loop_
  _symmetry_equiv_pos_as_xyz
  'x, y, z'

loop_
  _atom_site_label
  _atom_site_occupancy
  _atom_site_fract_x
  _atom_site_fract_y
  _atom_site_fract_z
  _atom_site_thermal_displace_type
  _atom_site_B_iso_or_equiv
  _atom_site_type_symbol
  Cu1      1.0000 0.50000  0.26129  0.25000  Biso   1.000  Cu
  Cu2      1.0000 0.00000  0.73871  0.25000  Biso   1.000  Cu
  Cu3      1.0000 0.50000  0.73871  0.75000  Biso   1.000  Cu
  Cu4      1.0000 0.00000  0.26129  0.75000  Biso   1.000  Cu
  N1       1.0000 0.45495  0.31973  0.36660  Biso   1.000  N
  N2       1.0000 0.04505  0.68027  0.36660  Biso   1.000  N
  N3       1.0000 0.54505  0.31973  0.13340  Biso   1.000  N
  N4       1.0000 0.95495  0.68027  0.13340  Biso   1.000  N
  N5       1.0000 0.54505  0.68027  0.63340  Biso   1.000  N
  N6       1.0000 0.95495  0.31973  0.63340  Biso   1.000  N
  N7       1.0000 0.45495  0.68027  0.86660  Biso   1.000  N
  N8       1.0000 0.04505  0.31973  0.86660  Biso   1.000  N
  N9       1.0000 0.29779  0.48458  0.76860  Biso   1.000  N
  N10      1.0000 0.20221  0.51542  0.76860  Biso   1.000  N
  N11      1.0000 0.70221  0.48458  0.73140  Biso   1.000  N
  N12      1.0000 0.79779  0.51542  0.73140  Biso   1.000  N
  N13      1.0000 0.70221  0.51542  0.23140  Biso   1.000  N
  N14      1.0000 0.79779  0.48458  0.23140  Biso   1.000  N
  N15      1.0000 0.29779  0.51542  0.26860  Biso   1.000  N
  N16      1.0000 0.20221  0.48458  0.26860  Biso   1.000  N
  N17      1.0000 0.33100  0.52565  0.71000  Biso   1.000  N
  N18      1.0000 0.16900  0.47435  0.71000  Biso   1.000  N
  N19      1.0000 0.66900  0.52565  0.79000  Biso   1.000  N
  N20      1.0000 0.83100  0.47435  0.79000  Biso   1.000  N
  N21      1.0000 0.66900  0.47435  0.29000  Biso   1.000  N
  N22      1.0000 0.83100  0.52565  0.29000  Biso   1.000  N
  N23      1.0000 0.33100  0.47435  0.21000  Biso   1.000  N
  N24      1.0000 0.16900  0.52565  0.21000  Biso   1.000  N
  N25      1.0000 0.45216  0.20161  0.35290  Biso   1.000  N
  N26      1.0000 0.04784  0.79839  0.35290  Biso   1.000  N
  N27      1.0000 0.54784  0.20161  0.14710  Biso   1.000  N
  N28      1.0000 0.95216  0.79839  0.14710  Biso   1.000  N
  N29      1.0000 0.54784  0.79839  0.64710  Biso   1.000  N
  N30      1.0000 0.95216  0.20161  0.64710  Biso   1.000  N
  N31      1.0000 0.45216  0.79839  0.85290  Biso   1.000  N
  N32      1.0000 0.04784  0.20161  0.85290  Biso   1.000  N
  N33      1.0000 0.32977  0.98319  0.61580  Biso   1.000  N
  N34      1.0000 0.17023  0.01681  0.61580  Biso   1.000  N
  N35      1.0000 0.67023  0.98319  0.88420  Biso   1.000  N
  N36      1.0000 0.82977  0.01681  0.88420  Biso   1.000  N
  N37      1.0000 0.67023  0.01681  0.38420  Biso   1.000  N
  N38      1.0000 0.82977  0.98319  0.38420  Biso   1.000  N
  N39      1.0000 0.32977  0.01681  0.11580  Biso   1.000  N
  N40      1.0000 0.17023  0.98319  0.11580  Biso   1.000  N
  N41      1.0000 0.29586  0.02033  0.69030  Biso   1.000  N
  N42      1.0000 0.20414  0.97967  0.69030  Biso   1.000  N
  N43      1.0000 0.70414  0.02033  0.80970  Biso   1.000  N
  N44      1.0000 0.79586  0.97967  0.80970  Biso   1.000  N
  N45      1.0000 0.70414  0.97967  0.30970  Biso   1.000  N
  N46      1.0000 0.79586  0.02033  0.30970  Biso   1.000  N
  N47      1.0000 0.29586  0.97967  0.19030  Biso   1.000  N
  N48      1.0000 0.20414  0.02033  0.19030  Biso   1.000  N
  C1       1.0000 0.39271  0.39969  0.53550  Biso   1.000  C
  C2       1.0000 0.10729  0.60031  0.53550  Biso   1.000  C
  C3       1.0000 0.60729  0.39969  0.96450  Biso   1.000  C
  C4       1.0000 0.89271  0.60031  0.96450  Biso   1.000  C
  C5       1.0000 0.60729  0.60031  0.46450  Biso   1.000  C
  C6       1.0000 0.89271  0.39969  0.46450  Biso   1.000  C
  C7       1.0000 0.39271  0.60031  0.03550  Biso   1.000  C
  C8       1.0000 0.10729  0.39969  0.03550  Biso   1.000  C
  C9       1.0000 0.36780  0.35920  0.44500  Biso   1.000  C
  C10      1.0000 0.13220  0.64080  0.44500  Biso   1.000  C
  C11      1.0000 0.63220  0.35920  0.05500  Biso   1.000  C
  C12      1.0000 0.86780  0.64080  0.05500  Biso   1.000  C
  C13      1.0000 0.63220  0.64080  0.55500  Biso   1.000  C
  C14      1.0000 0.86780  0.35920  0.55500  Biso   1.000  C
  C15      1.0000 0.36780  0.64080  0.94500  Biso   1.000  C
  C16      1.0000 0.13220  0.35920  0.94500  Biso   1.000  C
  H1       1.0000 0.32900  0.35790  0.43820  Biso   1.000  H
  H2       1.0000 0.17100  0.64210  0.43820  Biso   1.000  H
  H3       1.0000 0.67100  0.35790  0.06180  Biso   1.000  H
  H4       1.0000 0.82900  0.64210  0.06180  Biso   1.000  H
  H5       1.0000 0.67100  0.64210  0.56180  Biso   1.000  H
  H6       1.0000 0.82900  0.35790  0.56180  Biso   1.000  H
  H7       1.0000 0.32900  0.64210  0.93820  Biso   1.000  H
  H8       1.0000 0.17100  0.35790  0.93820  Biso   1.000  H
  C17      1.0000 0.39950  0.31960  0.36250  Biso   1.000  C
  C18      1.0000 0.10050  0.68040  0.36250  Biso   1.000  C
  C19      1.0000 0.60050  0.31960  0.13750  Biso   1.000  C
  C20      1.0000 0.89950  0.68040  0.13750  Biso   1.000  C
  C21      1.0000 0.60050  0.68040  0.63750  Biso   1.000  C
  C22      1.0000 0.89950  0.31960  0.63750  Biso   1.000  C
  C23      1.0000 0.39950  0.68040  0.86250  Biso   1.000  C
  C24      1.0000 0.10050  0.31960  0.86250  Biso   1.000  C
  H9       1.0000 0.38120  0.29240  0.30310  Biso   1.000  H
  H10      1.0000 0.11880  0.70760  0.30310  Biso   1.000  H
  H11      1.0000 0.61880  0.29240  0.19690  Biso   1.000  H
  H12      1.0000 0.88120  0.70760  0.19690  Biso   1.000  H
  H13      1.0000 0.61880  0.70760  0.69690  Biso   1.000  H
  H14      1.0000 0.88120  0.29240  0.69690  Biso   1.000  H
  H15      1.0000 0.38120  0.70760  0.80310  Biso   1.000  H
  H16      1.0000 0.11880  0.29240  0.80310  Biso   1.000  H
  C25      1.0000 0.47940  0.35870  0.45500  Biso   1.000  C
  C26      1.0000 0.02060  0.64130  0.45500  Biso   1.000  C
  C27      1.0000 0.52060  0.35870  0.04500  Biso   1.000  C
  C28      1.0000 0.97940  0.64130  0.04500  Biso   1.000  C
  C29      1.0000 0.52060  0.64130  0.54500  Biso   1.000  C
  C30      1.0000 0.97940  0.35870  0.54500  Biso   1.000  C
  C31      1.0000 0.47940  0.64130  0.95500  Biso   1.000  C
  C32      1.0000 0.02060  0.35870  0.95500  Biso   1.000  C
  H17      1.0000 0.51820  0.35900  0.45970  Biso   1.000  H
  H18      1.0000 0.98180  0.64100  0.45970  Biso   1.000  H
  H19      1.0000 0.48180  0.35900  0.04030  Biso   1.000  H
  H20      1.0000 0.01820  0.64100  0.04030  Biso   1.000  H
  H21      1.0000 0.48180  0.64100  0.54030  Biso   1.000  H
  H22      1.0000 0.01820  0.35900  0.54030  Biso   1.000  H
  H23      1.0000 0.51820  0.64100  0.95970  Biso   1.000  H
  H24      1.0000 0.98180  0.35900  0.95970  Biso   1.000  H
  C33      1.0000 0.45100  0.39840  0.53980  Biso   1.000  C
  C34      1.0000 0.04900  0.60160  0.53980  Biso   1.000  C
  C35      1.0000 0.54900  0.39840  0.96020  Biso   1.000  C
  C36      1.0000 0.95100  0.60160  0.96020  Biso   1.000  C
  C37      1.0000 0.54900  0.60160  0.46020  Biso   1.000  C
  C38      1.0000 0.95100  0.39840  0.46020  Biso   1.000  C
  C39      1.0000 0.45100  0.60160  0.03980  Biso   1.000  C
  C40      1.0000 0.04900  0.39840  0.03980  Biso   1.000  C
  H25      1.0000 0.47050  0.42450  0.60020  Biso   1.000  H
  H26      1.0000 0.02950  0.57550  0.60020  Biso   1.000  H
  H27      1.0000 0.52950  0.42450  0.89980  Biso   1.000  H
  H28      1.0000 0.97050  0.57550  0.89980  Biso   1.000  H
  H29      1.0000 0.52950  0.57550  0.39980  Biso   1.000  H
  H30      1.0000 0.97050  0.42450  0.39980  Biso   1.000  H
  H31      1.0000 0.47050  0.57550  0.10020  Biso   1.000  H
  H32      1.0000 0.02950  0.42450  0.10020  Biso   1.000  H
  C41      1.0000 0.36030  0.44200  0.62270  Biso   1.000  C
  C42      1.0000 0.13970  0.55800  0.62270  Biso   1.000  C
  C43      1.0000 0.63970  0.44200  0.87730  Biso   1.000  C
  C44      1.0000 0.86030  0.55800  0.87730  Biso   1.000  C
  C45      1.0000 0.63970  0.55800  0.37730  Biso   1.000  C
  C46      1.0000 0.86030  0.44200  0.37730  Biso   1.000  C
  C47      1.0000 0.36030  0.55800  0.12270  Biso   1.000  C
  C48      1.0000 0.13970  0.44200  0.12270  Biso   1.000  C
  C49      1.0000 0.31360  0.43400  0.71850  Biso   1.000  C
  C50      1.0000 0.18640  0.56600  0.71850  Biso   1.000  C
  C51      1.0000 0.68640  0.43400  0.78150  Biso   1.000  C
  C52      1.0000 0.81360  0.56600  0.78150  Biso   1.000  C
  C53      1.0000 0.68640  0.56600  0.28150  Biso   1.000  C
  C54      1.0000 0.81360  0.43400  0.28150  Biso   1.000  C
  C55      1.0000 0.31360  0.56600  0.21850  Biso   1.000  C
  C56      1.0000 0.18640  0.43400  0.21850  Biso   1.000  C
  C57      1.0000 0.28490  0.38350  0.77160  Biso   1.000  C
  C58      1.0000 0.21510  0.61650  0.77160  Biso   1.000  C
  C59      1.0000 0.71510  0.38350  0.72840  Biso   1.000  C
  C60      1.0000 0.78490  0.61650  0.72840  Biso   1.000  C
  C61      1.0000 0.71510  0.61650  0.22840  Biso   1.000  C
  C62      1.0000 0.78490  0.38350  0.22840  Biso   1.000  C
  C63      1.0000 0.28490  0.61650  0.27160  Biso   1.000  C
  C64      1.0000 0.21510  0.38350  0.27160  Biso   1.000  C
  H33      1.0000 0.28450  0.38190  0.88910  Biso   1.000  H
  H34      1.0000 0.21550  0.61810  0.88910  Biso   1.000  H
  H35      1.0000 0.71550  0.38190  0.61090  Biso   1.000  H
  H36      1.0000 0.78450  0.61810  0.61090  Biso   1.000  H
  H37      1.0000 0.71550  0.61810  0.11090  Biso   1.000  H
  H38      1.0000 0.78450  0.38190  0.11090  Biso   1.000  H
  H39      1.0000 0.28450  0.61810  0.38910  Biso   1.000  H
  H40      1.0000 0.21550  0.38190  0.38910  Biso   1.000  H
  H41      1.0000 0.30430  0.35210  0.72920  Biso   1.000  H
  H42      1.0000 0.19570  0.64790  0.72920  Biso   1.000  H
  H43      1.0000 0.69570  0.35210  0.77080  Biso   1.000  H
  H44      1.0000 0.80430  0.64790  0.77080  Biso   1.000  H
  H45      1.0000 0.69570  0.64790  0.27080  Biso   1.000  H
  H46      1.0000 0.80430  0.35210  0.27080  Biso   1.000  H
  H47      1.0000 0.30430  0.64790  0.22920  Biso   1.000  H
  H48      1.0000 0.19570  0.35210  0.22920  Biso   1.000  H
  H49      1.0000 0.24730  0.38370  0.73110  Biso   1.000  H
  H50      1.0000 0.25270  0.61630  0.73110  Biso   1.000  H
  H51      1.0000 0.75270  0.38370  0.76890  Biso   1.000  H
  H52      1.0000 0.74730  0.61630  0.76890  Biso   1.000  H
  H53      1.0000 0.75270  0.61630  0.26890  Biso   1.000  H
  H54      1.0000 0.74730  0.38370  0.26890  Biso   1.000  H
  H55      1.0000 0.24730  0.61630  0.23110  Biso   1.000  H
  H56      1.0000 0.25270  0.38370  0.23110  Biso   1.000  H
  C65      1.0000 0.36995  0.49930  0.62270  Biso   1.000  C
  C66      1.0000 0.13005  0.50070  0.62270  Biso   1.000  C
  C67      1.0000 0.63005  0.49930  0.87730  Biso   1.000  C
  C68      1.0000 0.86995  0.50070  0.87730  Biso   1.000  C
  C69      1.0000 0.63005  0.50070  0.37730  Biso   1.000  C
  C70      1.0000 0.86995  0.49930  0.37730  Biso   1.000  C
  C71      1.0000 0.36995  0.50070  0.12270  Biso   1.000  C
  C72      1.0000 0.13005  0.49930  0.12270  Biso   1.000  C
  C73      1.0000 0.41480  0.53190  0.54170  Biso   1.000  C
  C74      1.0000 0.08520  0.46810  0.54170  Biso   1.000  C
  C75      1.0000 0.58520  0.53190  0.95830  Biso   1.000  C
  C76      1.0000 0.91480  0.46810  0.95830  Biso   1.000  C
  C77      1.0000 0.58520  0.46810  0.45830  Biso   1.000  C
  C78      1.0000 0.91480  0.53190  0.45830  Biso   1.000  C
  C79      1.0000 0.41480  0.46810  0.04170  Biso   1.000  C
  C80      1.0000 0.08520  0.53190  0.04170  Biso   1.000  C
  H57      1.0000 0.40110  0.56810  0.51720  Biso   1.000  H
  H58      1.0000 0.09890  0.43190  0.51720  Biso   1.000  H
  H59      1.0000 0.59890  0.56810  0.98280  Biso   1.000  H
  H60      1.0000 0.90110  0.43190  0.98280  Biso   1.000  H
  H61      1.0000 0.59890  0.43190  0.48280  Biso   1.000  H
  H62      1.0000 0.90110  0.56810  0.48280  Biso   1.000  H
  H63      1.0000 0.40110  0.43190  0.01720  Biso   1.000  H
  H64      1.0000 0.09890  0.56810  0.01720  Biso   1.000  H
  H65      1.0000 0.42580  0.51400  0.44200  Biso   1.000  H
  H66      1.0000 0.07420  0.48600  0.44200  Biso   1.000  H
  H67      1.0000 0.57420  0.51400  0.05800  Biso   1.000  H
  H68      1.0000 0.92580  0.48600  0.05800  Biso   1.000  H
  H69      1.0000 0.57420  0.48600  0.55800  Biso   1.000  H
  H70      1.0000 0.92580  0.51400  0.55800  Biso   1.000  H
  H71      1.0000 0.42580  0.48600  0.94200  Biso   1.000  H
  H72      1.0000 0.07420  0.51400  0.94200  Biso   1.000  H
  H73      1.0000 0.44640  0.53470  0.61360  Biso   1.000  H
  H74      1.0000 0.05360  0.46530  0.61360  Biso   1.000  H
  H75      1.0000 0.55360  0.53470  0.88640  Biso   1.000  H
  H76      1.0000 0.94640  0.46530  0.88640  Biso   1.000  H
  H77      1.0000 0.55360  0.46530  0.38640  Biso   1.000  H
  H78      1.0000 0.94640  0.53470  0.38640  Biso   1.000  H
  H79      1.0000 0.44640  0.46530  0.11360  Biso   1.000  H
  H80      1.0000 0.05360  0.53470  0.11360  Biso   1.000  H
  C81      1.0000 0.25000  0.50000  0.86780  Biso   1.000  C
  C82      1.0000 0.75000  0.50000  0.63220  Biso   1.000  C
  C83      1.0000 0.75000  0.50000  0.13220  Biso   1.000  C
  C84      1.0000 0.25000  0.50000  0.36780  Biso   1.000  C
  H81      1.0000 0.23980  0.46940  0.93780  Biso   1.000  H
  H82      1.0000 0.26020  0.53060  0.93780  Biso   1.000  H
  H83      1.0000 0.76020  0.46940  0.56220  Biso   1.000  H
  H84      1.0000 0.73980  0.53060  0.56220  Biso   1.000  H
  H85      1.0000 0.76020  0.53060  0.06220  Biso   1.000  H
  H86      1.0000 0.73980  0.46940  0.06220  Biso   1.000  H
  H87      1.0000 0.23980  0.53060  0.43780  Biso   1.000  H
  H88      1.0000 0.26020  0.46940  0.43780  Biso   1.000  H
  C85      1.0000 0.38940  0.11620  0.49160  Biso   1.000  C
  C86      1.0000 0.11060  0.88380  0.49160  Biso   1.000  C
  C87      1.0000 0.61060  0.11620  0.00840  Biso   1.000  C
  C88      1.0000 0.88940  0.88380  0.00840  Biso   1.000  C
  C89      1.0000 0.61060  0.88380  0.50840  Biso   1.000  C
  C90      1.0000 0.88940  0.11620  0.50840  Biso   1.000  C
  C91      1.0000 0.38940  0.88380  0.99160  Biso   1.000  C
  C92      1.0000 0.11060  0.11620  0.99160  Biso   1.000  C
  C93      1.0000 0.39890  0.12000  0.32290  Biso   1.000  C
  C94      1.0000 0.10110  0.88000  0.32290  Biso   1.000  C
  C95      1.0000 0.60110  0.12000  0.17710  Biso   1.000  C
  C96      1.0000 0.89890  0.88000  0.17710  Biso   1.000  C
  C97      1.0000 0.60110  0.88000  0.67710  Biso   1.000  C
  C98      1.0000 0.89890  0.12000  0.67710  Biso   1.000  C
  C99      1.0000 0.39890  0.88000  0.82290  Biso   1.000  C
  C100     1.0000 0.10110  0.12000  0.82290  Biso   1.000  C
  H89      1.0000 0.38420  0.09340  0.25320  Biso   1.000  H
  H90      1.0000 0.11580  0.90660  0.25320  Biso   1.000  H
  H91      1.0000 0.61580  0.09340  0.24680  Biso   1.000  H
  H92      1.0000 0.88420  0.90660  0.24680  Biso   1.000  H
  H93      1.0000 0.61580  0.90660  0.74680  Biso   1.000  H
  H94      1.0000 0.88420  0.09340  0.74680  Biso   1.000  H
  H95      1.0000 0.38420  0.90660  0.75320  Biso   1.000  H
  H96      1.0000 0.11580  0.09340  0.75320  Biso   1.000  H
  C101     1.0000 0.42970  0.16220  0.25940  Biso   1.000  C
  C102     1.0000 0.07030  0.83780  0.25940  Biso   1.000  C
  C103     1.0000 0.57030  0.16220  0.24060  Biso   1.000  C
  C104     1.0000 0.92970  0.83780  0.24060  Biso   1.000  C
  C105     1.0000 0.57030  0.83780  0.74060  Biso   1.000  C
  C106     1.0000 0.92970  0.16220  0.74060  Biso   1.000  C
  C107     1.0000 0.42970  0.83780  0.75940  Biso   1.000  C
  C108     1.0000 0.07030  0.16220  0.75940  Biso   1.000  C
  H97      1.0000 0.43530  0.16360  0.14680  Biso   1.000  H
  H98      1.0000 0.06470  0.83640  0.14680  Biso   1.000  H
  H99      1.0000 0.56470  0.16360  0.35320  Biso   1.000  H
  H100     1.0000 0.93530  0.83640  0.35320  Biso   1.000  H
  H101     1.0000 0.56470  0.83640  0.85320  Biso   1.000  H
  H102     1.0000 0.93530  0.16360  0.85320  Biso   1.000  H
  H103     1.0000 0.43530  0.83640  0.64680  Biso   1.000  H
  H104     1.0000 0.06470  0.16360  0.64680  Biso   1.000  H
  C109     1.0000 0.44290  0.19920  0.51590  Biso   1.000  C
  C110     1.0000 0.05710  0.80080  0.51590  Biso   1.000  C
  C111     1.0000 0.55710  0.19920  0.98410  Biso   1.000  C
  C112     1.0000 0.94290  0.80080  0.98410  Biso   1.000  C
  C113     1.0000 0.55710  0.80080  0.48410  Biso   1.000  C
  C114     1.0000 0.94290  0.19920  0.48410  Biso   1.000  C
  C115     1.0000 0.44290  0.80080  0.01590  Biso   1.000  C
  C116     1.0000 0.05710  0.19920  0.01590  Biso   1.000  C
  H105     1.0000 0.45780  0.22660  0.58220  Biso   1.000  H
  H106     1.0000 0.04220  0.77340  0.58220  Biso   1.000  H
  H107     1.0000 0.54220  0.22660  0.91780  Biso   1.000  H
  H108     1.0000 0.95780  0.77340  0.91780  Biso   1.000  H
  H109     1.0000 0.54220  0.77340  0.41780  Biso   1.000  H
  H110     1.0000 0.95780  0.22660  0.41780  Biso   1.000  H
  H111     1.0000 0.45780  0.77340  0.08220  Biso   1.000  H
  H112     1.0000 0.04220  0.22660  0.08220  Biso   1.000  H
  C117     1.0000 0.41200  0.15770  0.58810  Biso   1.000  C
  C118     1.0000 0.08800  0.84230  0.58810  Biso   1.000  C
  C119     1.0000 0.58800  0.15770  0.91190  Biso   1.000  C
  C120     1.0000 0.91200  0.84230  0.91190  Biso   1.000  C
  C121     1.0000 0.58800  0.84230  0.41190  Biso   1.000  C
  C122     1.0000 0.91200  0.15770  0.41190  Biso   1.000  C
  C123     1.0000 0.41200  0.84230  0.08810  Biso   1.000  C
  C124     1.0000 0.08800  0.15770  0.08810  Biso   1.000  C
  H113     1.0000 0.40650  0.15750  0.70090  Biso   1.000  H
  H114     1.0000 0.09350  0.84250  0.70090  Biso   1.000  H
  H115     1.0000 0.59350  0.15750  0.79910  Biso   1.000  H
  H116     1.0000 0.90650  0.84250  0.79910  Biso   1.000  H
  H117     1.0000 0.59350  0.84250  0.29910  Biso   1.000  H
  H118     1.0000 0.90650  0.15750  0.29910  Biso   1.000  H
  H119     1.0000 0.40650  0.84250  0.20090  Biso   1.000  H
  H120     1.0000 0.09350  0.15750  0.20090  Biso   1.000  H
  C125     1.0000 0.35670  0.07030  0.55950  Biso   1.000  C
  C126     1.0000 0.14330  0.92970  0.55950  Biso   1.000  C
  C127     1.0000 0.64330  0.07030  0.94050  Biso   1.000  C
  C128     1.0000 0.85670  0.92970  0.94050  Biso   1.000  C
  C129     1.0000 0.64330  0.92970  0.44050  Biso   1.000  C
  C130     1.0000 0.85670  0.07030  0.44050  Biso   1.000  C
  C131     1.0000 0.35670  0.92970  0.05950  Biso   1.000  C
  C132     1.0000 0.14330  0.07030  0.05950  Biso   1.000  C
  C133     1.0000 0.36677  0.01390  0.53450  Biso   1.000  C
  C134     1.0000 0.13323  0.98610  0.53450  Biso   1.000  C
  C135     1.0000 0.63323  0.01390  0.96550  Biso   1.000  C
  C136     1.0000 0.86677  0.98610  0.96550  Biso   1.000  C
  C137     1.0000 0.63323  0.98610  0.46550  Biso   1.000  C
  C138     1.0000 0.86677  0.01390  0.46550  Biso   1.000  C
  C139     1.0000 0.36677  0.98610  0.03450  Biso   1.000  C
  C140     1.0000 0.13323  0.01390  0.03450  Biso   1.000  C
  C141     1.0000 0.41430  0.98630  0.44900  Biso   1.000  C
  C142     1.0000 0.08570  0.01370  0.44900  Biso   1.000  C
  C143     1.0000 0.58570  0.98630  0.05100  Biso   1.000  C
  C144     1.0000 0.91430  0.01370  0.05100  Biso   1.000  C
  C145     1.0000 0.58570  0.01370  0.55100  Biso   1.000  C
  C146     1.0000 0.91430  0.98630  0.55100  Biso   1.000  C
  C147     1.0000 0.41430  0.01370  0.94900  Biso   1.000  C
  C148     1.0000 0.08570  0.98630  0.94900  Biso   1.000  C
  H121     1.0000 0.43690  0.01350  0.39530  Biso   1.000  H
  H122     1.0000 0.06310  0.98650  0.39530  Biso   1.000  H
  H123     1.0000 0.56310  0.01350  0.10470  Biso   1.000  H
  H124     1.0000 0.93690  0.98650  0.10470  Biso   1.000  H
  H125     1.0000 0.56310  0.98650  0.60470  Biso   1.000  H
  H126     1.0000 0.93690  0.01350  0.60470  Biso   1.000  H
  H127     1.0000 0.43690  0.98650  0.89530  Biso   1.000  H
  H128     1.0000 0.06310  0.01350  0.89530  Biso   1.000  H
  H129     1.0000 0.40010  0.96100  0.36930  Biso   1.000  H
  H130     1.0000 0.09990  0.03900  0.36930  Biso   1.000  H
  H131     1.0000 0.59990  0.96100  0.13070  Biso   1.000  H
  H132     1.0000 0.90010  0.03900  0.13070  Biso   1.000  H
  H133     1.0000 0.59990  0.03900  0.63070  Biso   1.000  H
  H134     1.0000 0.90010  0.96100  0.63070  Biso   1.000  H
  H135     1.0000 0.40010  0.03900  0.86930  Biso   1.000  H
  H136     1.0000 0.09990  0.96100  0.86930  Biso   1.000  H
  H137     1.0000 0.43660  0.96680  0.52760  Biso   1.000  H
  H138     1.0000 0.06340  0.03320  0.52760  Biso   1.000  H
  H139     1.0000 0.56340  0.96680  0.97240  Biso   1.000  H
  H140     1.0000 0.93660  0.03320  0.97240  Biso   1.000  H
  H141     1.0000 0.56340  0.03320  0.47240  Biso   1.000  H
  H142     1.0000 0.93660  0.96680  0.47240  Biso   1.000  H
  H143     1.0000 0.43660  0.03320  0.02760  Biso   1.000  H
  H144     1.0000 0.06340  0.96680  0.02760  Biso   1.000  H
  C149     1.0000 0.31050  0.07330  0.66120  Biso   1.000  C
  C150     1.0000 0.18950  0.92670  0.66120  Biso   1.000  C
  C151     1.0000 0.68950  0.07330  0.83880  Biso   1.000  C
  C152     1.0000 0.81050  0.92670  0.83880  Biso   1.000  C
  C153     1.0000 0.68950  0.92670  0.33880  Biso   1.000  C
  C154     1.0000 0.81050  0.07330  0.33880  Biso   1.000  C
  C155     1.0000 0.31050  0.92670  0.16120  Biso   1.000  C
  C156     1.0000 0.18950  0.07330  0.16120  Biso   1.000  C
  C157     1.0000 0.28030  0.12080  0.73000  Biso   1.000  C
  C158     1.0000 0.21970  0.87920  0.73000  Biso   1.000  C
  C159     1.0000 0.71970  0.12080  0.77000  Biso   1.000  C
  C160     1.0000 0.78030  0.87920  0.77000  Biso   1.000  C
  C161     1.0000 0.71970  0.87920  0.27000  Biso   1.000  C
  C162     1.0000 0.78030  0.12080  0.27000  Biso   1.000  C
  C163     1.0000 0.28030  0.87920  0.23000  Biso   1.000  C
  C164     1.0000 0.21970  0.12080  0.23000  Biso   1.000  C
  H145     1.0000 0.29190  0.12650  0.84130  Biso   1.000  H
  H146     1.0000 0.20810  0.87350  0.84130  Biso   1.000  H
  H147     1.0000 0.70810  0.12650  0.65870  Biso   1.000  H
  H148     1.0000 0.79190  0.87350  0.65870  Biso   1.000  H
  H149     1.0000 0.70810  0.87350  0.15870  Biso   1.000  H
  H150     1.0000 0.79190  0.12650  0.15870  Biso   1.000  H
  H151     1.0000 0.29190  0.87350  0.34130  Biso   1.000  H
  H152     1.0000 0.20810  0.12650  0.34130  Biso   1.000  H
  H153     1.0000 0.24090  0.11370  0.72690  Biso   1.000  H
  H154     1.0000 0.25910  0.88630  0.72690  Biso   1.000  H
  H155     1.0000 0.75910  0.11370  0.77310  Biso   1.000  H
  H156     1.0000 0.74090  0.88630  0.77310  Biso   1.000  H
  H157     1.0000 0.75910  0.88630  0.27310  Biso   1.000  H
  H158     1.0000 0.74090  0.11370  0.27310  Biso   1.000  H
  H159     1.0000 0.24090  0.88630  0.22690  Biso   1.000  H
  H160     1.0000 0.25910  0.11370  0.22690  Biso   1.000  H
  H161     1.0000 0.28860  0.15300  0.66640  Biso   1.000  H
  H162     1.0000 0.21140  0.84700  0.66640  Biso   1.000  H
  H163     1.0000 0.71140  0.15300  0.83360  Biso   1.000  H
  H164     1.0000 0.78860  0.84700  0.83360  Biso   1.000  H
  H165     1.0000 0.71140  0.84700  0.33360  Biso   1.000  H
  H166     1.0000 0.78860  0.15300  0.33360  Biso   1.000  H
  H167     1.0000 0.28860  0.84700  0.16640  Biso   1.000  H
  H168     1.0000 0.21140  0.15300  0.16640  Biso   1.000  H
  C165     1.0000 0.25000  0.00000  0.79020  Biso   1.000  C
  C166     1.0000 0.75000  0.00000  0.70980  Biso   1.000  C
  C167     1.0000 0.75000  0.00000  0.20980  Biso   1.000  C
  C168     1.0000 0.25000  0.00000  0.29020  Biso   1.000  C
  H169     1.0000 0.26340  0.97060  0.86010  Biso   1.000  H
  H170     1.0000 0.23660  0.02940  0.86010  Biso   1.000  H
  H171     1.0000 0.73660  0.97060  0.63990  Biso   1.000  H
  H172     1.0000 0.76340  0.02940  0.63990  Biso   1.000  H
  H173     1.0000 0.73660  0.02940  0.13990  Biso   1.000  H
  H174     1.0000 0.76340  0.97060  0.13990  Biso   1.000  H
  H175     1.0000 0.26340  0.02940  0.36010  Biso   1.000  H
  H176     1.0000 0.23660  0.97060  0.36010  Biso   1.000  H
  O1       1.0000 0.76450  0.25090  0.61500  Biso   1.000  O
  O2       1.0000 0.73550  0.74910  0.61500  Biso   1.000  O
  O3       1.0000 0.23550  0.25090  0.88500  Biso   1.000  O
  O4       1.0000 0.26450  0.74910  0.88500  Biso   1.000  O
  O5       1.0000 0.23550  0.74910  0.38500  Biso   1.000  O
  O6       1.0000 0.26450  0.25090  0.38500  Biso   1.000  O
  O7       1.0000 0.76450  0.74910  0.11500  Biso   1.000  O
  O8       1.0000 0.73550  0.25090  0.11500  Biso   1.000  O
  H177     1.0000 0.78800  0.24690  0.69900  Biso   1.000  H
  H178     1.0000 0.71200  0.75310  0.69900  Biso   1.000  H
  H179     1.0000 0.21200  0.24690  0.80100  Biso   1.000  H
  H180     1.0000 0.28800  0.75310  0.80100  Biso   1.000  H
  H181     1.0000 0.21200  0.75310  0.30100  Biso   1.000  H
  H182     1.0000 0.28800  0.24690  0.30100  Biso   1.000  H
  H183     1.0000 0.78800  0.75310  0.19900  Biso   1.000  H
  H184     1.0000 0.71200  0.24690  0.19900  Biso   1.000  H
  H185     1.0000 0.79220  0.25240  0.51840  Biso   1.000  H
  H186     1.0000 0.70780  0.74760  0.51840  Biso   1.000  H
  H187     1.0000 0.20780  0.25240  0.98160  Biso   1.000  H
  H188     1.0000 0.29220  0.74760  0.98160  Biso   1.000  H
  H189     1.0000 0.20780  0.74760  0.48160  Biso   1.000  H
  H190     1.0000 0.29220  0.25240  0.48160  Biso   1.000  H
  H191     1.0000 0.79220  0.74760  0.01840  Biso   1.000  H
  H192     1.0000 0.70780  0.25240  0.01840  Biso   1.000  H
  N49      1.0000 0.60070  0.26700  0.57090  Biso   1.000  N
  N50      1.0000 0.89930  0.73300  0.57090  Biso   1.000  N
  N51      1.0000 0.39930  0.26700  0.92910  Biso   1.000  N
  N52      1.0000 0.10070  0.73300  0.92910  Biso   1.000  N
  N53      1.0000 0.39930  0.73300  0.42910  Biso   1.000  N
  N54      1.0000 0.10070  0.26700  0.42910  Biso   1.000  N
  N55      1.0000 0.60070  0.73300  0.07090  Biso   1.000  N
  N56      1.0000 0.89930  0.26700  0.07090  Biso   1.000  N
  O9       1.0000 0.55840  0.25160  0.51250  Biso   1.000  O
  O10      1.0000 0.94160  0.74840  0.51250  Biso   1.000  O
  O11      1.0000 0.44160  0.25160  0.98750  Biso   1.000  O
  O12      1.0000 0.05840  0.74840  0.98750  Biso   1.000  O
  O13      1.0000 0.44160  0.74840  0.48750  Biso   1.000  O
  O14      1.0000 0.05840  0.25160  0.48750  Biso   1.000  O
  O15      1.0000 0.55840  0.74840  0.01250  Biso   1.000  O
  O16      1.0000 0.94160  0.25160  0.01250  Biso   1.000  O
  O17      1.0000 0.63450  0.24190  0.64880  Biso   1.000  O
  O18      1.0000 0.86550  0.75810  0.64880  Biso   1.000  O
  O19      1.0000 0.36550  0.24190  0.85120  Biso   1.000  O
  O20      1.0000 0.13450  0.75810  0.85120  Biso   1.000  O
  O21      1.0000 0.36550  0.75810  0.35120  Biso   1.000  O
  O22      1.0000 0.13450  0.24190  0.35120  Biso   1.000  O
  O23      1.0000 0.63450  0.75810  0.14880  Biso   1.000  O
  O24      1.0000 0.86550  0.24190  0.14880  Biso   1.000  O
  O25      1.0000 0.61220  0.31730  0.54800  Biso   1.000  O
  O26      1.0000 0.88780  0.68270  0.54800  Biso   1.000  O
  O27      1.0000 0.38780  0.31730  0.95200  Biso   1.000  O
  O28      1.0000 0.11220  0.68270  0.95200  Biso   1.000  O
  O29      1.0000 0.38780  0.68270  0.45200  Biso   1.000  O
  O30      1.0000 0.11220  0.31730  0.45200  Biso   1.000  O
  O31      1.0000 0.61220  0.68270  0.04800  Biso   1.000  O
  O32      1.0000 0.88780  0.31730  0.04800  Biso   1.000  O
  O33      1.0000 0.64060  0.23530  0.53700  Biso   1.000  O
  O34      1.0000 0.85940  0.76470  0.53700  Biso   1.000  O
  O35      1.0000 0.35940  0.23530  0.96300  Biso   1.000  O
  O36      1.0000 0.14060  0.76470  0.96300  Biso   1.000  O
  O37      1.0000 0.35940  0.76470  0.46300  Biso   1.000  O
  O38      1.0000 0.14060  0.23530  0.46300  Biso   1.000  O
  O39      1.0000 0.64060  0.76470  0.03700  Biso   1.000  O
  O40      1.0000 0.85940  0.23530  0.03700  Biso   1.000  O
  O41      1.0000 0.60040  0.28950  0.70070  Biso   1.000  O
  O42      1.0000 0.89960  0.71050  0.70070  Biso   1.000  O
  O43      1.0000 0.39960  0.28950  0.79930  Biso   1.000  O
  O44      1.0000 0.10040  0.71050  0.79930  Biso   1.000  O
  O45      1.0000 0.39960  0.71050  0.29930  Biso   1.000  O
  O46      1.0000 0.10040  0.28950  0.29930  Biso   1.000  O
  O47      1.0000 0.60040  0.71050  0.20070  Biso   1.000  O
  O48      1.0000 0.89960  0.28950  0.20070  Biso   1.000  O
  O49      1.0000 0.56530  0.27150  0.46600  Biso   1.000  O
  O50      1.0000 0.93470  0.72850  0.46600  Biso   1.000  O
  O51      1.0000 0.43470  0.27150  0.03400  Biso   1.000  O
  O52      1.0000 0.06530  0.72850  0.03400  Biso   1.000  O
  O53      1.0000 0.43470  0.72850  0.53400  Biso   1.000  O
  O54      1.0000 0.06530  0.27150  0.53400  Biso   1.000  O
  O55      1.0000 0.56530  0.72850  0.96600  Biso   1.000  O
  O56      1.0000 0.93470  0.27150  0.96600  Biso   1.000  O
