data_image0
_cell_length_a       13.688
_cell_length_b       13.19
_cell_length_c       23.337
_cell_angle_alpha    90
_cell_angle_beta     96.326
_cell_angle_gamma    90

_symmetry_space_group_name_H-M    "P 1"
_symmetry_int_tables_number       1

loop_
  _symmetry_equiv_pos_as_xyz
  'x, y, z'

loop_
  _atom_site_label
  _atom_site_occupancy
  _atom_site_fract_x
  _atom_site_fract_y
  _atom_site_fract_z
  _atom_site_thermal_displace_type
  _atom_site_B_iso_or_equiv
  _atom_site_type_symbol
  Cu1      1.0000 0.76152  0.15669  0.77083  Biso   1.000  Cu
  Cu2      1.0000 0.73848  0.65669  0.72917  Biso   1.000  Cu
  Cu3      1.0000 0.23848  0.84331  0.22917  Biso   1.000  Cu
  Cu4      1.0000 0.26152  0.34331  0.27083  Biso   1.000  Cu
  S1       1.0000 0.68380  0.90128  0.63561  Biso   1.000  S
  S2       1.0000 0.81620  0.40128  0.86439  Biso   1.000  S
  S3       1.0000 0.31620  0.09872  0.36439  Biso   1.000  S
  S4       1.0000 0.18380  0.59872  0.13561  Biso   1.000  S
  N1       1.0000 0.82800  0.20340  0.70230  Biso   1.000  N
  N2       1.0000 0.67200  0.70340  0.79770  Biso   1.000  N
  N3       1.0000 0.17200  0.79660  0.29770  Biso   1.000  N
  N4       1.0000 0.32800  0.29660  0.20230  Biso   1.000  N
  N5       1.0000 0.91370  0.19590  0.62830  Biso   1.000  N
  N6       1.0000 0.58630  0.69590  0.87170  Biso   1.000  N
  N7       1.0000 0.08630  0.80410  0.37170  Biso   1.000  N
  N8       1.0000 0.41370  0.30410  0.12830  Biso   1.000  N
  N9       1.0000 0.80040  0.63630  0.65630  Biso   1.000  N
  N10      1.0000 0.69960  0.13630  0.84370  Biso   1.000  N
  N11      1.0000 0.19960  0.36370  0.34370  Biso   1.000  N
  N12      1.0000 0.30040  0.86370  0.15630  Biso   1.000  N
  N13      1.0000 0.89220  0.66700  0.58560  Biso   1.000  N
  N14      1.0000 0.60780  0.16700  0.91440  Biso   1.000  N
  N15      1.0000 0.10780  0.33300  0.41440  Biso   1.000  N
  N16      1.0000 0.39220  0.83300  0.08560  Biso   1.000  N
  N17      1.0000 0.63050  0.20550  0.73400  Biso   1.000  N
  N18      1.0000 0.86950  0.70550  0.76600  Biso   1.000  N
  N19      1.0000 0.36950  0.79450  0.26600  Biso   1.000  N
  N20      1.0000 0.13050  0.29450  0.23400  Biso   1.000  N
  N21      1.0000 0.47630  0.19830  0.69420  Biso   1.000  N
  N22      1.0000 0.02370  0.69830  0.80580  Biso   1.000  N
  N23      1.0000 0.52370  0.80170  0.30580  Biso   1.000  N
  N24      1.0000 0.97630  0.30170  0.19420  Biso   1.000  N
  N25      1.0000 0.60240  0.63510  0.68810  Biso   1.000  N
  N26      1.0000 0.89760  0.13510  0.81190  Biso   1.000  N
  N27      1.0000 0.39760  0.36490  0.31190  Biso   1.000  N
  N28      1.0000 0.10240  0.86490  0.18810  Biso   1.000  N
  N29      1.0000 0.44790  0.66690  0.65880  Biso   1.000  N
  N30      1.0000 0.05210  0.16690  0.84120  Biso   1.000  N
  N31      1.0000 0.55210  0.33310  0.34120  Biso   1.000  N
  N32      1.0000 0.94790  0.83310  0.15880  Biso   1.000  N
  N33      1.0000 0.74200  0.00170  0.73880  Biso   1.000  N
  N34      1.0000 0.75800  0.50170  0.76120  Biso   1.000  N
  N35      1.0000 0.25800  0.99830  0.26120  Biso   1.000  N
  N36      1.0000 0.24200  0.49830  0.23880  Biso   1.000  N
  C1       1.0000 0.86090  0.14500  0.66370  Biso   1.000  C
  C2       1.0000 0.63910  0.64500  0.83630  Biso   1.000  C
  C3       1.0000 0.13910  0.85500  0.33630  Biso   1.000  C
  C4       1.0000 0.36090  0.35500  0.16370  Biso   1.000  C
  C5       1.0000 0.91380  0.29550  0.64410  Biso   1.000  C
  C6       1.0000 0.58620  0.79550  0.85590  Biso   1.000  C
  C7       1.0000 0.08620  0.70450  0.35590  Biso   1.000  C
  C8       1.0000 0.41380  0.20450  0.14410  Biso   1.000  C
  C9       1.0000 0.86210  0.29880  0.69150  Biso   1.000  C
  C10      1.0000 0.63790  0.79880  0.80850  Biso   1.000  C
  C11      1.0000 0.13790  0.70120  0.30850  Biso   1.000  C
  C12      1.0000 0.36210  0.20120  0.19150  Biso   1.000  C
  C13      1.0000 0.95890  0.15720  0.57770  Biso   1.000  C
  C14      1.0000 0.54110  0.65720  0.92230  Biso   1.000  C
  C15      1.0000 0.04110  0.84280  0.42230  Biso   1.000  C
  C16      1.0000 0.45890  0.34280  0.07770  Biso   1.000  C
  C17      1.0000 0.95570  0.04070  0.57390  Biso   1.000  C
  C18      1.0000 0.54430  0.54070  0.92610  Biso   1.000  C
  C19      1.0000 0.04430  0.95930  0.42610  Biso   1.000  C
  C20      1.0000 0.45570  0.45930  0.07390  Biso   1.000  C
  C21      1.0000 0.02570  0.98360  0.60690  Biso   1.000  C
  C22      1.0000 0.47430  0.48360  0.89310  Biso   1.000  C
  C23      1.0000 0.97430  0.01640  0.39310  Biso   1.000  C
  C24      1.0000 0.52570  0.51640  0.10690  Biso   1.000  C
  C25      1.0000 0.02630  0.87810  0.60070  Biso   1.000  C
  C26      1.0000 0.47370  0.37810  0.89930  Biso   1.000  C
  C27      1.0000 0.97370  0.12190  0.39930  Biso   1.000  C
  C28      1.0000 0.52630  0.62190  0.10070  Biso   1.000  C
  C29      1.0000 0.95600  0.83350  0.55960  Biso   1.000  C
  C30      1.0000 0.54400  0.33350  0.94040  Biso   1.000  C
  C31      1.0000 0.04400  0.16650  0.44040  Biso   1.000  C
  C32      1.0000 0.45600  0.66650  0.05960  Biso   1.000  C
  C33      1.0000 0.88000  0.89110  0.52940  Biso   1.000  C
  C34      1.0000 0.62000  0.39110  0.97060  Biso   1.000  C
  C35      1.0000 0.12000  0.10890  0.47060  Biso   1.000  C
  C36      1.0000 0.38000  0.60890  0.02940  Biso   1.000  C
  C37      1.0000 0.88180  0.99630  0.53690  Biso   1.000  C
  C38      1.0000 0.61820  0.49630  0.96310  Biso   1.000  C
  C39      1.0000 0.11820  0.00370  0.46310  Biso   1.000  C
  C40      1.0000 0.38180  0.50370  0.03690  Biso   1.000  C
  C41      1.0000 0.09870  0.03220  0.65140  Biso   1.000  C
  C42      1.0000 0.40130  0.53220  0.84860  Biso   1.000  C
  C43      1.0000 0.90130  0.96780  0.34860  Biso   1.000  C
  C44      1.0000 0.59870  0.46780  0.15140  Biso   1.000  C
  C45      1.0000 0.10010  0.81310  0.63560  Biso   1.000  C
  C46      1.0000 0.39990  0.31310  0.86440  Biso   1.000  C
  C47      1.0000 0.89990  0.18690  0.36440  Biso   1.000  C
  C48      1.0000 0.60010  0.68690  0.13560  Biso   1.000  C
  C49      1.0000 0.79930  0.84250  0.49070  Biso   1.000  C
  C50      1.0000 0.70070  0.34250  0.00930  Biso   1.000  C
  C51      1.0000 0.20070  0.15750  0.50930  Biso   1.000  C
  C52      1.0000 0.29930  0.65750  0.99070  Biso   1.000  C
  C53      1.0000 0.79900  0.05770  0.50630  Biso   1.000  C
  C54      1.0000 0.70100  0.55770  0.99370  Biso   1.000  C
  C55      1.0000 0.20100  0.94230  0.49370  Biso   1.000  C
  C56      1.0000 0.29900  0.44230  0.00630  Biso   1.000  C
  C57      1.0000 0.95610  0.71900  0.54990  Biso   1.000  C
  C58      1.0000 0.54390  0.21900  0.95010  Biso   1.000  C
  C59      1.0000 0.04390  0.28100  0.45010  Biso   1.000  C
  C60      1.0000 0.45610  0.78100  0.04990  Biso   1.000  C
  C61      1.0000 0.85350  0.70490  0.63160  Biso   1.000  C
  C62      1.0000 0.64650  0.20490  0.86840  Biso   1.000  C
  C63      1.0000 0.14650  0.29510  0.36840  Biso   1.000  C
  C64      1.0000 0.35350  0.79510  0.13160  Biso   1.000  C
  C65      1.0000 0.86260  0.56730  0.57980  Biso   1.000  C
  C66      1.0000 0.63740  0.06730  0.92020  Biso   1.000  C
  C67      1.0000 0.13740  0.43270  0.42020  Biso   1.000  C
  C68      1.0000 0.36260  0.93270  0.07980  Biso   1.000  C
  C69      1.0000 0.80580  0.54930  0.62390  Biso   1.000  C
  C70      1.0000 0.69420  0.04930  0.87610  Biso   1.000  C
  C71      1.0000 0.19420  0.45070  0.37610  Biso   1.000  C
  C72      1.0000 0.30580  0.95070  0.12390  Biso   1.000  C
  C73      1.0000 0.55830  0.14680  0.71310  Biso   1.000  C
  C74      1.0000 0.94170  0.64680  0.78690  Biso   1.000  C
  C75      1.0000 0.44170  0.85320  0.28690  Biso   1.000  C
  C76      1.0000 0.05830  0.35320  0.21310  Biso   1.000  C
  C77      1.0000 0.49730  0.30120  0.70560  Biso   1.000  C
  C78      1.0000 0.00270  0.80120  0.79440  Biso   1.000  C
  C79      1.0000 0.50270  0.69880  0.29440  Biso   1.000  C
  C80      1.0000 0.99730  0.19880  0.20560  Biso   1.000  C
  C81      1.0000 0.59020  0.30230  0.72960  Biso   1.000  C
  C82      1.0000 0.90980  0.80230  0.77040  Biso   1.000  C
  C83      1.0000 0.40980  0.69770  0.27040  Biso   1.000  C
  C84      1.0000 0.09020  0.19770  0.22960  Biso   1.000  C
  C85      1.0000 0.38100  0.15830  0.66760  Biso   1.000  C
  C86      1.0000 0.11900  0.65830  0.83240  Biso   1.000  C
  C87      1.0000 0.61900  0.84170  0.33240  Biso   1.000  C
  C88      1.0000 0.88100  0.34170  0.16760  Biso   1.000  C
  C89      1.0000 0.38220  0.04580  0.66450  Biso   1.000  C
  C90      1.0000 0.11780  0.54580  0.83550  Biso   1.000  C
  C91      1.0000 0.61780  0.95420  0.33550  Biso   1.000  C
  C92      1.0000 0.88220  0.45420  0.16450  Biso   1.000  C
  C93      1.0000 0.41140  0.99680  0.61500  Biso   1.000  C
  C94      1.0000 0.08860  0.49680  0.88500  Biso   1.000  C
  C95      1.0000 0.58860  0.00320  0.38500  Biso   1.000  C
  C96      1.0000 0.91140  0.50320  0.11500  Biso   1.000  C
  C97      1.0000 0.40210  0.89180  0.60960  Biso   1.000  C
  C98      1.0000 0.09790  0.39180  0.89040  Biso   1.000  C
  C99      1.0000 0.59790  0.10820  0.39040  Biso   1.000  C
  C100     1.0000 0.90210  0.60820  0.10960  Biso   1.000  C
  C101     1.0000 0.36760  0.83510  0.65470  Biso   1.000  C
  C102     1.0000 0.13240  0.33510  0.84530  Biso   1.000  C
  C103     1.0000 0.63240  0.16490  0.34530  Biso   1.000  C
  C104     1.0000 0.86760  0.66490  0.15470  Biso   1.000  C
  C105     1.0000 0.34830  0.88110  0.70710  Biso   1.000  C
  C106     1.0000 0.15170  0.38110  0.79290  Biso   1.000  C
  C107     1.0000 0.65170  0.11890  0.29290  Biso   1.000  C
  C108     1.0000 0.84830  0.61890  0.20710  Biso   1.000  C
  C109     1.0000 0.35300  0.98700  0.71060  Biso   1.000  C
  C110     1.0000 0.14700  0.48700  0.78940  Biso   1.000  C
  C111     1.0000 0.64700  0.01300  0.28940  Biso   1.000  C
  C112     1.0000 0.85300  0.51300  0.21060  Biso   1.000  C
  C113     1.0000 0.45500  0.05580  0.56900  Biso   1.000  C
  C114     1.0000 0.04500  0.55580  0.93100  Biso   1.000  C
  C115     1.0000 0.54500  0.94420  0.43100  Biso   1.000  C
  C116     1.0000 0.95500  0.44420  0.06900  Biso   1.000  C
  C117     1.0000 0.43200  0.84050  0.55660  Biso   1.000  C
  C118     1.0000 0.06800  0.34050  0.94340  Biso   1.000  C
  C119     1.0000 0.56800  0.15950  0.44340  Biso   1.000  C
  C120     1.0000 0.93200  0.65950  0.05660  Biso   1.000  C
  C121     1.0000 0.32200  0.81930  0.75590  Biso   1.000  C
  C122     1.0000 0.17800  0.31930  0.74410  Biso   1.000  C
  C123     1.0000 0.67800  0.18070  0.24410  Biso   1.000  C
  C124     1.0000 0.82200  0.68070  0.25590  Biso   1.000  C
  C125     1.0000 0.32820  0.04010  0.76530  Biso   1.000  C
  C126     1.0000 0.17180  0.54010  0.73470  Biso   1.000  C
  C127     1.0000 0.67180  0.95990  0.23470  Biso   1.000  C
  C128     1.0000 0.82820  0.45990  0.26530  Biso   1.000  C
  C129     1.0000 0.35540  0.72300  0.64720  Biso   1.000  C
  C130     1.0000 0.14460  0.22300  0.85280  Biso   1.000  C
  C131     1.0000 0.64460  0.27700  0.35280  Biso   1.000  C
  C132     1.0000 0.85540  0.77700  0.14720  Biso   1.000  C
  C133     1.0000 0.53200  0.70480  0.68320  Biso   1.000  C
  C134     1.0000 0.96800  0.20480  0.81680  Biso   1.000  C
  C135     1.0000 0.46800  0.29520  0.31680  Biso   1.000  C
  C136     1.0000 0.03200  0.79520  0.18320  Biso   1.000  C
  C137     1.0000 0.46520  0.56730  0.64760  Biso   1.000  C
  C138     1.0000 0.03480  0.06730  0.85240  Biso   1.000  C
  C139     1.0000 0.53480  0.43270  0.35240  Biso   1.000  C
  C140     1.0000 0.96520  0.93270  0.14760  Biso   1.000  C
  C141     1.0000 0.56070  0.55010  0.66520  Biso   1.000  C
  C142     1.0000 0.93930  0.05010  0.83480  Biso   1.000  C
  C143     1.0000 0.43930  0.44990  0.33480  Biso   1.000  C
  C144     1.0000 0.06070  0.94990  0.16520  Biso   1.000  C
  C145     1.0000 0.71740  0.95970  0.69720  Biso   1.000  C
  C146     1.0000 0.78260  0.45970  0.80280  Biso   1.000  C
  C147     1.0000 0.28260  0.04030  0.30280  Biso   1.000  C
  C148     1.0000 0.21740  0.54030  0.19720  Biso   1.000  C
  H1       1.0000 0.84880  0.07410  0.66100  Biso   1.000  H
  H2       1.0000 0.65120  0.57410  0.83900  Biso   1.000  H
  H3       1.0000 0.15120  0.92590  0.33900  Biso   1.000  H
  H4       1.0000 0.34880  0.42590  0.16100  Biso   1.000  H
  H5       1.0000 0.94330  0.35070  0.62630  Biso   1.000  H
  H6       1.0000 0.55670  0.85070  0.87370  Biso   1.000  H
  H7       1.0000 0.05670  0.64930  0.37370  Biso   1.000  H
  H8       1.0000 0.44330  0.14930  0.12630  Biso   1.000  H
  H9       1.0000 0.85150  0.35790  0.71330  Biso   1.000  H
  H10      1.0000 0.64850  0.85790  0.78670  Biso   1.000  H
  H11      1.0000 0.14850  0.64210  0.28670  Biso   1.000  H
  H12      1.0000 0.35150  0.14210  0.21330  Biso   1.000  H
  H13      1.0000 0.02820  0.18000  0.58030  Biso   1.000  H
  H14      1.0000 0.47180  0.68000  0.91970  Biso   1.000  H
  H15      1.0000 0.97180  0.82000  0.41970  Biso   1.000  H
  H16      1.0000 0.52820  0.32000  0.08030  Biso   1.000  H
  H17      1.0000 0.92380  0.18620  0.54210  Biso   1.000  H
  H18      1.0000 0.57620  0.68620  0.95790  Biso   1.000  H
  H19      1.0000 0.07620  0.81380  0.45790  Biso   1.000  H
  H20      1.0000 0.42380  0.31380  0.04210  Biso   1.000  H
  H21      1.0000 0.16550  0.01990  0.64150  Biso   1.000  H
  H22      1.0000 0.33450  0.51990  0.85850  Biso   1.000  H
  H23      1.0000 0.83450  0.98010  0.35850  Biso   1.000  H
  H24      1.0000 0.66550  0.48010  0.14150  Biso   1.000  H
  H25      1.0000 0.09170  0.00300  0.68940  Biso   1.000  H
  H26      1.0000 0.40830  0.50300  0.81060  Biso   1.000  H
  H27      1.0000 0.90830  0.99700  0.31060  Biso   1.000  H
  H28      1.0000 0.59170  0.49700  0.18940  Biso   1.000  H
  H29      1.0000 0.08650  0.10540  0.65230  Biso   1.000  H
  H30      1.0000 0.41350  0.60540  0.84770  Biso   1.000  H
  H31      1.0000 0.91350  0.89460  0.34770  Biso   1.000  H
  H32      1.0000 0.58650  0.39460  0.15230  Biso   1.000  H
  H33      1.0000 0.13990  0.77660  0.60980  Biso   1.000  H
  H34      1.0000 0.36010  0.27660  0.89020  Biso   1.000  H
  H35      1.0000 0.86010  0.22340  0.39020  Biso   1.000  H
  H36      1.0000 0.63990  0.72340  0.10980  Biso   1.000  H
  H37      1.0000 0.06590  0.76410  0.65790  Biso   1.000  H
  H38      1.0000 0.43410  0.26410  0.84210  Biso   1.000  H
  H39      1.0000 0.93410  0.23590  0.34210  Biso   1.000  H
  H40      1.0000 0.56590  0.73590  0.15790  Biso   1.000  H
  H41      1.0000 0.14290  0.85580  0.66200  Biso   1.000  H
  H42      1.0000 0.35710  0.35580  0.83800  Biso   1.000  H
  H43      1.0000 0.85710  0.14420  0.33800  Biso   1.000  H
  H44      1.0000 0.64290  0.64420  0.16200  Biso   1.000  H
  H45      1.0000 0.81050  0.76910  0.48950  Biso   1.000  H
  H46      1.0000 0.68950  0.26910  0.01050  Biso   1.000  H
  H47      1.0000 0.18950  0.23090  0.51050  Biso   1.000  H
  H48      1.0000 0.31050  0.73090  0.98950  Biso   1.000  H
  H49      1.0000 0.79830  0.87050  0.45170  Biso   1.000  H
  H50      1.0000 0.70170  0.37050  0.04830  Biso   1.000  H
  H51      1.0000 0.20170  0.12950  0.54830  Biso   1.000  H
  H52      1.0000 0.29830  0.62950  0.95170  Biso   1.000  H
  H53      1.0000 0.73620  0.85580  0.50530  Biso   1.000  H
  H54      1.0000 0.76380  0.35580  0.99470  Biso   1.000  H
  H55      1.0000 0.26380  0.14420  0.49470  Biso   1.000  H
  H56      1.0000 0.23620  0.64420  0.00530  Biso   1.000  H
  H57      1.0000 0.79820  0.12520  0.52380  Biso   1.000  H
  H58      1.0000 0.70180  0.62520  0.97620  Biso   1.000  H
  H59      1.0000 0.20180  0.87480  0.47620  Biso   1.000  H
  H60      1.0000 0.29820  0.37480  0.02380  Biso   1.000  H
  H61      1.0000 0.73630  0.02360  0.50980  Biso   1.000  H
  H62      1.0000 0.76370  0.52360  0.99020  Biso   1.000  H
  H63      1.0000 0.26370  0.97640  0.49020  Biso   1.000  H
  H64      1.0000 0.23630  0.47640  0.00980  Biso   1.000  H
  H65      1.0000 0.80860  0.06430  0.46550  Biso   1.000  H
  H66      1.0000 0.69140  0.56430  0.03450  Biso   1.000  H
  H67      1.0000 0.19140  0.93570  0.53450  Biso   1.000  H
  H68      1.0000 0.30860  0.43570  0.96550  Biso   1.000  H
  H69      1.0000 0.93430  0.70450  0.50890  Biso   1.000  H
  H70      1.0000 0.56570  0.20450  0.99110  Biso   1.000  H
  H71      1.0000 0.06570  0.29550  0.49110  Biso   1.000  H
  H72      1.0000 0.43430  0.79550  0.00890  Biso   1.000  H
  H73      1.0000 0.02390  0.69290  0.55870  Biso   1.000  H
  H74      1.0000 0.47610  0.19290  0.94130  Biso   1.000  H
  H75      1.0000 0.97610  0.30710  0.44130  Biso   1.000  H
  H76      1.0000 0.52390  0.80710  0.05870  Biso   1.000  H
  H77      1.0000 0.86300  0.77270  0.64490  Biso   1.000  H
  H78      1.0000 0.63700  0.27270  0.85510  Biso   1.000  H
  H79      1.0000 0.13700  0.22730  0.35510  Biso   1.000  H
  H80      1.0000 0.36300  0.72730  0.14490  Biso   1.000  H
  H81      1.0000 0.87810  0.52050  0.55120  Biso   1.000  H
  H82      1.0000 0.62190  0.02050  0.94880  Biso   1.000  H
  H83      1.0000 0.12190  0.47950  0.44880  Biso   1.000  H
  H84      1.0000 0.37810  0.97950  0.05120  Biso   1.000  H
  H85      1.0000 0.77510  0.48670  0.63090  Biso   1.000  H
  H86      1.0000 0.72490  0.98670  0.86910  Biso   1.000  H
  H87      1.0000 0.22490  0.51330  0.36910  Biso   1.000  H
  H88      1.0000 0.27510  0.01330  0.13090  Biso   1.000  H
  H89      1.0000 0.56320  0.07510  0.71150  Biso   1.000  H
  H90      1.0000 0.93680  0.57510  0.78850  Biso   1.000  H
  H91      1.0000 0.43680  0.92490  0.28850  Biso   1.000  H
  H92      1.0000 0.06320  0.42490  0.21150  Biso   1.000  H
  H93      1.0000 0.45450  0.35740  0.69790  Biso   1.000  H
  H94      1.0000 0.04550  0.85740  0.80210  Biso   1.000  H
  H95      1.0000 0.54550  0.64260  0.30210  Biso   1.000  H
  H96      1.0000 0.95450  0.14260  0.19790  Biso   1.000  H
  H97      1.0000 0.62480  0.36210  0.74220  Biso   1.000  H
  H98      1.0000 0.87520  0.86210  0.75780  Biso   1.000  H
  H99      1.0000 0.37520  0.63790  0.25780  Biso   1.000  H
  H100     1.0000 0.12480  0.13790  0.24220  Biso   1.000  H
  H101     1.0000 0.36660  0.18650  0.62830  Biso   1.000  H
  H102     1.0000 0.13340  0.68650  0.87170  Biso   1.000  H
  H103     1.0000 0.63340  0.81350  0.37170  Biso   1.000  H
  H104     1.0000 0.86660  0.31350  0.12830  Biso   1.000  H
  H105     1.0000 0.32820  0.18030  0.69060  Biso   1.000  H
  H106     1.0000 0.17180  0.68030  0.80940  Biso   1.000  H
  H107     1.0000 0.67180  0.81970  0.30940  Biso   1.000  H
  H108     1.0000 0.82820  0.31970  0.19060  Biso   1.000  H
  H109     1.0000 0.41470  0.04620  0.53210  Biso   1.000  H
  H110     1.0000 0.08530  0.54620  0.96790  Biso   1.000  H
  H111     1.0000 0.58530  0.95380  0.46790  Biso   1.000  H
  H112     1.0000 0.91470  0.45380  0.03210  Biso   1.000  H
  H113     1.0000 0.52190  0.03170  0.56600  Biso   1.000  H
  H114     1.0000 0.97810  0.53170  0.93400  Biso   1.000  H
  H115     1.0000 0.47810  0.96830  0.43400  Biso   1.000  H
  H116     1.0000 0.02190  0.46830  0.06600  Biso   1.000  H
  H117     1.0000 0.45670  0.12800  0.57910  Biso   1.000  H
  H118     1.0000 0.04330  0.62800  0.92090  Biso   1.000  H
  H119     1.0000 0.54330  0.87200  0.42090  Biso   1.000  H
  H120     1.0000 0.95670  0.37200  0.07910  Biso   1.000  H
  H121     1.0000 0.38490  0.85760  0.52330  Biso   1.000  H
  H122     1.0000 0.11510  0.35760  0.97670  Biso   1.000  H
  H123     1.0000 0.61510  0.14240  0.47670  Biso   1.000  H
  H124     1.0000 0.88490  0.64240  0.02330  Biso   1.000  H
  H125     1.0000 0.43280  0.76690  0.56240  Biso   1.000  H
  H126     1.0000 0.06720  0.26690  0.93760  Biso   1.000  H
  H127     1.0000 0.56720  0.23310  0.43760  Biso   1.000  H
  H128     1.0000 0.93280  0.73310  0.06240  Biso   1.000  H
  H129     1.0000 0.49770  0.86360  0.54970  Biso   1.000  H
  H130     1.0000 0.00230  0.36360  0.95030  Biso   1.000  H
  H131     1.0000 0.50230  0.13640  0.45030  Biso   1.000  H
  H132     1.0000 0.99770  0.63640  0.04970  Biso   1.000  H
  H133     1.0000 0.25050  0.81980  0.75640  Biso   1.000  H
  H134     1.0000 0.24950  0.31980  0.74360  Biso   1.000  H
  H135     1.0000 0.74950  0.18020  0.24360  Biso   1.000  H
  H136     1.0000 0.75050  0.68020  0.25640  Biso   1.000  H
  H137     1.0000 0.35350  0.84760  0.79210  Biso   1.000  H
  H138     1.0000 0.14650  0.34760  0.70790  Biso   1.000  H
  H139     1.0000 0.64650  0.15240  0.20790  Biso   1.000  H
  H140     1.0000 0.85350  0.65240  0.29210  Biso   1.000  H
  H141     1.0000 0.34440  0.74940  0.75160  Biso   1.000  H
  H142     1.0000 0.15560  0.24940  0.74840  Biso   1.000  H
  H143     1.0000 0.65560  0.25060  0.24840  Biso   1.000  H
  H144     1.0000 0.84440  0.75060  0.25160  Biso   1.000  H
  H145     1.0000 0.25810  0.05730  0.76130  Biso   1.000  H
  H146     1.0000 0.24190  0.55730  0.73870  Biso   1.000  H
  H147     1.0000 0.74190  0.94270  0.23870  Biso   1.000  H
  H148     1.0000 0.75810  0.44270  0.26130  Biso   1.000  H
  H149     1.0000 0.36730  0.10220  0.77120  Biso   1.000  H
  H150     1.0000 0.13270  0.60220  0.72880  Biso   1.000  H
  H151     1.0000 0.63270  0.89780  0.22880  Biso   1.000  H
  H152     1.0000 0.86730  0.39780  0.27120  Biso   1.000  H
  H153     1.0000 0.34320  0.99480  0.79840  Biso   1.000  H
  H154     1.0000 0.15680  0.49480  0.70160  Biso   1.000  H
  H155     1.0000 0.65680  0.00520  0.20160  Biso   1.000  H
  H156     1.0000 0.84320  0.50520  0.29840  Biso   1.000  H
  H157     1.0000 0.30860  0.69830  0.67350  Biso   1.000  H
  H158     1.0000 0.19140  0.19830  0.82650  Biso   1.000  H
  H159     1.0000 0.69140  0.30170  0.32650  Biso   1.000  H
  H160     1.0000 0.80860  0.80170  0.17350  Biso   1.000  H
  H161     1.0000 0.32650  0.70880  0.60720  Biso   1.000  H
  H162     1.0000 0.17350  0.20880  0.89280  Biso   1.000  H
  H163     1.0000 0.67350  0.29120  0.39280  Biso   1.000  H
  H164     1.0000 0.82650  0.79120  0.10720  Biso   1.000  H
  H165     1.0000 0.54080  0.77310  0.69570  Biso   1.000  H
  H166     1.0000 0.95920  0.27310  0.80430  Biso   1.000  H
  H167     1.0000 0.45920  0.22690  0.30430  Biso   1.000  H
  H168     1.0000 0.04080  0.72690  0.19570  Biso   1.000  H
  H169     1.0000 0.41890  0.51940  0.63060  Biso   1.000  H
  H170     1.0000 0.08110  0.01940  0.86940  Biso   1.000  H
  H171     1.0000 0.58110  0.48060  0.36940  Biso   1.000  H
  H172     1.0000 0.91890  0.98060  0.13060  Biso   1.000  H
  H173     1.0000 0.59360  0.48730  0.66200  Biso   1.000  H
  H174     1.0000 0.90640  0.98730  0.83800  Biso   1.000  H
  H175     1.0000 0.40640  0.51270  0.33800  Biso   1.000  H
  H176     1.0000 0.09360  0.01270  0.16200  Biso   1.000  H
  S5       1.0000 0.89331  0.53739  0.42268  Biso   1.000  S
  S6       1.0000 0.60669  0.03739  0.07732  Biso   1.000  S
  S7       1.0000 0.10669  0.46261  0.57732  Biso   1.000  S
  S8       1.0000 0.39331  0.96261  0.92268  Biso   1.000  S
  N37      1.0000 0.70660  0.61760  0.39150  Biso   1.000  N
  N38      1.0000 0.79340  0.11760  0.10850  Biso   1.000  N
  N39      1.0000 0.29340  0.38240  0.60850  Biso   1.000  N
  N40      1.0000 0.20660  0.88240  0.89150  Biso   1.000  N
  C149     1.0000 0.78280  0.58640  0.40410  Biso   1.000  C
  C150     1.0000 0.71720  0.08640  0.09590  Biso   1.000  C
  C151     1.0000 0.21720  0.41360  0.59590  Biso   1.000  C
  C152     1.0000 0.28280  0.91360  0.90410  Biso   1.000  C
  O1       1.0000 0.56170  0.65400  0.46570  Biso   1.000  O
  O2       1.0000 0.93830  0.15400  0.03430  Biso   1.000  O
  O3       1.0000 0.43830  0.34600  0.53430  Biso   1.000  O
  O4       1.0000 0.06170  0.84600  0.96570  Biso   1.000  O
  C153     1.0000 0.61500  0.63800  0.52100  Biso   1.000  C
  C154     1.0000 0.88500  0.13800  0.97900  Biso   1.000  C
  C155     1.0000 0.38500  0.36200  0.47900  Biso   1.000  C
  C156     1.0000 0.11500  0.86200  0.02100  Biso   1.000  C
  O5       1.0000 0.56070  0.66800  0.46190  Biso   1.000  O
  O6       1.0000 0.93930  0.16800  0.03810  Biso   1.000  O
  O7       1.0000 0.43930  0.33200  0.53810  Biso   1.000  O
  O8       1.0000 0.06070  0.83200  0.96190  Biso   1.000  O
  C157     1.0000 0.59800  0.62100  0.51500  Biso   1.000  C
  C158     1.0000 0.90200  0.12100  0.98500  Biso   1.000  C
  C159     1.0000 0.40200  0.37900  0.48500  Biso   1.000  C
  C160     1.0000 0.09800  0.87900  0.01500  Biso   1.000  C
  O9       1.0000 0.36860  0.64450  0.45190  Biso   1.000  O
  O10      1.0000 0.13140  0.14450  0.04810  Biso   1.000  O
  O11      1.0000 0.63140  0.35550  0.54810  Biso   1.000  O
  O12      1.0000 0.86860  0.85550  0.95190  Biso   1.000  O
  C161     1.0000 0.34200  0.72310  0.41170  Biso   1.000  C
  C162     1.0000 0.15800  0.22310  0.08830  Biso   1.000  C
  C163     1.0000 0.65800  0.27690  0.58830  Biso   1.000  C
  C164     1.0000 0.84200  0.77690  0.91170  Biso   1.000  C
  O13      1.0000 0.39400  0.57800  0.47380  Biso   1.000  O
  O14      1.0000 0.10600  0.07800  0.02620  Biso   1.000  O
  O15      1.0000 0.60600  0.42200  0.52620  Biso   1.000  O
  O16      1.0000 0.89400  0.92200  0.97380  Biso   1.000  O
  C165     1.0000 0.34700  0.61900  0.42130  Biso   1.000  C
  C166     1.0000 0.15300  0.11900  0.07870  Biso   1.000  C
  C167     1.0000 0.65300  0.38100  0.57870  Biso   1.000  C
  C168     1.0000 0.84700  0.88100  0.92130  Biso   1.000  C
  O17      1.0000 0.20400  0.67000  0.51630  Biso   1.000  O
  O18      1.0000 0.29600  0.17000  0.98370  Biso   1.000  O
  O19      1.0000 0.79600  0.33000  0.48370  Biso   1.000  O
  O20      1.0000 0.70400  0.83000  0.01630  Biso   1.000  O
  O21      1.0000 0.21300  0.66100  0.50200  Biso   1.000  O
  O22      1.0000 0.28700  0.16100  0.99800  Biso   1.000  O
  O23      1.0000 0.78700  0.33900  0.49800  Biso   1.000  O
  O24      1.0000 0.71300  0.83900  0.00200  Biso   1.000  O
