data_image0
_cell_length_a       14.233
_cell_length_b       6.755
_cell_length_c       7.273
_cell_angle_alpha    90
_cell_angle_beta     104.63
_cell_angle_gamma    90

_symmetry_space_group_name_H-M    "P 1"
_symmetry_int_tables_number       1

loop_
  _symmetry_equiv_pos_as_xyz
  'x, y, z'

loop_
  _atom_site_label
  _atom_site_occupancy
  _atom_site_fract_x
  _atom_site_fract_y
  _atom_site_fract_z
  _atom_site_thermal_displace_type
  _atom_site_B_iso_or_equiv
  _atom_site_type_symbol
  Cu1      1.0000 0.00000  0.00000  0.50000  Biso   1.000  Cu
  Cu2      1.0000 0.00000  0.50000  0.00000  Biso   1.000  Cu
  Cl1      1.0000 0.93550  0.78320  0.68080  Biso   1.000  Cl
  Cl2      1.0000 0.93550  0.71680  0.18080  Biso   1.000  Cl
  Cl3      1.0000 0.06450  0.21680  0.31920  Biso   1.000  Cl
  Cl4      1.0000 0.06450  0.28320  0.81920  Biso   1.000  Cl
  Cl5      1.0000 0.93540  0.71330  0.76080  Biso   1.000  Cl
  Cl6      1.0000 0.93540  0.78670  0.26080  Biso   1.000  Cl
  Cl7      1.0000 0.06460  0.28670  0.23920  Biso   1.000  Cl
  Cl8      1.0000 0.06460  0.21330  0.73920  Biso   1.000  Cl
  N1       1.0000 0.76710  0.37250  0.38010  Biso   1.000  N
  N2       1.0000 0.76710  0.12750  0.88010  Biso   1.000  N
  N3       1.0000 0.23290  0.62750  0.61990  Biso   1.000  N
  N4       1.0000 0.23290  0.87250  0.11990  Biso   1.000  N
  N5       1.0000 0.72160  0.19890  0.35390  Biso   1.000  N
  N6       1.0000 0.72160  0.30110  0.85390  Biso   1.000  N
  N7       1.0000 0.27840  0.80110  0.64610  Biso   1.000  N
  N8       1.0000 0.27840  0.69890  0.14610  Biso   1.000  N
  N9       1.0000 0.78630  0.06310  0.38730  Biso   1.000  N
  N10      1.0000 0.78630  0.43690  0.88730  Biso   1.000  N
  N11      1.0000 0.21370  0.93690  0.61270  Biso   1.000  N
  N12      1.0000 0.21370  0.56310  0.11270  Biso   1.000  N
  N13      1.0000 0.87420  0.14580  0.43580  Biso   1.000  N
  N14      1.0000 0.87420  0.35420  0.93580  Biso   1.000  N
  N15      1.0000 0.12580  0.85420  0.56420  Biso   1.000  N
  N16      1.0000 0.12580  0.64580  0.06420  Biso   1.000  N
  C1       1.0000 0.86090  0.33930  0.43050  Biso   1.000  C
  C2       1.0000 0.86090  0.16070  0.93050  Biso   1.000  C
  C3       1.0000 0.13910  0.66070  0.56950  Biso   1.000  C
  C4       1.0000 0.13910  0.83930  0.06950  Biso   1.000  C
  H1       1.0000 0.90940  0.43500  0.45750  Biso   1.000  H
  H2       1.0000 0.90940  0.06500  0.95750  Biso   1.000  H
  H3       1.0000 0.09060  0.56500  0.54250  Biso   1.000  H
  H4       1.0000 0.09060  0.93500  0.04250  Biso   1.000  H
  C5       1.0000 0.71490  0.56330  0.35340  Biso   1.000  C
  C6       1.0000 0.71490  0.93670  0.85340  Biso   1.000  C
  C7       1.0000 0.28510  0.43670  0.64660  Biso   1.000  C
  C8       1.0000 0.28510  0.06330  0.14660  Biso   1.000  C
  H5       1.0000 0.73910  0.63920  0.46890  Biso   1.000  H
  H6       1.0000 0.73910  0.86080  0.96890  Biso   1.000  H
  H7       1.0000 0.26090  0.36080  0.53110  Biso   1.000  H
  H8       1.0000 0.26090  0.13920  0.03110  Biso   1.000  H
  H9       1.0000 0.73480  0.63310  0.25300  Biso   1.000  H
  H10      1.0000 0.73480  0.86690  0.75300  Biso   1.000  H
  H11      1.0000 0.26520  0.36690  0.74700  Biso   1.000  H
  H12      1.0000 0.26520  0.13310  0.24700  Biso   1.000  H
  C9       1.0000 0.62760  0.57150  0.31640  Biso   1.000  C
  C10      1.0000 0.62760  0.92850  0.81640  Biso   1.000  C
  C11      1.0000 0.37240  0.42850  0.68360  Biso   1.000  C
  C12      1.0000 0.37240  0.07150  0.18360  Biso   1.000  C
  H13      1.0000 0.61880  0.43880  0.34190  Biso   1.000  H
  H14      1.0000 0.61880  0.06120  0.84190  Biso   1.000  H
  H15      1.0000 0.38120  0.56120  0.65810  Biso   1.000  H
  H16      1.0000 0.38120  0.93880  0.15810  Biso   1.000  H
  C13      1.0000 0.54330  0.61140  0.27370  Biso   1.000  C
  C14      1.0000 0.54330  0.88860  0.77370  Biso   1.000  C
  C15      1.0000 0.45670  0.38860  0.72630  Biso   1.000  C
  C16      1.0000 0.45670  0.11140  0.22630  Biso   1.000  C
  H17      1.0000 0.54160  0.74060  0.23060  Biso   1.000  H
  H18      1.0000 0.54160  0.75940  0.73060  Biso   1.000  H
  H19      1.0000 0.45840  0.25940  0.76940  Biso   1.000  H
  H20      1.0000 0.45840  0.24060  0.26940  Biso   1.000  H
  H21      1.0000 0.47750  0.59200  0.25590  Biso   1.000  H
  H22      1.0000 0.47750  0.90800  0.75590  Biso   1.000  H
  H23      1.0000 0.52250  0.40800  0.74410  Biso   1.000  H
  H24      1.0000 0.52250  0.09200  0.24410  Biso   1.000  H
