data_image0
_cell_length_a       9.2753
_cell_length_b       22.6255
_cell_length_c       13.334
_cell_angle_alpha    90
_cell_angle_beta     110.287
_cell_angle_gamma    90

_symmetry_space_group_name_H-M    "P 1"
_symmetry_int_tables_number       1

loop_
  _symmetry_equiv_pos_as_xyz
  'x, y, z'

loop_
  _atom_site_label
  _atom_site_occupancy
  _atom_site_fract_x
  _atom_site_fract_y
  _atom_site_fract_z
  _atom_site_thermal_displace_type
  _atom_site_B_iso_or_equiv
  _atom_site_type_symbol
  Cu1      1.0000 0.55915  0.05632  0.82591  Biso   1.000  Cu
  Cu2      1.0000 0.94085  0.55632  0.67409  Biso   1.000  Cu
  Cu3      1.0000 0.44085  0.94368  0.17409  Biso   1.000  Cu
  Cu4      1.0000 0.05915  0.44368  0.32591  Biso   1.000  Cu
  Cu5      1.0000 0.83531  0.11318  0.96860  Biso   1.000  Cu
  Cu6      1.0000 0.66469  0.61318  0.53140  Biso   1.000  Cu
  Cu7      1.0000 0.16469  0.88682  0.03140  Biso   1.000  Cu
  Cu8      1.0000 0.33531  0.38682  0.46860  Biso   1.000  Cu
  Cl1      1.0000 0.38560  0.16783  0.60070  Biso   1.000  Cl
  Cl2      1.0000 0.11440  0.66783  0.89930  Biso   1.000  Cl
  Cl3      1.0000 0.61440  0.83217  0.39930  Biso   1.000  Cl
  Cl4      1.0000 0.88560  0.33217  0.10070  Biso   1.000  Cl
  C1       1.0000 0.83660  0.05870  0.75850  Biso   1.000  C
  C2       1.0000 0.66340  0.55870  0.74150  Biso   1.000  C
  C3       1.0000 0.16340  0.94130  0.24150  Biso   1.000  C
  C4       1.0000 0.33660  0.44130  0.25850  Biso   1.000  C
  H1       1.0000 0.90560  0.02660  0.79540  Biso   1.000  H
  H2       1.0000 0.59440  0.52660  0.70460  Biso   1.000  H
  H3       1.0000 0.09440  0.97340  0.20460  Biso   1.000  H
  H4       1.0000 0.40560  0.47340  0.29540  Biso   1.000  H
  C5       1.0000 0.93260  0.10910  0.73690  Biso   1.000  C
  C6       1.0000 0.56740  0.60910  0.76310  Biso   1.000  C
  C7       1.0000 0.06740  0.89090  0.26310  Biso   1.000  C
  C8       1.0000 0.43260  0.39090  0.23690  Biso   1.000  C
  H5       1.0000 0.86570  0.14230  0.70650  Biso   1.000  H
  H6       1.0000 0.63430  0.64230  0.79350  Biso   1.000  H
  H7       1.0000 0.13430  0.85770  0.29350  Biso   1.000  H
  H8       1.0000 0.36570  0.35770  0.20650  Biso   1.000  H
  H9       1.0000 0.00760  0.12190  0.80430  Biso   1.000  H
  H10      1.0000 0.49240  0.62190  0.69570  Biso   1.000  H
  H11      1.0000 0.99240  0.87810  0.19570  Biso   1.000  H
  H12      1.0000 0.50760  0.37810  0.30430  Biso   1.000  H
  C9       1.0000 0.01580  0.09140  0.66150  Biso   1.000  C
  C10      1.0000 0.48420  0.59140  0.83850  Biso   1.000  C
  C11      1.0000 0.98420  0.90860  0.33850  Biso   1.000  C
  C12      1.0000 0.51580  0.40860  0.16150  Biso   1.000  C
  H13      1.0000 0.09010  0.06060  0.69440  Biso   1.000  H
  H14      1.0000 0.40990  0.56060  0.80560  Biso   1.000  H
  H15      1.0000 0.90990  0.93940  0.30560  Biso   1.000  H
  H16      1.0000 0.59010  0.43940  0.19440  Biso   1.000  H
  H17      1.0000 0.07100  0.12520  0.64820  Biso   1.000  H
  H18      1.0000 0.42900  0.62520  0.85180  Biso   1.000  H
  H19      1.0000 0.92900  0.87480  0.35180  Biso   1.000  H
  H20      1.0000 0.57100  0.37480  0.14820  Biso   1.000  H
  C13      1.0000 0.90220  0.06890  0.55580  Biso   1.000  C
  C14      1.0000 0.59780  0.56890  0.94420  Biso   1.000  C
  C15      1.0000 0.09780  0.93110  0.44420  Biso   1.000  C
  C16      1.0000 0.40220  0.43110  0.05580  Biso   1.000  C
  H21      1.0000 0.83450  0.10080  0.51930  Biso   1.000  H
  H22      1.0000 0.66550  0.60080  0.98070  Biso   1.000  H
  H23      1.0000 0.16550  0.89920  0.48070  Biso   1.000  H
  H24      1.0000 0.33450  0.39920  0.01930  Biso   1.000  H
  H25      1.0000 0.95780  0.05550  0.51030  Biso   1.000  H
  H26      1.0000 0.54220  0.55550  0.98970  Biso   1.000  H
  H27      1.0000 0.04220  0.94450  0.48970  Biso   1.000  H
  H28      1.0000 0.45780  0.44450  0.01030  Biso   1.000  H
  C17      1.0000 0.80870  0.01880  0.57500  Biso   1.000  C
  C18      1.0000 0.69130  0.51880  0.92500  Biso   1.000  C
  C19      1.0000 0.19130  0.98120  0.42500  Biso   1.000  C
  C20      1.0000 0.30870  0.48120  0.07500  Biso   1.000  C
  H29      1.0000 0.87560  0.98540  0.60390  Biso   1.000  H
  H30      1.0000 0.62440  0.48540  0.89610  Biso   1.000  H
  H31      1.0000 0.12440  0.01460  0.39610  Biso   1.000  H
  H32      1.0000 0.37560  0.51460  0.10390  Biso   1.000  H
  H33      1.0000 0.73300  0.00680  0.50740  Biso   1.000  H
  H34      1.0000 0.76700  0.50680  0.99260  Biso   1.000  H
  H35      1.0000 0.26700  0.99320  0.49260  Biso   1.000  H
  H36      1.0000 0.23300  0.49320  0.00740  Biso   1.000  H
  C21      1.0000 0.72700  0.03570  0.65190  Biso   1.000  C
  C22      1.0000 0.77300  0.53570  0.84810  Biso   1.000  C
  C23      1.0000 0.27300  0.96430  0.34810  Biso   1.000  C
  C24      1.0000 0.22700  0.46430  0.15190  Biso   1.000  C
  H37      1.0000 0.65500  0.06760  0.61850  Biso   1.000  H
  H38      1.0000 0.84500  0.56760  0.88150  Biso   1.000  H
  H39      1.0000 0.34500  0.93240  0.38150  Biso   1.000  H
  H40      1.0000 0.15500  0.43240  0.11850  Biso   1.000  H
  C25      1.0000 0.61580  0.93150  0.62100  Biso   1.000  C
  C26      1.0000 0.88420  0.43150  0.87900  Biso   1.000  C
  C27      1.0000 0.38420  0.06850  0.37900  Biso   1.000  C
  C28      1.0000 0.11580  0.56850  0.12100  Biso   1.000  C
  H41      1.0000 0.66360  0.91760  0.57480  Biso   1.000  H
  H42      1.0000 0.83640  0.41760  0.92520  Biso   1.000  H
  H43      1.0000 0.33640  0.08240  0.42520  Biso   1.000  H
  H44      1.0000 0.16360  0.58240  0.07480  Biso   1.000  H
  C29      1.0000 0.51210  0.90090  0.65420  Biso   1.000  C
  C30      1.0000 0.98790  0.40090  0.84580  Biso   1.000  C
  C31      1.0000 0.48790  0.09910  0.34580  Biso   1.000  C
  C32      1.0000 0.01210  0.59910  0.15420  Biso   1.000  C
  H45      1.0000 0.47590  0.86260  0.63550  Biso   1.000  H
  H46      1.0000 0.02410  0.36260  0.86450  Biso   1.000  H
  H47      1.0000 0.52410  0.13740  0.36450  Biso   1.000  H
  H48      1.0000 0.97590  0.63740  0.13550  Biso   1.000  H
  C33      1.0000 0.47400  0.93870  0.72050  Biso   1.000  C
  C34      1.0000 0.02600  0.43870  0.77950  Biso   1.000  C
  C35      1.0000 0.52600  0.06130  0.27950  Biso   1.000  C
  C36      1.0000 0.97400  0.56130  0.22050  Biso   1.000  C
  H49      1.0000 0.40590  0.92980  0.75560  Biso   1.000  H
  H50      1.0000 0.09410  0.42980  0.74440  Biso   1.000  H
  H51      1.0000 0.59410  0.07020  0.24440  Biso   1.000  H
  H52      1.0000 0.90590  0.57020  0.25560  Biso   1.000  H
  C37      1.0000 0.52710  0.14420  0.98820  Biso   1.000  C
  C38      1.0000 0.97290  0.64420  0.51180  Biso   1.000  C
  C39      1.0000 0.47290  0.85580  0.01180  Biso   1.000  C
  C40      1.0000 0.02710  0.35580  0.48820  Biso   1.000  C
  H53      1.0000 0.49320  0.11350  0.02680  Biso   1.000  H
  H54      1.0000 0.00680  0.61350  0.47320  Biso   1.000  H
  H55      1.0000 0.50680  0.88650  0.97320  Biso   1.000  H
  H56      1.0000 0.99320  0.38650  0.52680  Biso   1.000  H
  C41      1.0000 0.38650  0.17480  0.91000  Biso   1.000  C
  C42      1.0000 0.11350  0.67480  0.59000  Biso   1.000  C
  C43      1.0000 0.61350  0.82520  0.09000  Biso   1.000  C
  C44      1.0000 0.88650  0.32520  0.41000  Biso   1.000  C
  H57      1.0000 0.42000  0.20310  0.86800  Biso   1.000  H
  H58      1.0000 0.08000  0.70310  0.63200  Biso   1.000  H
  H59      1.0000 0.58000  0.79690  0.13200  Biso   1.000  H
  H60      1.0000 0.92000  0.29690  0.36800  Biso   1.000  H
  H61      1.0000 0.32300  0.14550  0.86140  Biso   1.000  H
  H62      1.0000 0.17700  0.64550  0.63860  Biso   1.000  H
  H63      1.0000 0.67700  0.85450  0.13860  Biso   1.000  H
  H64      1.0000 0.82300  0.35450  0.36140  Biso   1.000  H
  C45      1.0000 0.29050  0.20660  0.96480  Biso   1.000  C
  C46      1.0000 0.20950  0.70660  0.53520  Biso   1.000  C
  C47      1.0000 0.70950  0.79340  0.03520  Biso   1.000  C
  C48      1.0000 0.79050  0.29340  0.46480  Biso   1.000  C
  H65      1.0000 0.20530  0.22650  0.91160  Biso   1.000  H
  H66      1.0000 0.29470  0.72650  0.58840  Biso   1.000  H
  H67      1.0000 0.79470  0.77350  0.08840  Biso   1.000  H
  H68      1.0000 0.70530  0.27350  0.41160  Biso   1.000  H
  H69      1.0000 0.24860  0.17820  0.00180  Biso   1.000  H
  H70      1.0000 0.25140  0.67820  0.49820  Biso   1.000  H
  H71      1.0000 0.75140  0.82180  0.99820  Biso   1.000  H
  H72      1.0000 0.74860  0.32180  0.50180  Biso   1.000  H
  C49      1.0000 0.38680  0.25120  0.04350  Biso   1.000  C
  C50      1.0000 0.11320  0.75120  0.45650  Biso   1.000  C
  C51      1.0000 0.61320  0.74880  0.95650  Biso   1.000  C
  C52      1.0000 0.88680  0.24880  0.54350  Biso   1.000  C
  H73      1.0000 0.32520  0.26950  0.08070  Biso   1.000  H
  H74      1.0000 0.17480  0.76950  0.41930  Biso   1.000  H
  H75      1.0000 0.67480  0.73050  0.91930  Biso   1.000  H
  H76      1.0000 0.82520  0.23050  0.58070  Biso   1.000  H
  H77      1.0000 0.41920  0.28190  0.00520  Biso   1.000  H
  H78      1.0000 0.08080  0.78190  0.49480  Biso   1.000  H
  H79      1.0000 0.58080  0.71810  0.99480  Biso   1.000  H
  H80      1.0000 0.91920  0.21810  0.50520  Biso   1.000  H
  C53      1.0000 0.52790  0.22290  0.12460  Biso   1.000  C
  C54      1.0000 0.97210  0.72290  0.37540  Biso   1.000  C
  C55      1.0000 0.47210  0.77710  0.87540  Biso   1.000  C
  C56      1.0000 0.02790  0.27710  0.62460  Biso   1.000  C
  H81      1.0000 0.49590  0.19540  0.16870  Biso   1.000  H
  H82      1.0000 0.00410  0.69540  0.33130  Biso   1.000  H
  H83      1.0000 0.50410  0.80460  0.83130  Biso   1.000  H
  H84      1.0000 0.99590  0.30460  0.66870  Biso   1.000  H
  H85      1.0000 0.59050  0.25320  0.17090  Biso   1.000  H
  H86      1.0000 0.90950  0.75320  0.32910  Biso   1.000  H
  H87      1.0000 0.40950  0.74680  0.82910  Biso   1.000  H
  H88      1.0000 0.09050  0.24680  0.67090  Biso   1.000  H
  C57      1.0000 0.62360  0.18990  0.06860  Biso   1.000  C
  C58      1.0000 0.87640  0.68990  0.43140  Biso   1.000  C
  C59      1.0000 0.37640  0.81010  0.93140  Biso   1.000  C
  C60      1.0000 0.12360  0.31010  0.56860  Biso   1.000  C
  H89      1.0000 0.66020  0.21920  0.02880  Biso   1.000  H
  H90      1.0000 0.83980  0.71920  0.47120  Biso   1.000  H
  H91      1.0000 0.33980  0.78080  0.97120  Biso   1.000  H
  H92      1.0000 0.16020  0.28080  0.52880  Biso   1.000  H
  C61      1.0000 0.80740  0.16580  0.25500  Biso   1.000  C
  C62      1.0000 0.69260  0.66580  0.24500  Biso   1.000  C
  C63      1.0000 0.19260  0.83420  0.74500  Biso   1.000  C
  C64      1.0000 0.30740  0.33420  0.75500  Biso   1.000  C
  H93      1.0000 0.75420  0.18330  0.29500  Biso   1.000  H
  H94      1.0000 0.74580  0.68330  0.20500  Biso   1.000  H
  H95      1.0000 0.24580  0.81670  0.70500  Biso   1.000  H
  H96      1.0000 0.25420  0.31670  0.79500  Biso   1.000  H
  C65      1.0000 0.94850  0.13890  0.29540  Biso   1.000  C
  C66      1.0000 0.55150  0.63890  0.20460  Biso   1.000  C
  C67      1.0000 0.05150  0.86110  0.70460  Biso   1.000  C
  C68      1.0000 0.44850  0.36110  0.79540  Biso   1.000  C
  H97      1.0000 0.00810  0.13370  0.36700  Biso   1.000  H
  H98      1.0000 0.49190  0.63370  0.13300  Biso   1.000  H
  H99      1.0000 0.99190  0.86630  0.63300  Biso   1.000  H
  H100     1.0000 0.50810  0.36630  0.86700  Biso   1.000  H
  C69      1.0000 0.98290  0.12160  0.20860  Biso   1.000  C
  C70      1.0000 0.51710  0.62160  0.29140  Biso   1.000  C
  C71      1.0000 0.01710  0.87840  0.79140  Biso   1.000  C
  C72      1.0000 0.48290  0.37840  0.70860  Biso   1.000  C
  H101     1.0000 0.07350  0.10270  0.21200  Biso   1.000  H
  H102     1.0000 0.42650  0.60270  0.28800  Biso   1.000  H
  H103     1.0000 0.92650  0.89730  0.78800  Biso   1.000  H
  H104     1.0000 0.57350  0.39730  0.71200  Biso   1.000  H
  C73      1.0000 0.77100  0.23700  0.82790  Biso   1.000  C
  C74      1.0000 0.72900  0.73700  0.67210  Biso   1.000  C
  C75      1.0000 0.22900  0.76300  0.17210  Biso   1.000  C
  C76      1.0000 0.27100  0.26300  0.32790  Biso   1.000  C
  H105     1.0000 0.80550  0.27620  0.82050  Biso   1.000  H
  H106     1.0000 0.69450  0.77620  0.67950  Biso   1.000  H
  H107     1.0000 0.19450  0.72380  0.17950  Biso   1.000  H
  H108     1.0000 0.30550  0.22380  0.32050  Biso   1.000  H
  H109     1.0000 0.67260  0.23900  0.83660  Biso   1.000  H
  H110     1.0000 0.82740  0.73900  0.66340  Biso   1.000  H
  H111     1.0000 0.32740  0.76100  0.16340  Biso   1.000  H
  H112     1.0000 0.17260  0.26100  0.33660  Biso   1.000  H
  H113     1.0000 0.76220  0.21440  0.76520  Biso   1.000  H
  H114     1.0000 0.73780  0.71440  0.73480  Biso   1.000  H
  H115     1.0000 0.23780  0.78560  0.23480  Biso   1.000  H
  H116     1.0000 0.26220  0.28560  0.26520  Biso   1.000  H
  C77      1.0000 0.31540  0.02230  0.92160  Biso   1.000  C
  C78      1.0000 0.18460  0.52230  0.57840  Biso   1.000  C
  C79      1.0000 0.68460  0.97770  0.07840  Biso   1.000  C
  C80      1.0000 0.81540  0.47770  0.42160  Biso   1.000  C
  C81      1.0000 0.13740  0.04930  0.99310  Biso   1.000  C
  C82      1.0000 0.36260  0.54930  0.50690  Biso   1.000  C
  C83      1.0000 0.86260  0.95070  0.00690  Biso   1.000  C
  C84      1.0000 0.63740  0.45070  0.49310  Biso   1.000  C
  N1       1.0000 0.54710  0.99050  0.72860  Biso   1.000  N
  N2       1.0000 0.95290  0.49050  0.77140  Biso   1.000  N
  N3       1.0000 0.45290  0.00950  0.27140  Biso   1.000  N
  N4       1.0000 0.04710  0.50950  0.22860  Biso   1.000  N
  N5       1.0000 0.63530  0.98490  0.66740  Biso   1.000  N
  N6       1.0000 0.86470  0.48490  0.83260  Biso   1.000  N
  N7       1.0000 0.36470  0.01510  0.33260  Biso   1.000  N
  N8       1.0000 0.13530  0.51510  0.16740  Biso   1.000  N
  N9       1.0000 0.86870  0.13530  0.11730  Biso   1.000  N
  N10      1.0000 0.63130  0.63530  0.38270  Biso   1.000  N
  N11      1.0000 0.13130  0.86470  0.88270  Biso   1.000  N
  N12      1.0000 0.36870  0.36470  0.61730  Biso   1.000  N
  N13      1.0000 0.75980  0.16270  0.14850  Biso   1.000  N
  N14      1.0000 0.74020  0.66270  0.35150  Biso   1.000  N
  N15      1.0000 0.24020  0.83730  0.85150  Biso   1.000  N
  N16      1.0000 0.25980  0.33730  0.64850  Biso   1.000  N
  N17      1.0000 0.24190  0.01250  0.98650  Biso   1.000  N
  N18      1.0000 0.25810  0.51250  0.51350  Biso   1.000  N
  N19      1.0000 0.75810  0.98750  0.01350  Biso   1.000  N
  N20      1.0000 0.74190  0.48750  0.48650  Biso   1.000  N
  N21      1.0000 0.38740  0.02650  0.86550  Biso   1.000  N
  N22      1.0000 0.11260  0.52650  0.63450  Biso   1.000  N
  N23      1.0000 0.61260  0.97350  0.13450  Biso   1.000  N
  N24      1.0000 0.88740  0.47350  0.36550  Biso   1.000  N
  N25      1.0000 0.04340  0.07940  0.00410  Biso   1.000  N
  N26      1.0000 0.45660  0.57940  0.49590  Biso   1.000  N
  N27      1.0000 0.95660  0.92060  0.99590  Biso   1.000  N
  N28      1.0000 0.54340  0.42060  0.50410  Biso   1.000  N
  O1       1.0000 0.75750  0.07940  0.82460  Biso   1.000  O
  O2       1.0000 0.74250  0.57940  0.67540  Biso   1.000  O
  O3       1.0000 0.24250  0.92060  0.17540  Biso   1.000  O
  O4       1.0000 0.25750  0.42060  0.32460  Biso   1.000  O
  O5       1.0000 0.61570  0.11780  0.93230  Biso   1.000  O
  O6       1.0000 0.88430  0.61780  0.56770  Biso   1.000  O
  O7       1.0000 0.38430  0.88220  0.06770  Biso   1.000  O
  O8       1.0000 0.11570  0.38220  0.43230  Biso   1.000  O
  O9       1.0000 0.88090  0.20890  0.92080  Biso   1.000  O
  O10      1.0000 0.61910  0.70890  0.57920  Biso   1.000  O
  O11      1.0000 0.11910  0.79110  0.07920  Biso   1.000  O
  O12      1.0000 0.38090  0.29110  0.42080  Biso   1.000  O
  H117     1.0000 0.92770  0.22800  0.97760  Biso   1.000  H
  H118     1.0000 0.57230  0.72800  0.52240  Biso   1.000  H
  H119     1.0000 0.07230  0.77200  0.02240  Biso   1.000  H
  H120     1.0000 0.42770  0.27200  0.47760  Biso   1.000  H
  O13      1.0000 0.50330  0.18160  0.55820  Biso   1.000  O
  O14      1.0000 0.99670  0.68160  0.94180  Biso   1.000  O
  O15      1.0000 0.49670  0.81840  0.44180  Biso   1.000  O
  O16      1.0000 0.00330  0.31840  0.05820  Biso   1.000  O
  O17      1.0000 0.41280  0.11240  0.65300  Biso   1.000  O
  O18      1.0000 0.08720  0.61240  0.84700  Biso   1.000  O
  O19      1.0000 0.58720  0.88760  0.34700  Biso   1.000  O
  O20      1.0000 0.91280  0.38760  0.15300  Biso   1.000  O
  O21      1.0000 0.38090  0.21280  0.67330  Biso   1.000  O
  O22      1.0000 0.11910  0.71280  0.82670  Biso   1.000  O
  O23      1.0000 0.61910  0.78720  0.32670  Biso   1.000  O
  O24      1.0000 0.88090  0.28720  0.17330  Biso   1.000  O
  O25      1.0000 0.24060  0.16520  0.51480  Biso   1.000  O
  O26      1.0000 0.25940  0.66520  0.98520  Biso   1.000  O
  O27      1.0000 0.75940  0.83480  0.48520  Biso   1.000  O
  O28      1.0000 0.74060  0.33480  0.01480  Biso   1.000  O
