data_image0
_cell_length_a       13.095
_cell_length_b       13.001
_cell_length_c       13.439
_cell_angle_alpha    90
_cell_angle_beta     106.17
_cell_angle_gamma    90

_symmetry_space_group_name_H-M    "P 1"
_symmetry_int_tables_number       1

loop_
  _symmetry_equiv_pos_as_xyz
  'x, y, z'

loop_
  _atom_site_label
  _atom_site_occupancy
  _atom_site_fract_x
  _atom_site_fract_y
  _atom_site_fract_z
  _atom_site_thermal_displace_type
  _atom_site_B_iso_or_equiv
  _atom_site_type_symbol
  Cu1      1.0000 0.40066  0.95863  0.02355  Biso   1.000  Cu
  Cu2      1.0000 0.59934  0.45863  0.47645  Biso   1.000  Cu
  Cu3      1.0000 0.59934  0.04137  0.97645  Biso   1.000  Cu
  Cu4      1.0000 0.40066  0.54137  0.52355  Biso   1.000  Cu
  Cu5      1.0000 0.38229  0.50513  0.94351  Biso   1.000  Cu
  Cu6      1.0000 0.61771  0.00513  0.55649  Biso   1.000  Cu
  Cu7      1.0000 0.61771  0.49487  0.05649  Biso   1.000  Cu
  Cu8      1.0000 0.38229  0.99487  0.44351  Biso   1.000  Cu
  O1       1.0000 0.44650  0.05980  0.93770  Biso   1.000  O
  O2       1.0000 0.55350  0.55980  0.56230  Biso   1.000  O
  O3       1.0000 0.55350  0.94020  0.06230  Biso   1.000  O
  O4       1.0000 0.44650  0.44020  0.43770  Biso   1.000  O
  O5       1.0000 0.48410  0.55370  0.06680  Biso   1.000  O
  O6       1.0000 0.51590  0.05370  0.43320  Biso   1.000  O
  O7       1.0000 0.51590  0.44630  0.93320  Biso   1.000  O
  O8       1.0000 0.48410  0.94630  0.56680  Biso   1.000  O
  C1       1.0000 0.07680  0.03710  0.92220  Biso   1.000  C
  C2       1.0000 0.92320  0.53710  0.57780  Biso   1.000  C
  C3       1.0000 0.92320  0.96290  0.07780  Biso   1.000  C
  C4       1.0000 0.07680  0.46290  0.42220  Biso   1.000  C
  H1       1.0000 0.00410  0.02410  0.90180  Biso   1.000  H
  H2       1.0000 0.99590  0.52410  0.59820  Biso   1.000  H
  H3       1.0000 0.99590  0.97590  0.09820  Biso   1.000  H
  H4       1.0000 0.00410  0.47590  0.40180  Biso   1.000  H
  N1       1.0000 0.25960  0.55510  0.99070  Biso   1.000  N
  N2       1.0000 0.74040  0.05510  0.50930  Biso   1.000  N
  N3       1.0000 0.74040  0.44490  0.00930  Biso   1.000  N
  N4       1.0000 0.25960  0.94490  0.49070  Biso   1.000  N
  N5       1.0000 0.38720  0.61350  0.65100  Biso   1.000  N
  N6       1.0000 0.61280  0.11350  0.84900  Biso   1.000  N
  N7       1.0000 0.61280  0.38650  0.34900  Biso   1.000  N
  N8       1.0000 0.38720  0.88650  0.15100  Biso   1.000  N
  N9       1.0000 0.37720  0.82000  0.91140  Biso   1.000  N
  N10      1.0000 0.62280  0.32000  0.58860  Biso   1.000  N
  N11      1.0000 0.62280  0.18000  0.08860  Biso   1.000  N
  N12      1.0000 0.37720  0.68000  0.41140  Biso   1.000  N
  N13      1.0000 0.29700  0.43010  0.82300  Biso   1.000  N
  N14      1.0000 0.70300  0.93010  0.67700  Biso   1.000  N
  N15      1.0000 0.70300  0.56990  0.17700  Biso   1.000  N
  N16      1.0000 0.29700  0.06990  0.32300  Biso   1.000  N
  C5       1.0000 0.38400  0.74570  0.86900  Biso   1.000  C
  C6       1.0000 0.61600  0.24570  0.63100  Biso   1.000  C
  C7       1.0000 0.61600  0.25430  0.13100  Biso   1.000  C
  C8       1.0000 0.38400  0.75430  0.36900  Biso   1.000  C
  C9       1.0000 0.38910  0.63800  0.73350  Biso   1.000  C
  C10      1.0000 0.61090  0.13800  0.76650  Biso   1.000  C
  C11      1.0000 0.61090  0.36200  0.26650  Biso   1.000  C
  C12      1.0000 0.38910  0.86200  0.23350  Biso   1.000  C
  C13      1.0000 0.16880  0.57230  0.10800  Biso   1.000  C
  C14      1.0000 0.83120  0.07230  0.39200  Biso   1.000  C
  C15      1.0000 0.83120  0.42770  0.89200  Biso   1.000  C
  C16      1.0000 0.16880  0.92770  0.60800  Biso   1.000  C
  N17      1.0000 0.39190  0.65360  0.82990  Biso   1.000  N
  N18      1.0000 0.60810  0.15360  0.67010  Biso   1.000  N
  N19      1.0000 0.60810  0.34640  0.17010  Biso   1.000  N
  N20      1.0000 0.39190  0.84640  0.32990  Biso   1.000  N
  N21      1.0000 0.23220  0.11360  0.95300  Biso   1.000  N
  N22      1.0000 0.76780  0.61360  0.54700  Biso   1.000  N
  N23      1.0000 0.76780  0.88640  0.04700  Biso   1.000  N
  N24      1.0000 0.23220  0.38640  0.45300  Biso   1.000  N
  N25      1.0000 0.26410  0.55180  0.09400  Biso   1.000  N
  N26      1.0000 0.73590  0.05180  0.40600  Biso   1.000  N
  N27      1.0000 0.73590  0.44820  0.90600  Biso   1.000  N
  N28      1.0000 0.26410  0.94820  0.59400  Biso   1.000  N
  C17      1.0000 0.15740  0.96640  0.96460  Biso   1.000  C
  C18      1.0000 0.84260  0.46640  0.53540  Biso   1.000  C
  C19      1.0000 0.84260  0.03360  0.03540  Biso   1.000  C
  C20      1.0000 0.15740  0.53360  0.46460  Biso   1.000  C
  C21      1.0000 0.12580  0.12970  0.91630  Biso   1.000  C
  C22      1.0000 0.87420  0.62970  0.58370  Biso   1.000  C
  C23      1.0000 0.87420  0.87030  0.08370  Biso   1.000  C
  C24      1.0000 0.12580  0.37030  0.41630  Biso   1.000  C
  C25      1.0000 0.10120  0.59380  0.01110  Biso   1.000  C
  C26      1.0000 0.89880  0.09380  0.48890  Biso   1.000  C
  C27      1.0000 0.89880  0.40620  0.98890  Biso   1.000  C
  C28      1.0000 0.10120  0.90620  0.51110  Biso   1.000  C
  H5       1.0000 0.02990  0.61220  0.99600  Biso   1.000  H
  H6       1.0000 0.97010  0.11220  0.50400  Biso   1.000  H
  H7       1.0000 0.97010  0.38780  0.00400  Biso   1.000  H
  H8       1.0000 0.02990  0.88780  0.49600  Biso   1.000  H
  C29      1.0000 0.36330  0.52210  0.17020  Biso   1.000  C
  C30      1.0000 0.63670  0.02210  0.32980  Biso   1.000  C
  C31      1.0000 0.63670  0.47790  0.82980  Biso   1.000  C
  C32      1.0000 0.36330  0.97790  0.67020  Biso   1.000  C
  H9       1.0000 0.37640  0.44960  0.16250  Biso   1.000  H
  H10      1.0000 0.62360  0.94960  0.33750  Biso   1.000  H
  H11      1.0000 0.62360  0.55040  0.83750  Biso   1.000  H
  H12      1.0000 0.37640  0.05040  0.66250  Biso   1.000  H
  H13      1.0000 0.35610  0.53270  0.23940  Biso   1.000  H
  H14      1.0000 0.64390  0.03270  0.26060  Biso   1.000  H
  H15      1.0000 0.64390  0.46730  0.76060  Biso   1.000  H
  H16      1.0000 0.35610  0.96730  0.73940  Biso   1.000  H
  C33      1.0000 0.07980  0.23240  0.87740  Biso   1.000  C
  C34      1.0000 0.92020  0.73240  0.62260  Biso   1.000  C
  C35      1.0000 0.92020  0.76760  0.12260  Biso   1.000  C
  C36      1.0000 0.07980  0.26760  0.37740  Biso   1.000  C
  H17      1.0000 0.13630  0.28120  0.88400  Biso   1.000  H
  H18      1.0000 0.86370  0.78120  0.61600  Biso   1.000  H
  H19      1.0000 0.86370  0.71880  0.11600  Biso   1.000  H
  H20      1.0000 0.13630  0.21880  0.38400  Biso   1.000  H
  H21      1.0000 0.03360  0.25510  0.91730  Biso   1.000  H
  H22      1.0000 0.96640  0.75510  0.58270  Biso   1.000  H
  H23      1.0000 0.96640  0.74490  0.08270  Biso   1.000  H
  H24      1.0000 0.03360  0.24490  0.41730  Biso   1.000  H
  H25      1.0000 0.04010  0.22660  0.80580  Biso   1.000  H
  H26      1.0000 0.95990  0.72660  0.69420  Biso   1.000  H
  H27      1.0000 0.95990  0.77340  0.19420  Biso   1.000  H
  H28      1.0000 0.04010  0.27340  0.30580  Biso   1.000  H
  N29      1.0000 0.25310  0.01180  0.98380  Biso   1.000  N
  N30      1.0000 0.74690  0.51180  0.51620  Biso   1.000  N
  N31      1.0000 0.74690  0.98820  0.01620  Biso   1.000  N
  N32      1.0000 0.25310  0.48820  0.48380  Biso   1.000  N
  C37      1.0000 0.31940  0.18510  0.96680  Biso   1.000  C
  C38      1.0000 0.68060  0.68510  0.53320  Biso   1.000  C
  C39      1.0000 0.68060  0.81490  0.03320  Biso   1.000  C
  C40      1.0000 0.31940  0.31490  0.46680  Biso   1.000  C
  H29      1.0000 0.35870  0.18760  0.03950  Biso   1.000  H
  H30      1.0000 0.64130  0.68760  0.46050  Biso   1.000  H
  H31      1.0000 0.64130  0.81240  0.96050  Biso   1.000  H
  H32      1.0000 0.35870  0.31240  0.53950  Biso   1.000  H
  H33      1.0000 0.29150  0.25330  0.94630  Biso   1.000  H
  H34      1.0000 0.70850  0.75330  0.55370  Biso   1.000  H
  H35      1.0000 0.70850  0.74670  0.05370  Biso   1.000  H
  H36      1.0000 0.29150  0.24670  0.44630  Biso   1.000  H
  C41      1.0000 0.14640  0.85570  0.98870  Biso   1.000  C
  C42      1.0000 0.85360  0.35570  0.51130  Biso   1.000  C
  C43      1.0000 0.85360  0.14430  0.01130  Biso   1.000  C
  C44      1.0000 0.14640  0.64430  0.48870  Biso   1.000  C
  H37      1.0000 0.21560  0.82620  0.01700  Biso   1.000  H
  H38      1.0000 0.78440  0.32620  0.48300  Biso   1.000  H
  H39      1.0000 0.78440  0.17380  0.98300  Biso   1.000  H
  H40      1.0000 0.21560  0.67380  0.51700  Biso   1.000  H
  H41      1.0000 0.11030  0.81980  0.92630  Biso   1.000  H
  H42      1.0000 0.88970  0.31980  0.57370  Biso   1.000  H
  H43      1.0000 0.88970  0.18020  0.07370  Biso   1.000  H
  H44      1.0000 0.11030  0.68020  0.42630  Biso   1.000  H
  H45      1.0000 0.10610  0.84970  0.03810  Biso   1.000  H
  H46      1.0000 0.89390  0.34970  0.46190  Biso   1.000  H
  H47      1.0000 0.89390  0.15030  0.96190  Biso   1.000  H
  H48      1.0000 0.10610  0.65030  0.53810  Biso   1.000  H
  C45      1.0000 0.12210  0.59900  0.82640  Biso   1.000  C
  C46      1.0000 0.87790  0.09900  0.67360  Biso   1.000  C
  C47      1.0000 0.87790  0.40100  0.17360  Biso   1.000  C
  C48      1.0000 0.12210  0.90100  0.32640  Biso   1.000  C
  H49      1.0000 0.17920  0.58620  0.79620  Biso   1.000  H
  H50      1.0000 0.82080  0.08620  0.70380  Biso   1.000  H
  H51      1.0000 0.82080  0.41380  0.20380  Biso   1.000  H
  H52      1.0000 0.17920  0.91380  0.29620  Biso   1.000  H
  H53      1.0000 0.09820  0.66880  0.81260  Biso   1.000  H
  H54      1.0000 0.90180  0.16880  0.68740  Biso   1.000  H
  H55      1.0000 0.90180  0.33120  0.18740  Biso   1.000  H
  H56      1.0000 0.09820  0.83120  0.31260  Biso   1.000  H
  H57      1.0000 0.06440  0.55290  0.79710  Biso   1.000  H
  H58      1.0000 0.93560  0.05290  0.70290  Biso   1.000  H
  H59      1.0000 0.93560  0.44710  0.20290  Biso   1.000  H
  H60      1.0000 0.06440  0.94710  0.29710  Biso   1.000  H
  N33      1.0000 0.17550  0.17050  0.61970  Biso   1.000  N
  N34      1.0000 0.82450  0.67050  0.88030  Biso   1.000  N
  N35      1.0000 0.82450  0.82950  0.38030  Biso   1.000  N
  N36      1.0000 0.17550  0.32950  0.11970  Biso   1.000  N
  C49      1.0000 0.24220  0.38830  0.75430  Biso   1.000  C
  C50      1.0000 0.75780  0.88830  0.74570  Biso   1.000  C
  C51      1.0000 0.75780  0.61170  0.24570  Biso   1.000  C
  C52      1.0000 0.24220  0.11170  0.25430  Biso   1.000  C
  C53      1.0000 0.16050  0.58250  0.94110  Biso   1.000  C
  C54      1.0000 0.83950  0.08250  0.55890  Biso   1.000  C
  C55      1.0000 0.83950  0.41750  0.05890  Biso   1.000  C
  C56      1.0000 0.16050  0.91750  0.44110  Biso   1.000  C
  N37      1.0000 0.17230  0.35110  0.67290  Biso   1.000  N
  N38      1.0000 0.82770  0.85110  0.82710  Biso   1.000  N
  N39      1.0000 0.82770  0.64890  0.32710  Biso   1.000  N
  N40      1.0000 0.17230  0.14890  0.17290  Biso   1.000  N
  C57      1.0000 0.14820  0.56960  0.21140  Biso   1.000  C
  C58      1.0000 0.85180  0.06960  0.28860  Biso   1.000  C
  C59      1.0000 0.85180  0.43040  0.78860  Biso   1.000  C
  C60      1.0000 0.14820  0.93040  0.71140  Biso   1.000  C
  H61      1.0000 0.21260  0.55220  0.26330  Biso   1.000  H
  H62      1.0000 0.78740  0.05220  0.23670  Biso   1.000  H
  H63      1.0000 0.78740  0.44780  0.73670  Biso   1.000  H
  H64      1.0000 0.21260  0.94780  0.76330  Biso   1.000  H
  H65      1.0000 0.09480  0.51900  0.21110  Biso   1.000  H
  H66      1.0000 0.90520  0.01900  0.28890  Biso   1.000  H
  H67      1.0000 0.90520  0.48100  0.78890  Biso   1.000  H
  H68      1.0000 0.09480  0.98100  0.71110  Biso   1.000  H
  H69      1.0000 0.12400  0.63600  0.22650  Biso   1.000  H
  H70      1.0000 0.87600  0.13600  0.27350  Biso   1.000  H
  H71      1.0000 0.87600  0.36400  0.77350  Biso   1.000  H
  H72      1.0000 0.12400  0.86400  0.72650  Biso   1.000  H
  C61      1.0000 0.17910  0.25400  0.64800  Biso   1.000  C
  C62      1.0000 0.82090  0.75400  0.85200  Biso   1.000  C
  C63      1.0000 0.82090  0.74600  0.35200  Biso   1.000  C
  C64      1.0000 0.17910  0.24600  0.14800  Biso   1.000  C
  C65      1.0000 0.39430  0.15430  0.90310  Biso   1.000  C
  C66      1.0000 0.60570  0.65430  0.59690  Biso   1.000  C
  C67      1.0000 0.60570  0.84570  0.09690  Biso   1.000  C
  C68      1.0000 0.39430  0.34570  0.40310  Biso   1.000  C
  H73      1.0000 0.44710  0.20790  0.90810  Biso   1.000  H
  H74      1.0000 0.55290  0.70790  0.59190  Biso   1.000  H
  H75      1.0000 0.55290  0.79210  0.09190  Biso   1.000  H
  H76      1.0000 0.44710  0.29210  0.40810  Biso   1.000  H
  H77      1.0000 0.35420  0.14790  0.83090  Biso   1.000  H
  H78      1.0000 0.64580  0.64790  0.66910  Biso   1.000  H
  H79      1.0000 0.64580  0.85210  0.16910  Biso   1.000  H
  H80      1.0000 0.35420  0.35210  0.33090  Biso   1.000  H
  C69      1.0000 0.45650  0.58370  0.15760  Biso   1.000  C
  C70      1.0000 0.54350  0.08370  0.34240  Biso   1.000  C
  C71      1.0000 0.54350  0.41630  0.84240  Biso   1.000  C
  C72      1.0000 0.45650  0.91630  0.65760  Biso   1.000  C
  H81      1.0000 0.43860  0.65630  0.15340  Biso   1.000  H
  H82      1.0000 0.56140  0.15630  0.34660  Biso   1.000  H
  H83      1.0000 0.56140  0.34370  0.84660  Biso   1.000  H
  H84      1.0000 0.43860  0.84370  0.65340  Biso   1.000  H
  H85      1.0000 0.51700  0.57340  0.21760  Biso   1.000  H
  H86      1.0000 0.48300  0.07340  0.28240  Biso   1.000  H
  H87      1.0000 0.48300  0.42660  0.78240  Biso   1.000  H
  H88      1.0000 0.51700  0.92660  0.71760  Biso   1.000  H
