data_image0
_cell_length_a       10.6204
_cell_length_b       22.0127
_cell_length_c       11.9398
_cell_angle_alpha    90
_cell_angle_beta     107.253
_cell_angle_gamma    90

_symmetry_space_group_name_H-M    "P 1"
_symmetry_int_tables_number       1

loop_
  _symmetry_equiv_pos_as_xyz
  'x, y, z'

loop_
  _atom_site_label
  _atom_site_occupancy
  _atom_site_fract_x
  _atom_site_fract_y
  _atom_site_fract_z
  _atom_site_thermal_displace_type
  _atom_site_B_iso_or_equiv
  _atom_site_type_symbol
  Cu1      1.0000 0.69563  0.70363  0.20365  Biso   1.000  Cu
  Cu2      1.0000 0.80437  0.20363  0.29635  Biso   1.000  Cu
  Cu3      1.0000 0.30437  0.29637  0.79635  Biso   1.000  Cu
  Cu4      1.0000 0.19563  0.79637  0.70365  Biso   1.000  Cu
  P1       1.0000 0.54404  0.66664  0.39611  Biso   1.000  P
  P2       1.0000 0.95596  0.16664  0.10389  Biso   1.000  P
  P3       1.0000 0.45596  0.33336  0.60389  Biso   1.000  P
  P4       1.0000 0.04404  0.83336  0.89611  Biso   1.000  P
  P5       1.0000 0.39550  0.82508  0.54203  Biso   1.000  P
  P6       1.0000 0.10450  0.32508  0.95797  Biso   1.000  P
  P7       1.0000 0.60450  0.17492  0.45797  Biso   1.000  P
  P8       1.0000 0.89550  0.67492  0.04203  Biso   1.000  P
  N1       1.0000 0.71910  0.61380  0.21800  Biso   1.000  N
  N2       1.0000 0.78090  0.11380  0.28200  Biso   1.000  N
  N3       1.0000 0.28090  0.38620  0.78200  Biso   1.000  N
  N4       1.0000 0.21910  0.88620  0.71800  Biso   1.000  N
  N5       1.0000 0.79250  0.29553  0.28270  Biso   1.000  N
  N6       1.0000 0.70750  0.79553  0.21730  Biso   1.000  N
  N7       1.0000 0.20750  0.70447  0.71730  Biso   1.000  N
  N8       1.0000 0.29250  0.20447  0.78270  Biso   1.000  N
  O1       1.0000 0.61750  0.70459  0.33000  Biso   1.000  O
  O2       1.0000 0.88250  0.20459  0.17000  Biso   1.000  O
  O3       1.0000 0.38250  0.29541  0.67000  Biso   1.000  O
  O4       1.0000 0.11750  0.79541  0.83000  Biso   1.000  O
  O5       1.0000 0.42650  0.63207  0.32550  Biso   1.000  O
  O6       1.0000 0.07350  0.13207  0.17450  Biso   1.000  O
  O7       1.0000 0.57350  0.36793  0.67450  Biso   1.000  O
  O8       1.0000 0.92650  0.86793  0.82550  Biso   1.000  O
  O9       1.0000 0.31570  0.79090  0.60850  Biso   1.000  O
  O10      1.0000 0.18430  0.29090  0.89150  Biso   1.000  O
  O11      1.0000 0.68430  0.20910  0.39150  Biso   1.000  O
  O12      1.0000 0.81570  0.70910  0.10850  Biso   1.000  O
  O13      1.0000 0.52660  0.84823  0.61500  Biso   1.000  O
  O14      1.0000 0.97340  0.34823  0.88500  Biso   1.000  O
  O15      1.0000 0.47340  0.15177  0.38500  Biso   1.000  O
  O16      1.0000 0.02660  0.65177  0.11500  Biso   1.000  O
  O17      1.0000 0.51130  0.70410  0.05370  Biso   1.000  O
  O18      1.0000 0.98870  0.20410  0.44630  Biso   1.000  O
  O19      1.0000 0.48870  0.29590  0.94630  Biso   1.000  O
  O20      1.0000 0.01130  0.79590  0.55370  Biso   1.000  O
  H1       1.0000 0.43900  0.70000  0.06200  Biso   1.000  H
  H2       1.0000 0.06100  0.20000  0.43800  Biso   1.000  H
  H3       1.0000 0.56100  0.30000  0.93800  Biso   1.000  H
  H4       1.0000 0.93900  0.80000  0.56200  Biso   1.000  H
  H5       1.0000 0.51900  0.72500  0.00000  Biso   1.000  H
  H6       1.0000 0.98100  0.22500  0.50000  Biso   1.000  H
  H7       1.0000 0.48100  0.27500  0.00000  Biso   1.000  H
  H8       1.0000 0.01900  0.77500  0.50000  Biso   1.000  H
  O21      1.0000 0.16570  0.63310  0.34580  Biso   1.000  O
  O22      1.0000 0.33430  0.13310  0.15420  Biso   1.000  O
  O23      1.0000 0.83430  0.36690  0.65420  Biso   1.000  O
  O24      1.0000 0.66570  0.86690  0.84580  Biso   1.000  O
  H9       1.0000 0.12900  0.62800  0.27600  Biso   1.000  H
  H10      1.0000 0.37100  0.12800  0.22400  Biso   1.000  H
  H11      1.0000 0.87100  0.37200  0.72400  Biso   1.000  H
  H12      1.0000 0.62900  0.87200  0.77600  Biso   1.000  H
  H13      1.0000 0.24200  0.63100  0.34300  Biso   1.000  H
  H14      1.0000 0.25800  0.13100  0.15700  Biso   1.000  H
  H15      1.0000 0.75800  0.36900  0.65700  Biso   1.000  H
  H16      1.0000 0.74200  0.86900  0.84300  Biso   1.000  H
  O25      1.0000 0.00880  0.73640  0.34590  Biso   1.000  O
  O26      1.0000 0.49120  0.23640  0.15410  Biso   1.000  O
  O27      1.0000 0.99120  0.26360  0.65410  Biso   1.000  O
  O28      1.0000 0.50880  0.76360  0.84590  Biso   1.000  O
  H17      1.0000 0.06300  0.71000  0.34800  Biso   1.000  H
  H18      1.0000 0.43700  0.21000  0.15200  Biso   1.000  H
  H19      1.0000 0.93700  0.29000  0.65200  Biso   1.000  H
  H20      1.0000 0.56300  0.79000  0.84800  Biso   1.000  H
  H21      1.0000 0.95900  0.73400  0.28100  Biso   1.000  H
  H22      1.0000 0.54100  0.23400  0.21900  Biso   1.000  H
  H23      1.0000 0.04100  0.26600  0.71900  Biso   1.000  H
  H24      1.0000 0.45900  0.76600  0.78100  Biso   1.000  H
  O29      1.0000 0.28750  0.66730  0.10480  Biso   1.000  O
  O30      1.0000 0.21250  0.16730  0.39520  Biso   1.000  O
  O31      1.0000 0.71250  0.33270  0.89520  Biso   1.000  O
  O32      1.0000 0.78750  0.83270  0.60480  Biso   1.000  O
  H25      1.0000 0.21300  0.65600  0.10200  Biso   1.000  H
  H26      1.0000 0.28700  0.15600  0.39800  Biso   1.000  H
  H27      1.0000 0.78700  0.34400  0.89800  Biso   1.000  H
  H28      1.0000 0.71300  0.84400  0.60200  Biso   1.000  H
  H29      1.0000 0.30000  0.69600  0.15100  Biso   1.000  H
  H30      1.0000 0.20000  0.19600  0.34900  Biso   1.000  H
  H31      1.0000 0.70000  0.30400  0.84900  Biso   1.000  H
  H32      1.0000 0.80000  0.80400  0.65100  Biso   1.000  H
  C1       1.0000 0.49990  0.71780  0.49510  Biso   1.000  C
  C2       1.0000 0.00010  0.21780  0.00490  Biso   1.000  C
  C3       1.0000 0.50010  0.28220  0.50490  Biso   1.000  C
  C4       1.0000 0.99990  0.78220  0.99510  Biso   1.000  C
  H33      1.0000 0.44930  0.69570  0.53730  Biso   1.000  H
  H34      1.0000 0.05070  0.19570  0.96270  Biso   1.000  H
  H35      1.0000 0.55070  0.30430  0.46270  Biso   1.000  H
  H36      1.0000 0.94930  0.80430  0.03730  Biso   1.000  H
  H37      1.0000 0.57980  0.73210  0.55210  Biso   1.000  H
  H38      1.0000 0.92020  0.23210  0.94790  Biso   1.000  H
  H39      1.0000 0.42020  0.26790  0.44790  Biso   1.000  H
  H40      1.0000 0.07980  0.76790  0.05210  Biso   1.000  H
  C5       1.0000 0.41990  0.77250  0.43540  Biso   1.000  C
  C6       1.0000 0.08010  0.27250  0.06460  Biso   1.000  C
  C7       1.0000 0.58010  0.22750  0.56460  Biso   1.000  C
  C8       1.0000 0.91990  0.72750  0.93540  Biso   1.000  C
  H41      1.0000 0.33500  0.75890  0.38520  Biso   1.000  H
  H42      1.0000 0.16500  0.25890  0.11480  Biso   1.000  H
  H43      1.0000 0.66500  0.24110  0.61480  Biso   1.000  H
  H44      1.0000 0.83500  0.74110  0.88520  Biso   1.000  H
  H45      1.0000 0.46570  0.79270  0.38670  Biso   1.000  H
  H46      1.0000 0.03430  0.29270  0.11330  Biso   1.000  H
  H47      1.0000 0.53430  0.20730  0.61330  Biso   1.000  H
  H48      1.0000 0.96570  0.70730  0.88670  Biso   1.000  H
  C9       1.0000 0.65900  0.61479  0.49140  Biso   1.000  C
  C10      1.0000 0.84100  0.11479  0.00860  Biso   1.000  C
  C11      1.0000 0.34100  0.38521  0.50860  Biso   1.000  C
  C12      1.0000 0.15900  0.88521  0.99140  Biso   1.000  C
  C13      1.0000 0.62860  0.55332  0.48990  Biso   1.000  C
  C14      1.0000 0.87140  0.05332  0.01010  Biso   1.000  C
  C15      1.0000 0.37140  0.44668  0.51010  Biso   1.000  C
  C16      1.0000 0.12860  0.94668  0.98990  Biso   1.000  C
  H49      1.0000 0.55020  0.53890  0.43870  Biso   1.000  H
  H50      1.0000 0.94980  0.03890  0.06130  Biso   1.000  H
  H51      1.0000 0.44980  0.46110  0.56130  Biso   1.000  H
  H52      1.0000 0.05020  0.96110  0.93870  Biso   1.000  H
  C17      1.0000 0.71530  0.51342  0.56490  Biso   1.000  C
  C18      1.0000 0.78470  0.01342  0.93510  Biso   1.000  C
  C19      1.0000 0.28470  0.48658  0.43510  Biso   1.000  C
  C20      1.0000 0.21530  0.98658  0.06490  Biso   1.000  C
  H53      1.0000 0.69490  0.47230  0.56390  Biso   1.000  H
  H54      1.0000 0.80510  0.97230  0.93610  Biso   1.000  H
  H55      1.0000 0.30510  0.52770  0.43610  Biso   1.000  H
  H56      1.0000 0.19490  0.02770  0.06390  Biso   1.000  H
  C21      1.0000 0.83240  0.53500  0.64130  Biso   1.000  C
  C22      1.0000 0.66760  0.03500  0.85870  Biso   1.000  C
  C23      1.0000 0.16760  0.46500  0.35870  Biso   1.000  C
  C24      1.0000 0.33240  0.96500  0.14130  Biso   1.000  C
  H57      1.0000 0.89040  0.50830  0.69150  Biso   1.000  H
  H58      1.0000 0.60960  0.00830  0.80850  Biso   1.000  H
  H59      1.0000 0.10960  0.49170  0.30850  Biso   1.000  H
  H60      1.0000 0.39040  0.99170  0.19150  Biso   1.000  H
  C25      1.0000 0.86280  0.59640  0.64280  Biso   1.000  C
  C26      1.0000 0.63720  0.09640  0.85720  Biso   1.000  C
  C27      1.0000 0.13720  0.40360  0.35720  Biso   1.000  C
  C28      1.0000 0.36280  0.90360  0.14280  Biso   1.000  C
  H61      1.0000 0.94120  0.61090  0.69400  Biso   1.000  H
  H62      1.0000 0.55880  0.11090  0.80600  Biso   1.000  H
  H63      1.0000 0.05880  0.38910  0.30600  Biso   1.000  H
  H64      1.0000 0.44120  0.88910  0.19400  Biso   1.000  H
  C29      1.0000 0.77610  0.63635  0.56780  Biso   1.000  C
  C30      1.0000 0.72390  0.13635  0.93220  Biso   1.000  C
  C31      1.0000 0.22390  0.36365  0.43220  Biso   1.000  C
  C32      1.0000 0.27610  0.86365  0.06780  Biso   1.000  C
  H65      1.0000 0.79650  0.67750  0.56880  Biso   1.000  H
  H66      1.0000 0.70350  0.17750  0.93120  Biso   1.000  H
  H67      1.0000 0.20350  0.32250  0.43120  Biso   1.000  H
  H68      1.0000 0.29650  0.82250  0.06880  Biso   1.000  H
  C33      1.0000 0.30340  0.88820  0.46130  Biso   1.000  C
  C34      1.0000 0.19660  0.38820  0.03870  Biso   1.000  C
  C35      1.0000 0.69660  0.11180  0.53870  Biso   1.000  C
  C36      1.0000 0.80340  0.61180  0.96130  Biso   1.000  C
  C37      1.0000 0.18330  0.87912  0.37620  Biso   1.000  C
  C38      1.0000 0.31670  0.37912  0.12380  Biso   1.000  C
  C39      1.0000 0.81670  0.12088  0.62380  Biso   1.000  C
  C40      1.0000 0.68330  0.62088  0.87620  Biso   1.000  C
  H69      1.0000 0.14840  0.84020  0.36120  Biso   1.000  H
  H70      1.0000 0.35160  0.34020  0.13880  Biso   1.000  H
  H71      1.0000 0.85160  0.15980  0.63880  Biso   1.000  H
  H72      1.0000 0.64840  0.65980  0.86120  Biso   1.000  H
  C41      1.0000 0.11520  0.92820  0.31340  Biso   1.000  C
  C42      1.0000 0.38480  0.42820  0.18660  Biso   1.000  C
  C43      1.0000 0.88480  0.07180  0.68660  Biso   1.000  C
  C44      1.0000 0.61520  0.57180  0.81340  Biso   1.000  C
  H73      1.0000 0.03480  0.92220  0.25640  Biso   1.000  H
  H74      1.0000 0.46520  0.42220  0.24360  Biso   1.000  H
  H75      1.0000 0.96520  0.07780  0.74360  Biso   1.000  H
  H76      1.0000 0.53480  0.57780  0.75640  Biso   1.000  H
  C45      1.0000 0.16730  0.98645  0.33570  Biso   1.000  C
  C46      1.0000 0.33270  0.48645  0.16430  Biso   1.000  C
  C47      1.0000 0.83270  0.01355  0.66430  Biso   1.000  C
  C48      1.0000 0.66730  0.51355  0.83570  Biso   1.000  C
  H77      1.0000 0.12180  0.01930  0.29370  Biso   1.000  H
  H78      1.0000 0.37820  0.51930  0.20630  Biso   1.000  H
  H79      1.0000 0.87820  0.98070  0.70630  Biso   1.000  H
  H80      1.0000 0.62180  0.48070  0.79370  Biso   1.000  H
  C49      1.0000 0.28750  0.99554  0.42080  Biso   1.000  C
  C50      1.0000 0.21250  0.49554  0.07920  Biso   1.000  C
  C51      1.0000 0.71250  0.00446  0.57920  Biso   1.000  C
  C52      1.0000 0.78750  0.50446  0.92080  Biso   1.000  C
  H81      1.0000 0.32240  0.03450  0.43580  Biso   1.000  H
  H82      1.0000 0.17760  0.53450  0.06420  Biso   1.000  H
  H83      1.0000 0.67760  0.96550  0.56420  Biso   1.000  H
  H84      1.0000 0.82240  0.46550  0.93580  Biso   1.000  H
  C53      1.0000 0.35550  0.94642  0.48360  Biso   1.000  C
  C54      1.0000 0.14450  0.44642  0.01640  Biso   1.000  C
  C55      1.0000 0.64450  0.05358  0.51640  Biso   1.000  C
  C56      1.0000 0.85550  0.55358  0.98360  Biso   1.000  C
  H85      1.0000 0.43590  0.95250  0.54060  Biso   1.000  H
  H86      1.0000 0.06410  0.45250  0.95940  Biso   1.000  H
  H87      1.0000 0.56410  0.04750  0.45940  Biso   1.000  H
  H88      1.0000 0.93590  0.54750  0.04060  Biso   1.000  H
  C57      1.0000 0.63470  0.57490  0.14710  Biso   1.000  C
  C58      1.0000 0.86530  0.07490  0.35290  Biso   1.000  C
  C59      1.0000 0.36530  0.42510  0.85290  Biso   1.000  C
  C60      1.0000 0.13470  0.92510  0.64710  Biso   1.000  C
  H89      1.0000 0.56300  0.59030  0.08870  Biso   1.000  H
  H90      1.0000 0.93700  0.09030  0.41130  Biso   1.000  H
  H91      1.0000 0.43700  0.40970  0.91130  Biso   1.000  H
  H92      1.0000 0.06300  0.90970  0.58870  Biso   1.000  H
  C61      1.0000 0.65120  0.51310  0.15840  Biso   1.000  C
  C62      1.0000 0.84880  0.01310  0.34160  Biso   1.000  C
  C63      1.0000 0.34880  0.48690  0.84160  Biso   1.000  C
  C64      1.0000 0.15120  0.98690  0.65840  Biso   1.000  C
  H93      1.0000 0.59160  0.48770  0.10660  Biso   1.000  H
  H94      1.0000 0.90840  0.98770  0.39340  Biso   1.000  H
  H95      1.0000 0.40840  0.51230  0.89340  Biso   1.000  H
  H96      1.0000 0.09160  0.01230  0.60660  Biso   1.000  H
  C65      1.0000 0.75410  0.48810  0.24490  Biso   1.000  C
  C66      1.0000 0.74590  0.98810  0.25510  Biso   1.000  C
  C67      1.0000 0.24590  0.51190  0.75510  Biso   1.000  C
  C68      1.0000 0.25410  0.01190  0.74490  Biso   1.000  C
  C69      1.0000 0.84170  0.52820  0.31870  Biso   1.000  C
  C70      1.0000 0.65830  0.02820  0.18130  Biso   1.000  C
  C71      1.0000 0.15830  0.47180  0.68130  Biso   1.000  C
  C72      1.0000 0.34170  0.97180  0.81870  Biso   1.000  C
  H97      1.0000 0.91200  0.51370  0.37950  Biso   1.000  H
  H98      1.0000 0.58800  0.01370  0.12050  Biso   1.000  H
  H99      1.0000 0.08800  0.48630  0.62050  Biso   1.000  H
  H100     1.0000 0.41200  0.98630  0.87950  Biso   1.000  H
  C73      1.0000 0.82250  0.59000  0.30030  Biso   1.000  C
  C74      1.0000 0.67750  0.09000  0.19970  Biso   1.000  C
  C75      1.0000 0.17750  0.41000  0.69970  Biso   1.000  C
  C76      1.0000 0.32250  0.91000  0.80030  Biso   1.000  C
  H101     1.0000 0.88430  0.61640  0.34730  Biso   1.000  H
  H102     1.0000 0.61570  0.11640  0.15270  Biso   1.000  H
  H103     1.0000 0.11570  0.38360  0.65270  Biso   1.000  H
  H104     1.0000 0.38430  0.88360  0.84730  Biso   1.000  H
  C77      1.0000 0.77030  0.42180  0.25990  Biso   1.000  C
  C78      1.0000 0.72970  0.92180  0.24010  Biso   1.000  C
  C79      1.0000 0.22970  0.57820  0.74010  Biso   1.000  C
  C80      1.0000 0.27030  0.07820  0.75990  Biso   1.000  C
  C81      1.0000 0.79640  0.39310  0.36730  Biso   1.000  C
  C82      1.0000 0.70360  0.89310  0.13270  Biso   1.000  C
  C83      1.0000 0.20360  0.60690  0.63270  Biso   1.000  C
  C84      1.0000 0.29640  0.10690  0.86730  Biso   1.000  C
  H105     1.0000 0.80790  0.41630  0.43480  Biso   1.000  H
  H106     1.0000 0.69210  0.91630  0.06520  Biso   1.000  H
  H107     1.0000 0.19210  0.58370  0.56520  Biso   1.000  H
  H108     1.0000 0.30790  0.08370  0.93480  Biso   1.000  H
  C85      1.0000 0.80560  0.33150  0.37570  Biso   1.000  C
  C86      1.0000 0.69440  0.83150  0.12430  Biso   1.000  C
  C87      1.0000 0.19440  0.66850  0.62430  Biso   1.000  C
  C88      1.0000 0.30560  0.16850  0.87570  Biso   1.000  C
  H109     1.0000 0.82160  0.31370  0.44920  Biso   1.000  H
  H110     1.0000 0.67840  0.81370  0.05080  Biso   1.000  H
  H111     1.0000 0.17840  0.68630  0.55080  Biso   1.000  H
  H112     1.0000 0.32160  0.18630  0.94920  Biso   1.000  H
  C89      1.0000 0.76970  0.32260  0.17710  Biso   1.000  C
  C90      1.0000 0.73030  0.82260  0.32290  Biso   1.000  C
  C91      1.0000 0.23030  0.67740  0.82290  Biso   1.000  C
  C92      1.0000 0.26970  0.17740  0.67710  Biso   1.000  C
  H113     1.0000 0.76360  0.29860  0.11170  Biso   1.000  H
  H114     1.0000 0.73640  0.79860  0.38830  Biso   1.000  H
  H115     1.0000 0.23640  0.70140  0.88830  Biso   1.000  H
  H116     1.0000 0.26360  0.20140  0.61170  Biso   1.000  H
  C93      1.0000 0.75510  0.38430  0.16280  Biso   1.000  C
  C94      1.0000 0.74490  0.88430  0.33720  Biso   1.000  C
  C95      1.0000 0.24490  0.61570  0.83720  Biso   1.000  C
  C96      1.0000 0.25510  0.11570  0.66280  Biso   1.000  C
  H117     1.0000 0.73500  0.40110  0.08810  Biso   1.000  H
  H118     1.0000 0.76500  0.90110  0.41190  Biso   1.000  H
  H119     1.0000 0.26500  0.59890  0.91190  Biso   1.000  H
  H120     1.0000 0.23500  0.09890  0.58810  Biso   1.000  H
