data_image0
_cell_length_a       20.845
_cell_length_b       13.503
_cell_length_c       22.01
_cell_angle_alpha    90
_cell_angle_beta     116.196
_cell_angle_gamma    90

_symmetry_space_group_name_H-M    "P 1"
_symmetry_int_tables_number       1

loop_
  _symmetry_equiv_pos_as_xyz
  'x, y, z'

loop_
  _atom_site_label
  _atom_site_occupancy
  _atom_site_fract_x
  _atom_site_fract_y
  _atom_site_fract_z
  _atom_site_thermal_displace_type
  _atom_site_B_iso_or_equiv
  _atom_site_type_symbol
  Cu1      1.0000 0.12162  0.94567  0.24922  Biso   1.000  Cu
  Cu2      1.0000 0.87838  0.44567  0.75078  Biso   1.000  Cu
  N1       1.0000 0.88650  0.45080  0.66430  Biso   1.000  N
  N2       1.0000 0.11350  0.95080  0.33570  Biso   1.000  N
  C1       1.0000 0.94790  0.47140  0.66180  Biso   1.000  C
  C2       1.0000 0.05210  0.97140  0.33820  Biso   1.000  C
  H1       1.0000 0.98850  0.48150  0.70240  Biso   1.000  H
  H2       1.0000 0.01150  0.98150  0.29760  Biso   1.000  H
  C3       1.0000 0.95440  0.47840  0.60270  Biso   1.000  C
  C4       1.0000 0.04560  0.97840  0.39730  Biso   1.000  C
  H3       1.0000 0.99880  0.49120  0.60380  Biso   1.000  H
  H4       1.0000 0.00120  0.99120  0.39620  Biso   1.000  H
  C5       1.0000 0.89580  0.46660  0.54250  Biso   1.000  C
  C6       1.0000 0.10420  0.96660  0.45750  Biso   1.000  C
  C7       1.0000 0.83130  0.44280  0.54380  Biso   1.000  C
  C8       1.0000 0.16870  0.94280  0.45620  Biso   1.000  C
  H5       1.0000 0.79060  0.43060  0.50370  Biso   1.000  H
  H6       1.0000 0.20940  0.93060  0.49630  Biso   1.000  H
  C9       1.0000 0.82880  0.43750  0.60460  Biso   1.000  C
  C10      1.0000 0.17120  0.93750  0.39540  Biso   1.000  C
  H7       1.0000 0.78510  0.42420  0.60480  Biso   1.000  H
  H8       1.0000 0.21490  0.92420  0.39520  Biso   1.000  H
  N3       1.0000 0.88430  0.43510  0.84340  Biso   1.000  N
  N4       1.0000 0.11570  0.93510  0.15660  Biso   1.000  N
  C11      1.0000 0.94520  0.45470  0.89540  Biso   1.000  C
  C12      1.0000 0.05480  0.95470  0.10460  Biso   1.000  C
  H9       1.0000 0.98450  0.46830  0.88730  Biso   1.000  H
  H10      1.0000 0.01550  0.96830  0.11270  Biso   1.000  H
  C13      1.0000 0.95460  0.45670  0.96160  Biso   1.000  C
  C14      1.0000 0.04540  0.95670  0.03840  Biso   1.000  C
  H11      1.0000 0.99890  0.47200  0.99690  Biso   1.000  H
  H12      1.0000 0.00110  0.97200  0.00310  Biso   1.000  H
  C15      1.0000 0.89660  0.43530  0.97430  Biso   1.000  C
  C16      1.0000 0.10340  0.93530  0.02570  Biso   1.000  C
  C17      1.0000 0.83380  0.41240  0.92100  Biso   1.000  C
  C18      1.0000 0.16620  0.91240  0.07900  Biso   1.000  C
  H13      1.0000 0.79400  0.39610  0.92770  Biso   1.000  H
  H14      1.0000 0.20600  0.89610  0.07230  Biso   1.000  H
  C19      1.0000 0.82940  0.41360  0.85560  Biso   1.000  C
  C20      1.0000 0.17060  0.91360  0.14440  Biso   1.000  C
  H15      1.0000 0.78590  0.39860  0.81920  Biso   1.000  H
  H16      1.0000 0.21410  0.89860  0.18080  Biso   1.000  H
  P1       1.0000 0.10064  0.17810  0.21404  Biso   1.000  P
  P2       1.0000 0.89936  0.67810  0.78596  Biso   1.000  P
  C21      1.0000 0.06360  0.19570  0.12270  Biso   1.000  C
  C22      1.0000 0.93640  0.69570  0.87730  Biso   1.000  C
  C23      1.0000 0.99030  0.18790  0.08280  Biso   1.000  C
  C24      1.0000 0.00970  0.68790  0.91720  Biso   1.000  C
  H17      1.0000 0.96010  0.17480  0.10280  Biso   1.000  H
  H18      1.0000 0.03990  0.67480  0.89720  Biso   1.000  H
  C25      1.0000 0.96210  0.19980  0.01300  Biso   1.000  C
  C26      1.0000 0.03790  0.69980  0.98700  Biso   1.000  C
  H19      1.0000 0.91310  0.19450  0.98630  Biso   1.000  H
  H20      1.0000 0.08690  0.69450  0.01370  Biso   1.000  H
  C27      1.0000 0.00720  0.21940  0.98320  Biso   1.000  C
  C28      1.0000 0.99280  0.71940  0.01680  Biso   1.000  C
  H21      1.0000 0.98840  0.22730  0.93650  Biso   1.000  H
  H22      1.0000 0.01160  0.72730  0.06350  Biso   1.000  H
  C29      1.0000 0.08050  0.22730  0.02310  Biso   1.000  C
  C30      1.0000 0.91950  0.72730  0.97690  Biso   1.000  C
  H23      1.0000 0.11070  0.24040  0.00310  Biso   1.000  H
  H24      1.0000 0.88930  0.74040  0.99690  Biso   1.000  H
  C31      1.0000 0.10870  0.21540  0.09280  Biso   1.000  C
  C32      1.0000 0.89130  0.71540  0.90720  Biso   1.000  C
  H25      1.0000 0.15770  0.22070  0.11950  Biso   1.000  H
  H26      1.0000 0.84230  0.72070  0.88050  Biso   1.000  H
  O1       1.0000 0.07670  0.07690  0.22670  Biso   1.000  O
  O2       1.0000 0.92330  0.57690  0.77330  Biso   1.000  O
  O3       1.0000 0.17890  0.19940  0.24700  Biso   1.000  O
  O4       1.0000 0.82110  0.69940  0.75300  Biso   1.000  O
  C33      1.0000 0.05480  0.26770  0.24190  Biso   1.000  C
  C34      1.0000 0.94520  0.76770  0.75810  Biso   1.000  C
  H27      1.0000 0.06230  0.33340  0.22840  Biso   1.000  H
  H28      1.0000 0.93770  0.83340  0.77160  Biso   1.000  H
  H29      1.0000 0.00390  0.25420  0.21970  Biso   1.000  H
  H30      1.0000 0.99610  0.75420  0.78030  Biso   1.000  H
  C35      1.0000 0.08080  0.26570  0.31880  Biso   1.000  C
  C36      1.0000 0.91920  0.76570  0.68120  Biso   1.000  C
  H31      1.0000 0.12670  0.29890  0.34110  Biso   1.000  H
  H32      1.0000 0.87330  0.79890  0.65890  Biso   1.000  H
  H33      1.0000 0.08670  0.19780  0.33460  Biso   1.000  H
  H34      1.0000 0.91330  0.69780  0.66540  Biso   1.000  H
  P3       1.0000 0.01617  0.32750  0.33904  Biso   1.000  P
  P4       1.0000 0.98383  0.82750  0.66096  Biso   1.000  P
  C37      1.0000 0.05620  0.34340  0.43020  Biso   1.000  C
  C38      1.0000 0.94380  0.84340  0.56980  Biso   1.000  C
  C39      1.0000 0.03310  0.28580  0.46900  Biso   1.000  C
  C40      1.0000 0.96690  0.78580  0.53100  Biso   1.000  C
  H35      1.0000 0.99890  0.23670  0.44860  Biso   1.000  H
  H36      1.0000 0.00110  0.73670  0.55140  Biso   1.000  H
  C41      1.0000 0.06100  0.30150  0.53840  Biso   1.000  C
  C42      1.0000 0.93900  0.80150  0.46160  Biso   1.000  C
  H37      1.0000 0.04560  0.26300  0.56440  Biso   1.000  H
  H38      1.0000 0.95440  0.76300  0.43560  Biso   1.000  H
  C43      1.0000 0.11200  0.37480  0.56900  Biso   1.000  C
  C44      1.0000 0.88800  0.87480  0.43100  Biso   1.000  C
  H39      1.0000 0.13070  0.38530  0.61540  Biso   1.000  H
  H40      1.0000 0.86930  0.88530  0.38460  Biso   1.000  H
  C45      1.0000 0.13510  0.43240  0.53010  Biso   1.000  C
  C46      1.0000 0.86490  0.93240  0.46990  Biso   1.000  C
  H41      1.0000 0.16930  0.48150  0.55050  Biso   1.000  H
  H42      1.0000 0.83070  0.98150  0.44950  Biso   1.000  H
  C47      1.0000 0.10720  0.41670  0.46070  Biso   1.000  C
  C48      1.0000 0.89280  0.91670  0.53930  Biso   1.000  C
  H43      1.0000 0.12270  0.45530  0.43470  Biso   1.000  H
  H44      1.0000 0.87730  0.95530  0.56530  Biso   1.000  H
  O5       1.0000 0.00630  0.43150  0.30860  Biso   1.000  O
  O6       1.0000 0.99370  0.93150  0.69140  Biso   1.000  O
  O7       1.0000 0.95230  0.26360  0.31750  Biso   1.000  O
  O8       1.0000 0.04770  0.76360  0.68250  Biso   1.000  O
  Cu3      1.0000 0.90967  0.48419  0.26345  Biso   1.000  Cu
  Cu4      1.0000 0.09033  0.98419  0.73655  Biso   1.000  Cu
  N5       1.0000 0.90370  0.48530  0.35240  Biso   1.000  N
  N6       1.0000 0.09630  0.98530  0.64760  Biso   1.000  N
  C49      1.0000 0.85610  0.42850  0.36000  Biso   1.000  C
  C50      1.0000 0.14390  0.92850  0.64000  Biso   1.000  C
  H45      1.0000 0.82380  0.39270  0.32300  Biso   1.000  H
  H46      1.0000 0.17620  0.89270  0.67700  Biso   1.000  H
  C51      1.0000 0.85270  0.42070  0.42050  Biso   1.000  C
  C52      1.0000 0.14730  0.92070  0.57950  Biso   1.000  C
  H47      1.0000 0.81860  0.37950  0.42390  Biso   1.000  H
  H48      1.0000 0.18140  0.87950  0.57610  Biso   1.000  H
  C53      1.0000 0.89800  0.47170  0.47530  Biso   1.000  C
  C54      1.0000 0.10200  0.97170  0.52470  Biso   1.000  C
  C55      1.0000 0.94930  0.53030  0.46790  Biso   1.000  C
  C56      1.0000 0.05070  0.03030  0.53210  Biso   1.000  C
  H49      1.0000 0.98290  0.56560  0.50430  Biso   1.000  H
  H50      1.0000 0.01710  0.06560  0.49570  Biso   1.000  H
  C57      1.0000 0.94850  0.53440  0.40420  Biso   1.000  C
  C58      1.0000 0.05150  0.03440  0.59580  Biso   1.000  C
  H51      1.0000 0.98190  0.57430  0.39880  Biso   1.000  H
  H52      1.0000 0.01810  0.07430  0.60120  Biso   1.000  H
  N7       1.0000 0.91110  0.45910  0.17400  Biso   1.000  N
  N8       1.0000 0.08890  0.95910  0.82600  Biso   1.000  N
  C59      1.0000 0.86570  0.39510  0.12870  Biso   1.000  C
  C60      1.0000 0.13430  0.89510  0.87130  Biso   1.000  C
  H53      1.0000 0.83610  0.35730  0.14120  Biso   1.000  H
  H54      1.0000 0.16390  0.85730  0.85880  Biso   1.000  H
  C61      1.0000 0.86080  0.38300  0.06510  Biso   1.000  C
  C62      1.0000 0.13920  0.88300  0.93490  Biso   1.000  C
  H55      1.0000 0.82890  0.33730  0.03550  Biso   1.000  H
  H56      1.0000 0.17110  0.83730  0.96450  Biso   1.000  H
  C63      1.0000 0.90380  0.43920  0.04500  Biso   1.000  C
  C64      1.0000 0.09620  0.93920  0.95500  Biso   1.000  C
  C65      1.0000 0.95180  0.50100  0.09270  Biso   1.000  C
  C66      1.0000 0.04820  0.00100  0.90730  Biso   1.000  C
  H57      1.0000 0.98420  0.53670  0.08280  Biso   1.000  H
  H58      1.0000 0.01580  0.03670  0.91720  Biso   1.000  H
  C67      1.0000 0.95240  0.51020  0.15440  Biso   1.000  C
  C68      1.0000 0.04760  0.01020  0.84560  Biso   1.000  C
  H59      1.0000 0.98390  0.55560  0.18460  Biso   1.000  H
  H60      1.0000 0.01610  0.05560  0.81540  Biso   1.000  H
  O9       1.0000 0.80690  0.51130  0.21720  Biso   1.000  O
  O10      1.0000 0.19310  0.01130  0.78280  Biso   1.000  O
  P5       1.0000 0.76400  0.58650  0.17780  Biso   1.000  P
  P6       1.0000 0.23600  0.08650  0.82220  Biso   1.000  P
  O11      1.0000 0.80350  0.68330  0.19710  Biso   1.000  O
  O12      1.0000 0.19650  0.18330  0.80290  Biso   1.000  O
  C69      1.0000 0.73620  0.56270  0.08820  Biso   1.000  C
  C70      1.0000 0.26380  0.06270  0.91180  Biso   1.000  C
  C71      1.0000 0.76630  0.62320  0.05670  Biso   1.000  C
  C72      1.0000 0.23370  0.12320  0.94330  Biso   1.000  C
  H61      1.0000 0.79730  0.67390  0.08080  Biso   1.000  H
  H62      1.0000 0.20270  0.17390  0.91920  Biso   1.000  H
  C73      1.0000 0.75020  0.60800  0.98900  Biso   1.000  C
  C74      1.0000 0.24980  0.10800  0.01100  Biso   1.000  C
  H63      1.0000 0.77040  0.64850  0.96780  Biso   1.000  H
  H64      1.0000 0.22960  0.14850  0.03220  Biso   1.000  H
  C75      1.0000 0.70390  0.53220  0.95290  Biso   1.000  C
  C76      1.0000 0.29610  0.03220  0.04710  Biso   1.000  C
  H65      1.0000 0.69310  0.52210  0.90760  Biso   1.000  H
  H66      1.0000 0.30690  0.02210  0.09240  Biso   1.000  H
  C77      1.0000 0.67380  0.47170  0.98450  Biso   1.000  C
  C78      1.0000 0.32620  0.97170  0.01550  Biso   1.000  C
  H67      1.0000 0.64280  0.42100  0.96030  Biso   1.000  H
  H68      1.0000 0.35720  0.92100  0.03970  Biso   1.000  H
  C79      1.0000 0.68990  0.48690  0.05210  Biso   1.000  C
  C80      1.0000 0.31010  0.98690  0.94790  Biso   1.000  C
  H69      1.0000 0.66980  0.44640  0.07330  Biso   1.000  H
  H70      1.0000 0.33020  0.94640  0.92670  Biso   1.000  H
  C81      1.0000 0.68010  0.58310  0.19090  Biso   1.000  C
  C82      1.0000 0.31990  0.08310  0.80910  Biso   1.000  C
  H71      1.0000 0.68960  0.64780  0.17750  Biso   1.000  H
  H72      1.0000 0.31040  0.14780  0.82250  Biso   1.000  H
  H73      1.0000 0.63020  0.56700  0.16340  Biso   1.000  H
  H74      1.0000 0.36980  0.06700  0.83660  Biso   1.000  H
  C83      1.0000 0.69740  0.58310  0.26690  Biso   1.000  C
  C84      1.0000 0.30260  0.08310  0.73310  Biso   1.000  C
  H75      1.0000 0.74670  0.60290  0.29330  Biso   1.000  H
  H76      1.0000 0.25330  0.10290  0.70670  Biso   1.000  H
  H77      1.0000 0.69210  0.51630  0.28040  Biso   1.000  H
  H78      1.0000 0.30790  0.01630  0.71960  Biso   1.000  H
  P7       1.0000 0.64069  0.66440  0.28532  Biso   1.000  P
  P8       1.0000 0.35931  0.16440  0.71468  Biso   1.000  P
  C85      1.0000 0.67840  0.66190  0.37760  Biso   1.000  C
  C86      1.0000 0.32160  0.16190  0.62240  Biso   1.000  C
  C87      1.0000 0.63740  0.62780  0.40870  Biso   1.000  C
  C88      1.0000 0.36260  0.12780  0.59130  Biso   1.000  C
  H79      1.0000 0.59070  0.60670  0.38260  Biso   1.000  H
  H80      1.0000 0.40930  0.10670  0.61740  Biso   1.000  H
  C89      1.0000 0.66610  0.62520  0.47900  Biso   1.000  C
  C90      1.0000 0.33390  0.12520  0.52100  Biso   1.000  C
  H81      1.0000 0.63870  0.60230  0.49980  Biso   1.000  H
  H82      1.0000 0.36130  0.10230  0.50020  Biso   1.000  H
  C91      1.0000 0.73590  0.65670  0.51810  Biso   1.000  C
  C92      1.0000 0.26410  0.15670  0.48190  Biso   1.000  C
  H83      1.0000 0.75510  0.65500  0.56510  Biso   1.000  H
  H84      1.0000 0.24490  0.15500  0.43490  Biso   1.000  H
  C93      1.0000 0.77690  0.69080  0.48690  Biso   1.000  C
  C94      1.0000 0.22310  0.19080  0.51310  Biso   1.000  C
  H85      1.0000 0.82360  0.71190  0.51310  Biso   1.000  H
  H86      1.0000 0.17640  0.21190  0.48690  Biso   1.000  H
  C95      1.0000 0.74820  0.69340  0.41670  Biso   1.000  C
  C96      1.0000 0.25180  0.19340  0.58330  Biso   1.000  C
  H87      1.0000 0.77570  0.71630  0.39580  Biso   1.000  H
  H88      1.0000 0.22430  0.21630  0.60420  Biso   1.000  H
  O13      1.0000 0.65100  0.76570  0.26170  Biso   1.000  O
  O14      1.0000 0.34900  0.26570  0.73830  Biso   1.000  O
  O15      1.0000 0.56520  0.62620  0.25530  Biso   1.000  O
  O16      1.0000 0.43480  0.12620  0.74470  Biso   1.000  O
  Cu5      1.0000 0.58801  0.87927  0.22842  Biso   1.000  Cu
  Cu6      1.0000 0.41199  0.37927  0.77158  Biso   1.000  Cu
  N9       1.0000 0.40200  0.39900  0.67760  Biso   1.000  N
  N10      1.0000 0.59800  0.89900  0.32240  Biso   1.000  N
  C97      1.0000 0.33860  0.41700  0.62730  Biso   1.000  C
  C98      1.0000 0.66140  0.91700  0.37270  Biso   1.000  C
  H89      1.0000 0.30020  0.42320  0.63780  Biso   1.000  H
  H90      1.0000 0.69980  0.92320  0.36220  Biso   1.000  H
  C99      1.0000 0.32490  0.42730  0.56050  Biso   1.000  C
  C100     1.0000 0.67510  0.92730  0.43950  Biso   1.000  C
  H91      1.0000 0.27900  0.44040  0.52710  Biso   1.000  H
  H92      1.0000 0.72100  0.94040  0.47290  Biso   1.000  H
  C101     1.0000 0.38280  0.41710  0.54480  Biso   1.000  C
  C102     1.0000 0.61720  0.91710  0.45520  Biso   1.000  C
  C103     1.0000 0.44780  0.39910  0.59650  Biso   1.000  C
  C104     1.0000 0.55220  0.89910  0.40350  Biso   1.000  C
  H93      1.0000 0.48720  0.39200  0.58760  Biso   1.000  H
  H94      1.0000 0.51280  0.89200  0.41240  Biso   1.000  H
  C105     1.0000 0.45670  0.39110  0.66200  Biso   1.000  C
  C106     1.0000 0.54330  0.89110  0.33800  Biso   1.000  C
  H95      1.0000 0.50230  0.37980  0.69650  Biso   1.000  H
  H96      1.0000 0.49770  0.87980  0.30350  Biso   1.000  H
  N11      1.0000 0.40010  0.38050  0.85840  Biso   1.000  N
  N12      1.0000 0.59990  0.88050  0.14160  Biso   1.000  N
  C107     1.0000 0.33690  0.37280  0.85760  Biso   1.000  C
  C108     1.0000 0.66310  0.87280  0.14240  Biso   1.000  C
  H97      1.0000 0.29730  0.36330  0.81620  Biso   1.000  H
  H98      1.0000 0.70270  0.86330  0.18380  Biso   1.000  H
  C109     1.0000 0.32630  0.37830  0.91520  Biso   1.000  C
  C110     1.0000 0.67370  0.87830  0.08480  Biso   1.000  C
  H99      1.0000 0.28070  0.37160  0.91250  Biso   1.000  H
  H100     1.0000 0.71930  0.87160  0.08750  Biso   1.000  H
  C111     1.0000 0.38460  0.39390  0.97700  Biso   1.000  C
  C112     1.0000 0.61540  0.89390  0.02300  Biso   1.000  C
  C113     1.0000 0.44960  0.40280  0.97660  Biso   1.000  C
  C114     1.0000 0.55040  0.90280  0.02340  Biso   1.000  C
  H101     1.0000 0.49020  0.41350  0.01700  Biso   1.000  H
  H102     1.0000 0.50980  0.91350  0.98300  Biso   1.000  H
  C115     1.0000 0.45520  0.39600  0.91630  Biso   1.000  C
  C116     1.0000 0.54480  0.89600  0.08370  Biso   1.000  C
  H103     1.0000 0.50010  0.40280  0.91730  Biso   1.000  H
  H104     1.0000 0.49990  0.90280  0.08270  Biso   1.000  H
  P9       1.0000 0.56796  0.10160  0.20055  Biso   1.000  P
  P10      1.0000 0.43204  0.60160  0.79945  Biso   1.000  P
  C117     1.0000 0.54950  0.13140  0.11450  Biso   1.000  C
  C118     1.0000 0.45050  0.63140  0.88550  Biso   1.000  C
  C119     1.0000 0.47910  0.13320  0.06480  Biso   1.000  C
  C120     1.0000 0.52090  0.63320  0.93520  Biso   1.000  C
  H105     1.0000 0.44190  0.12210  0.07640  Biso   1.000  H
  H106     1.0000 0.55810  0.62210  0.92360  Biso   1.000  H
  C121     1.0000 0.46440  0.15150  0.99780  Biso   1.000  C
  C122     1.0000 0.53560  0.65150  0.00220  Biso   1.000  C
  H107     1.0000 0.41730  0.15270  0.96450  Biso   1.000  H
  H108     1.0000 0.58270  0.65270  0.03550  Biso   1.000  H
  C123     1.0000 0.52010  0.16810  0.98040  Biso   1.000  C
  C124     1.0000 0.47990  0.66810  0.01960  Biso   1.000  C
  H109     1.0000 0.51030  0.18040  0.93560  Biso   1.000  H
  H110     1.0000 0.48970  0.68040  0.06440  Biso   1.000  H
  C125     1.0000 0.59050  0.16630  0.03010  Biso   1.000  C
  C126     1.0000 0.40950  0.66630  0.96990  Biso   1.000  C
  H111     1.0000 0.62770  0.17740  0.01860  Biso   1.000  H
  H112     1.0000 0.37230  0.67740  0.98140  Biso   1.000  H
  C127     1.0000 0.60520  0.14800  0.09720  Biso   1.000  C
  C128     1.0000 0.39480  0.64800  0.90280  Biso   1.000  C
  H113     1.0000 0.65220  0.14680  0.13040  Biso   1.000  H
  H114     1.0000 0.34780  0.64680  0.86960  Biso   1.000  H
  O17      1.0000 0.53280  0.00320  0.20090  Biso   1.000  O
  O18      1.0000 0.46720  0.50320  0.79910  Biso   1.000  O
  O19      1.0000 0.64610  0.10410  0.24460  Biso   1.000  O
  O20      1.0000 0.35390  0.60410  0.75540  Biso   1.000  O
  C129     1.0000 0.52000  0.19160  0.22400  Biso   1.000  C
  C130     1.0000 0.48000  0.69160  0.77600  Biso   1.000  C
  H115     1.0000 0.53030  0.25730  0.21260  Biso   1.000  H
  H116     1.0000 0.46970  0.75730  0.78740  Biso   1.000  H
  H117     1.0000 0.46910  0.18000  0.19860  Biso   1.000  H
  H118     1.0000 0.53090  0.68000  0.80140  Biso   1.000  H
  C131     1.0000 0.54140  0.18650  0.30170  Biso   1.000  C
  C132     1.0000 0.45860  0.68650  0.69830  Biso   1.000  C
  H119     1.0000 0.58380  0.22640  0.32610  Biso   1.000  H
  H120     1.0000 0.41620  0.72640  0.67390  Biso   1.000  H
  H121     1.0000 0.55280  0.11860  0.31710  Biso   1.000  H
  H122     1.0000 0.44720  0.61860  0.68290  Biso   1.000  H
  P11      1.0000 0.47013  0.23060  0.32038  Biso   1.000  P
  P12      1.0000 0.52987  0.73060  0.67962  Biso   1.000  P
  C133     1.0000 0.50840  0.24260  0.41040  Biso   1.000  C
  C134     1.0000 0.49160  0.74260  0.58960  Biso   1.000  C
  C135     1.0000 0.48230  0.18840  0.44840  Biso   1.000  C
  C136     1.0000 0.51770  0.68840  0.55160  Biso   1.000  C
  H123     1.0000 0.44430  0.14490  0.42700  Biso   1.000  H
  H124     1.0000 0.55570  0.64490  0.57300  Biso   1.000  H
  C137     1.0000 0.51300  0.19920  0.51830  Biso   1.000  C
  C138     1.0000 0.48700  0.69920  0.48170  Biso   1.000  C
  H125     1.0000 0.49550  0.16300  0.54370  Biso   1.000  H
  H126     1.0000 0.50450  0.66300  0.45630  Biso   1.000  H
  C139     1.0000 0.56980  0.26420  0.55030  Biso   1.000  C
  C140     1.0000 0.43020  0.76420  0.44970  Biso   1.000  C
  H127     1.0000 0.59030  0.27150  0.59710  Biso   1.000  H
  H128     1.0000 0.40970  0.77150  0.40290  Biso   1.000  H
  C141     1.0000 0.59590  0.31840  0.51230  Biso   1.000  C
  C142     1.0000 0.40410  0.81840  0.48770  Biso   1.000  C
  H129     1.0000 0.63390  0.36190  0.53370  Biso   1.000  H
  H130     1.0000 0.36610  0.86190  0.46630  Biso   1.000  H
  C143     1.0000 0.56520  0.30760  0.44240  Biso   1.000  C
  C144     1.0000 0.43480  0.80760  0.55760  Biso   1.000  C
  H131     1.0000 0.58270  0.34380  0.41690  Biso   1.000  H
  H132     1.0000 0.41730  0.84380  0.58310  Biso   1.000  H
  O21      1.0000 0.44770  0.33140  0.28890  Biso   1.000  O
  O22      1.0000 0.55230  0.83140  0.71110  Biso   1.000  O
  O23      1.0000 0.41290  0.15360  0.29850  Biso   1.000  O
  O24      1.0000 0.58710  0.65360  0.70150  Biso   1.000  O
  Cu7      1.0000 0.35333  0.39941  0.24816  Biso   1.000  Cu
  Cu8      1.0000 0.64667  0.89941  0.75184  Biso   1.000  Cu
  N13      1.0000 0.35830  0.41510  0.34150  Biso   1.000  N
  N14      1.0000 0.64170  0.91510  0.65850  Biso   1.000  N
  C145     1.0000 0.30510  0.38640  0.35510  Biso   1.000  C
  C146     1.0000 0.69490  0.88640  0.64490  Biso   1.000  C
  H133     1.0000 0.26290  0.36460  0.31950  Biso   1.000  H
  H134     1.0000 0.73710  0.86460  0.68050  Biso   1.000  H
  C147     1.0000 0.30950  0.38720  0.41900  Biso   1.000  C
  C148     1.0000 0.69050  0.88720  0.58100  Biso   1.000  C
  H135     1.0000 0.27120  0.36500  0.42620  Biso   1.000  H
  H136     1.0000 0.72880  0.86500  0.57380  Biso   1.000  H
  C149     1.0000 0.37070  0.42100  0.47260  Biso   1.000  C
  C150     1.0000 0.62930  0.92100  0.52740  Biso   1.000  C
  C151     1.0000 0.42570  0.45460  0.45770  Biso   1.000  C
  C152     1.0000 0.57430  0.95460  0.54230  Biso   1.000  C
  H137     1.0000 0.46810  0.47850  0.49180  Biso   1.000  H
  H138     1.0000 0.53190  0.97850  0.50820  Biso   1.000  H
  C153     1.0000 0.41590  0.45180  0.39130  Biso   1.000  C
  C154     1.0000 0.58410  0.95180  0.60870  Biso   1.000  C
  H139     1.0000 0.45180  0.47700  0.38150  Biso   1.000  H
  H140     1.0000 0.54820  0.97700  0.61850  Biso   1.000  H
  N15      1.0000 0.36190  0.39970  0.16020  Biso   1.000  N
  N16      1.0000 0.63810  0.89970  0.83980  Biso   1.000  N
  C155     1.0000 0.40950  0.45620  0.15210  Biso   1.000  C
  C156     1.0000 0.59050  0.95620  0.84790  Biso   1.000  C
  H141     1.0000 0.43860  0.49760  0.18730  Biso   1.000  H
  H142     1.0000 0.56140  0.99760  0.81270  Biso   1.000  H
  C157     1.0000 0.41750  0.45560  0.09250  Biso   1.000  C
  C158     1.0000 0.58250  0.95560  0.90750  Biso   1.000  C
  H143     1.0000 0.45200  0.49570  0.08900  Biso   1.000  H
  H144     1.0000 0.54800  0.99570  0.91100  Biso   1.000  H
  C159     1.0000 0.37700  0.39920  0.04110  Biso   1.000  C
  C160     1.0000 0.62300  0.89920  0.95890  Biso   1.000  C
  C161     1.0000 0.32530  0.34430  0.04860  Biso   1.000  C
  C162     1.0000 0.67470  0.84430  0.95140  Biso   1.000  C
  H145     1.0000 0.29400  0.30510  0.01310  Biso   1.000  H
  H146     1.0000 0.70600  0.80510  0.98690  Biso   1.000  H
  C163     1.0000 0.32000  0.34770  0.10840  Biso   1.000  C
  C164     1.0000 0.68000  0.84770  0.89160  Biso   1.000  C
  H147     1.0000 0.28430  0.31040  0.11210  Biso   1.000  H
  H148     1.0000 0.71570  0.81040  0.88790  Biso   1.000  H
  P13      1.0000 0.24774  0.57680  0.17805  Biso   1.000  P
  P14      1.0000 0.75226  0.07680  0.82195  Biso   1.000  P
  C165     1.0000 0.21720  0.56270  0.08780  Biso   1.000  C
  C166     1.0000 0.78280  0.06270  0.91220  Biso   1.000  C
  C167     1.0000 0.17140  0.48500  0.05460  Biso   1.000  C
  C168     1.0000 0.82860  0.98500  0.94540  Biso   1.000  C
  H149     1.0000 0.15570  0.44240  0.07850  Biso   1.000  H
  H150     1.0000 0.84430  0.94240  0.92150  Biso   1.000  H
  C169     1.0000 0.14900  0.47080  0.98560  Biso   1.000  C
  C170     1.0000 0.85100  0.97080  0.01440  Biso   1.000  C
  H151     1.0000 0.11840  0.41880  0.96340  Biso   1.000  H
  H152     1.0000 0.88160  0.91880  0.03660  Biso   1.000  H
  C171     1.0000 0.17250  0.53440  0.94990  Biso   1.000  C
  C172     1.0000 0.82750  0.03440  0.05010  Biso   1.000  C
  H153     1.0000 0.15750  0.52500  0.90380  Biso   1.000  H
  H154     1.0000 0.84250  0.02500  0.09620  Biso   1.000  H
  C173     1.0000 0.21830  0.61220  0.98320  Biso   1.000  C
  C174     1.0000 0.78170  0.11220  0.01680  Biso   1.000  C
  H155     1.0000 0.23390  0.65470  0.95930  Biso   1.000  H
  H156     1.0000 0.76610  0.15470  0.04070  Biso   1.000  H
  C175     1.0000 0.24070  0.62630  0.05210  Biso   1.000  C
  C176     1.0000 0.75930  0.12630  0.94790  Biso   1.000  C
  H157     1.0000 0.27130  0.67830  0.07440  Biso   1.000  H
  H158     1.0000 0.72870  0.17830  0.92560  Biso   1.000  H
  O25      1.0000 0.26530  0.47610  0.20990  Biso   1.000  O
  O26      1.0000 0.73470  0.97610  0.79010  Biso   1.000  O
  O27      1.0000 0.30510  0.65300  0.20510  Biso   1.000  O
  O28      1.0000 0.69490  0.15300  0.79490  Biso   1.000  O
  C177     1.0000 0.16960  0.62070  0.18720  Biso   1.000  C
  C178     1.0000 0.83040  0.12070  0.81280  Biso   1.000  C
  H159     1.0000 0.15870  0.68800  0.17040  Biso   1.000  H
  H160     1.0000 0.84130  0.18800  0.82960  Biso   1.000  H
  H161     1.0000 0.12870  0.57950  0.16020  Biso   1.000  H
  H162     1.0000 0.87130  0.07950  0.83980  Biso   1.000  H
  C179     1.0000 0.18220  0.61790  0.26170  Biso   1.000  C
  C180     1.0000 0.81780  0.11790  0.73830  Biso   1.000  C
  H163     1.0000 0.23310  0.62460  0.29060  Biso   1.000  H
  H164     1.0000 0.76690  0.12460  0.70940  Biso   1.000  H
  H165     1.0000 0.16740  0.55380  0.27080  Biso   1.000  H
  H166     1.0000 0.83260  0.05380  0.72920  Biso   1.000  H
  P15      1.0000 0.13559  0.71270  0.28338  Biso   1.000  P
  P16      1.0000 0.86441  0.21270  0.71662  Biso   1.000  P
  C181     1.0000 0.16460  0.69770  0.37370  Biso   1.000  C
  C182     1.0000 0.83540  0.19770  0.62630  Biso   1.000  C
  C183     1.0000 0.11520  0.69850  0.40010  Biso   1.000  C
  C184     1.0000 0.88480  0.19850  0.59990  Biso   1.000  C
  H167     1.0000 0.06670  0.70510  0.37140  Biso   1.000  H
  H168     1.0000 0.93330  0.20510  0.62860  Biso   1.000  H
  C185     1.0000 0.13810  0.68950  0.46950  Biso   1.000  C
  C186     1.0000 0.86190  0.18950  0.53050  Biso   1.000  C
  H169     1.0000 0.10500  0.69010  0.48720  Biso   1.000  H
  H170     1.0000 0.89500  0.19010  0.51280  Biso   1.000  H
  C187     1.0000 0.21060  0.67980  0.51250  Biso   1.000  C
  C188     1.0000 0.78940  0.17980  0.48750  Biso   1.000  C
  H171     1.0000 0.22600  0.67370  0.55900  Biso   1.000  H
  H172     1.0000 0.77400  0.17370  0.44100  Biso   1.000  H
  C189     1.0000 0.26010  0.67890  0.48610  Biso   1.000  C
  C190     1.0000 0.73990  0.17890  0.51390  Biso   1.000  C
  H173     1.0000 0.30860  0.67240  0.51480  Biso   1.000  H
  H174     1.0000 0.69140  0.17240  0.48520  Biso   1.000  H
  C191     1.0000 0.23710  0.68790  0.41670  Biso   1.000  C
  C192     1.0000 0.76290  0.18790  0.58330  Biso   1.000  C
  H175     1.0000 0.27020  0.68740  0.39900  Biso   1.000  H
  H176     1.0000 0.72980  0.18740  0.60100  Biso   1.000  H
  O29      1.0000 0.16470  0.81100  0.27230  Biso   1.000  O
  O30      1.0000 0.83530  0.31100  0.72770  Biso   1.000  O
  O31      1.0000 0.05740  0.70010  0.24700  Biso   1.000  O
  O32      1.0000 0.94260  0.20010  0.75300  Biso   1.000  O
  O33      1.0000 0.23540  0.02300  0.30120  Biso   1.000  O
  O34      1.0000 0.76460  0.52300  0.69880  Biso   1.000  O
  O35      1.0000 0.94570  0.64370  0.27540  Biso   1.000  O
  O36      1.0000 0.05430  0.14370  0.72460  Biso   1.000  O
  O37      1.0000 0.48780  0.78200  0.17750  Biso   1.000  O
  O38      1.0000 0.51220  0.28200  0.82250  Biso   1.000  O
  O39      1.0000 0.29100  0.25130  0.22210  Biso   1.000  O
  O40      1.0000 0.70900  0.75130  0.77790  Biso   1.000  O
  O41      1.0000 0.59950  0.49760  0.79020  Biso   1.000  O
  O42      1.0000 0.40050  0.99760  0.20980  Biso   1.000  O
  O43      1.0000 0.69030  0.31090  0.70980  Biso   1.000  O
  O44      1.0000 0.30970  0.81090  0.29020  Biso   1.000  O
  O45      1.0000 0.38110  0.98270  0.35680  Biso   1.000  O
  O46      1.0000 0.61890  0.48270  0.64320  Biso   1.000  O
  O47      1.0000 0.35070  0.81650  0.15820  Biso   1.000  O
  O48      1.0000 0.64930  0.31650  0.84180  Biso   1.000  O
  O49      1.0000 0.44690  0.59410  0.29370  Biso   1.000  O
  O50      1.0000 0.55310  0.09410  0.70630  Biso   1.000  O
  O51      1.0000 0.97910  0.85840  0.18050  Biso   1.000  O
  O52      1.0000 0.02090  0.35840  0.81950  Biso   1.000  O
  O53      1.0000 0.87990  0.14940  0.37320  Biso   1.000  O
  O54      1.0000 0.12010  0.64940  0.62680  Biso   1.000  O
  O55      1.0000 0.56880  0.42540  0.27980  Biso   1.000  O
  O56      1.0000 0.43120  0.92540  0.72020  Biso   1.000  O
  O57      1.0000 0.71920  0.26940  0.30590  Biso   1.000  O
  O58      1.0000 0.28080  0.76940  0.69410  Biso   1.000  O
  O59      1.0000 0.85920  0.88050  0.21270  Biso   1.000  O
  O60      1.0000 0.14080  0.38050  0.78730  Biso   1.000  O
  O61      1.0000 0.83550  0.18930  0.20050  Biso   1.000  O
  O62      1.0000 0.16450  0.68930  0.79950  Biso   1.000  O
  O63      1.0000 0.22520  0.51480  0.71500  Biso   1.000  O
  O64      1.0000 0.77480  0.01480  0.28500  Biso   1.000  O
  O65      1.0000 0.68640  0.37300  0.38790  Biso   1.000  O
  O66      1.0000 0.31360  0.87300  0.61210  Biso   1.000  O
  O67      1.0000 0.42130  0.88700  0.85170  Biso   1.000  O
  O68      1.0000 0.57870  0.38700  0.14830  Biso   1.000  O
  C193     1.0000 0.71810  0.50380  0.09310  Biso   1.000  C
  C194     1.0000 0.28190  0.00380  0.90690  Biso   1.000  C
  C195     1.0000 0.73910  0.57770  0.06180  Biso   1.000  C
  C196     1.0000 0.26090  0.07770  0.93820  Biso   1.000  C
  C197     1.0000 0.72180  0.57060  0.99330  Biso   1.000  C
  C198     1.0000 0.27820  0.07060  0.00670  Biso   1.000  C
  C199     1.0000 0.68340  0.48950  0.95610  Biso   1.000  C
  C200     1.0000 0.31660  0.98950  0.04390  Biso   1.000  C
  C201     1.0000 0.66230  0.41550  0.98740  Biso   1.000  C
  C202     1.0000 0.33770  0.91550  0.01260  Biso   1.000  C
  C203     1.0000 0.67960  0.42270  0.05590  Biso   1.000  C
  C204     1.0000 0.32040  0.92270  0.94410  Biso   1.000  C
  H177     1.0000 0.76480  0.63200  0.08670  Biso   1.000  H
  H178     1.0000 0.23520  0.13200  0.91330  Biso   1.000  H
  H179     1.0000 0.73590  0.62000  0.97240  Biso   1.000  H
  H180     1.0000 0.26410  0.12000  0.02760  Biso   1.000  H
  H181     1.0000 0.67180  0.48470  0.91030  Biso   1.000  H
  H182     1.0000 0.32820  0.98470  0.08970  Biso   1.000  H
  H183     1.0000 0.63660  0.36120  0.96250  Biso   1.000  H
  H184     1.0000 0.36340  0.86120  0.03750  Biso   1.000  H
  H185     1.0000 0.66550  0.37320  0.07680  Biso   1.000  H
  H186     1.0000 0.33450  0.87320  0.92320  Biso   1.000  H
  O69      1.0000 0.73480  0.35070  0.19680  Biso   1.000  O
  O70      1.0000 0.26520  0.85070  0.80320  Biso   1.000  O
  P17      1.0000 0.73870  0.48780  0.18030  Biso   1.000  P
  P18      1.0000 0.26130  0.98780  0.81970  Biso   1.000  P
