data_image0
_cell_length_a       18.559
_cell_length_b       18.559
_cell_length_c       10.98
_cell_angle_alpha    90
_cell_angle_beta     90
_cell_angle_gamma    120

_symmetry_space_group_name_H-M    "P 1"
_symmetry_int_tables_number       1

loop_
  _symmetry_equiv_pos_as_xyz
  'x, y, z'

loop_
  _atom_site_label
  _atom_site_occupancy
  _atom_site_fract_x
  _atom_site_fract_y
  _atom_site_fract_z
  _atom_site_thermal_displace_type
  _atom_site_B_iso_or_equiv
  _atom_site_type_symbol
  Cu1      1.0000 0.47617  0.52383  0.59810  Biso   1.000  Cu
  Cu2      1.0000 0.47617  0.95234  0.59810  Biso   1.000  Cu
  Cu3      1.0000 0.04766  0.52383  0.59810  Biso   1.000  Cu
  Cu4      1.0000 0.95234  0.47617  0.40190  Biso   1.000  Cu
  Cu5      1.0000 0.52383  0.04766  0.40190  Biso   1.000  Cu
  Cu6      1.0000 0.52383  0.47617  0.40190  Biso   1.000  Cu
  S1       1.0000 0.05860  0.22770  0.04890  Biso   1.000  S
  S2       1.0000 0.77230  0.83090  0.04890  Biso   1.000  S
  S3       1.0000 0.16910  0.94140  0.04890  Biso   1.000  S
  S4       1.0000 0.83090  0.77230  0.95110  Biso   1.000  S
  S5       1.0000 0.94140  0.16910  0.95110  Biso   1.000  S
  S6       1.0000 0.22770  0.05860  0.95110  Biso   1.000  S
  S7       1.0000 0.94140  0.77230  0.95110  Biso   1.000  S
  S8       1.0000 0.22770  0.16910  0.95110  Biso   1.000  S
  S9       1.0000 0.83090  0.05860  0.95110  Biso   1.000  S
  S10      1.0000 0.16910  0.22770  0.04890  Biso   1.000  S
  S11      1.0000 0.05860  0.83090  0.04890  Biso   1.000  S
  S12      1.0000 0.77230  0.94140  0.04890  Biso   1.000  S
  O1       1.0000 0.37154  0.48137  0.50980  Biso   1.000  O
  O2       1.0000 0.51863  0.89017  0.50980  Biso   1.000  O
  O3       1.0000 0.10983  0.62846  0.50980  Biso   1.000  O
  O4       1.0000 0.89017  0.51863  0.49020  Biso   1.000  O
  O5       1.0000 0.62846  0.10983  0.49020  Biso   1.000  O
  O6       1.0000 0.48137  0.37154  0.49020  Biso   1.000  O
  O7       1.0000 0.62846  0.51863  0.49020  Biso   1.000  O
  O8       1.0000 0.48137  0.10983  0.49020  Biso   1.000  O
  O9       1.0000 0.89017  0.37154  0.49020  Biso   1.000  O
  O10      1.0000 0.10983  0.48137  0.50980  Biso   1.000  O
  O11      1.0000 0.37154  0.89017  0.50980  Biso   1.000  O
  O12      1.0000 0.51863  0.62846  0.50980  Biso   1.000  O
  O13      1.0000 0.41101  0.44020  0.34380  Biso   1.000  O
  O14      1.0000 0.55980  0.97081  0.34380  Biso   1.000  O
  O15      1.0000 0.02919  0.58899  0.34380  Biso   1.000  O
  O16      1.0000 0.97081  0.55980  0.65620  Biso   1.000  O
  O17      1.0000 0.58899  0.02919  0.65620  Biso   1.000  O
  O18      1.0000 0.44020  0.41101  0.65620  Biso   1.000  O
  O19      1.0000 0.58899  0.55980  0.65620  Biso   1.000  O
  O20      1.0000 0.44020  0.02919  0.65620  Biso   1.000  O
  O21      1.0000 0.97081  0.41101  0.65620  Biso   1.000  O
  O22      1.0000 0.02919  0.44020  0.34380  Biso   1.000  O
  O23      1.0000 0.41101  0.97081  0.34380  Biso   1.000  O
  O24      1.0000 0.55980  0.58899  0.34380  Biso   1.000  O
  O25      1.0000 0.43926  0.56074  0.76010  Biso   1.000  O
  O26      1.0000 0.43926  0.87852  0.76010  Biso   1.000  O
  O27      1.0000 0.12148  0.56074  0.76010  Biso   1.000  O
  O28      1.0000 0.87852  0.43926  0.23990  Biso   1.000  O
  O29      1.0000 0.56074  0.12148  0.23990  Biso   1.000  O
  O30      1.0000 0.56074  0.43926  0.23990  Biso   1.000  O
  C1       1.0000 0.35920  0.45040  0.40590  Biso   1.000  C
  C2       1.0000 0.54960  0.90880  0.40590  Biso   1.000  C
  C3       1.0000 0.09120  0.64080  0.40590  Biso   1.000  C
  C4       1.0000 0.90880  0.54960  0.59410  Biso   1.000  C
  C5       1.0000 0.64080  0.09120  0.59410  Biso   1.000  C
  C6       1.0000 0.45040  0.35920  0.59410  Biso   1.000  C
  C7       1.0000 0.64080  0.54960  0.59410  Biso   1.000  C
  C8       1.0000 0.45040  0.09120  0.59410  Biso   1.000  C
  C9       1.0000 0.90880  0.35920  0.59410  Biso   1.000  C
  C10      1.0000 0.09120  0.45040  0.40590  Biso   1.000  C
  C11      1.0000 0.35920  0.90880  0.40590  Biso   1.000  C
  C12      1.0000 0.54960  0.64080  0.40590  Biso   1.000  C
  C13      1.0000 0.27640  0.42320  0.34760  Biso   1.000  C
  C14      1.0000 0.57680  0.85320  0.34760  Biso   1.000  C
  C15      1.0000 0.14680  0.72360  0.34760  Biso   1.000  C
  C16      1.0000 0.85320  0.57680  0.65240  Biso   1.000  C
  C17      1.0000 0.72360  0.14680  0.65240  Biso   1.000  C
  C18      1.0000 0.42320  0.27640  0.65240  Biso   1.000  C
  C19      1.0000 0.72360  0.57680  0.65240  Biso   1.000  C
  C20      1.0000 0.42320  0.14680  0.65240  Biso   1.000  C
  C21      1.0000 0.85320  0.27640  0.65240  Biso   1.000  C
  C22      1.0000 0.14680  0.42320  0.34760  Biso   1.000  C
  C23      1.0000 0.27640  0.85320  0.34760  Biso   1.000  C
  C24      1.0000 0.57680  0.72360  0.34760  Biso   1.000  C
  C25      1.0000 0.25470  0.38140  0.23700  Biso   1.000  C
  C26      1.0000 0.61860  0.87330  0.23700  Biso   1.000  C
  C27      1.0000 0.12670  0.74530  0.23700  Biso   1.000  C
  C28      1.0000 0.87330  0.61860  0.76300  Biso   1.000  C
  C29      1.0000 0.74530  0.12670  0.76300  Biso   1.000  C
  C30      1.0000 0.38140  0.25470  0.76300  Biso   1.000  C
  C31      1.0000 0.74530  0.61860  0.76300  Biso   1.000  C
  C32      1.0000 0.38140  0.12670  0.76300  Biso   1.000  C
  C33      1.0000 0.87330  0.25470  0.76300  Biso   1.000  C
  C34      1.0000 0.12670  0.38140  0.23700  Biso   1.000  C
  C35      1.0000 0.25470  0.87330  0.23700  Biso   1.000  C
  C36      1.0000 0.61860  0.74530  0.23700  Biso   1.000  C
  H1       1.0000 0.29170  0.36680  0.19930  Biso   1.000  H
  H2       1.0000 0.63320  0.92490  0.19930  Biso   1.000  H
  H3       1.0000 0.07510  0.70830  0.19930  Biso   1.000  H
  H4       1.0000 0.92490  0.63320  0.80070  Biso   1.000  H
  H5       1.0000 0.70830  0.07510  0.80070  Biso   1.000  H
  H6       1.0000 0.36680  0.29170  0.80070  Biso   1.000  H
  H7       1.0000 0.70830  0.63320  0.80070  Biso   1.000  H
  H8       1.0000 0.36680  0.07510  0.80070  Biso   1.000  H
  H9       1.0000 0.92490  0.29170  0.80070  Biso   1.000  H
  H10      1.0000 0.07510  0.36680  0.19930  Biso   1.000  H
  H11      1.0000 0.29170  0.92490  0.19930  Biso   1.000  H
  H12      1.0000 0.63320  0.70830  0.19930  Biso   1.000  H
  C37      1.0000 0.18040  0.36090  0.18080  Biso   1.000  C
  C38      1.0000 0.63910  0.81950  0.18080  Biso   1.000  C
  C39      1.0000 0.18050  0.81960  0.18080  Biso   1.000  C
  C40      1.0000 0.81950  0.63910  0.81920  Biso   1.000  C
  C41      1.0000 0.81960  0.18050  0.81920  Biso   1.000  C
  C42      1.0000 0.36090  0.18040  0.81920  Biso   1.000  C
  C43      1.0000 0.22170  0.44340  0.40350  Biso   1.000  C
  C44      1.0000 0.55660  0.77830  0.40350  Biso   1.000  C
  C45      1.0000 0.22170  0.77830  0.40350  Biso   1.000  C
  C46      1.0000 0.77830  0.55660  0.59650  Biso   1.000  C
  C47      1.0000 0.77830  0.22170  0.59650  Biso   1.000  C
  C48      1.0000 0.44340  0.22170  0.59650  Biso   1.000  C
  H13      1.0000 0.23550  0.47100  0.48000  Biso   1.000  H
  H14      1.0000 0.52900  0.76450  0.48000  Biso   1.000  H
  H15      1.0000 0.23550  0.76450  0.48000  Biso   1.000  H
  H16      1.0000 0.76450  0.52900  0.52000  Biso   1.000  H
  H17      1.0000 0.76450  0.23550  0.52000  Biso   1.000  H
  H18      1.0000 0.47100  0.23550  0.52000  Biso   1.000  H
  C49      1.0000 0.08210  0.16430  0.16710  Biso   1.000  C
  C50      1.0000 0.83570  0.91780  0.16710  Biso   1.000  C
  C51      1.0000 0.08220  0.91790  0.16710  Biso   1.000  C
  C52      1.0000 0.91780  0.83570  0.83290  Biso   1.000  C
  C53      1.0000 0.91790  0.08220  0.83290  Biso   1.000  C
  C54      1.0000 0.16430  0.08210  0.83290  Biso   1.000  C
  C55      1.0000 0.15880  0.31760  0.05490  Biso   1.000  C
  C56      1.0000 0.68240  0.84120  0.05490  Biso   1.000  C
  C57      1.0000 0.15880  0.84120  0.05490  Biso   1.000  C
  C58      1.0000 0.84120  0.68240  0.94510  Biso   1.000  C
  C59      1.0000 0.84120  0.15880  0.94510  Biso   1.000  C
  C60      1.0000 0.31760  0.15880  0.94510  Biso   1.000  C
