data_image0
_cell_length_a       13.39
_cell_length_b       14.767
_cell_length_c       18.465
_cell_angle_alpha    113.079
_cell_angle_beta     101.608
_cell_angle_gamma    100.368

_symmetry_space_group_name_H-M    "P 1"
_symmetry_int_tables_number       1

loop_
  _symmetry_equiv_pos_as_xyz
  'x, y, z'

loop_
  _atom_site_label
  _atom_site_occupancy
  _atom_site_fract_x
  _atom_site_fract_y
  _atom_site_fract_z
  _atom_site_thermal_displace_type
  _atom_site_B_iso_or_equiv
  _atom_site_type_symbol
  Cu1      1.0000 0.92088  0.51841  0.53195  Biso   1.000  Cu
  Cu2      1.0000 0.07912  0.48159  0.46805  Biso   1.000  Cu
  Cu3      1.0000 0.07345  0.47168  0.03942  Biso   1.000  Cu
  Cu4      1.0000 0.92655  0.52832  0.96058  Biso   1.000  Cu
  Cu5      1.0000 0.50019  0.90203  0.47115  Biso   1.000  Cu
  Cu6      1.0000 0.49981  0.09797  0.52885  Biso   1.000  Cu
  O1       1.0000 0.85180  0.51960  0.42794  Biso   1.000  O
  O2       1.0000 0.14820  0.48040  0.57206  Biso   1.000  O
  O3       1.0000 0.98510  0.48670  0.37440  Biso   1.000  O
  O4       1.0000 0.01490  0.51330  0.62560  Biso   1.000  O
  O5       1.0000 0.98500  0.47830  0.11236  Biso   1.000  O
  O6       1.0000 0.01500  0.52170  0.88764  Biso   1.000  O
  O7       1.0000 0.85910  0.52320  0.04478  Biso   1.000  O
  O8       1.0000 0.14090  0.47680  0.95522  Biso   1.000  O
  O9       1.0000 0.54570  0.55400  0.14180  Biso   1.000  O
  O10      1.0000 0.45430  0.44600  0.85820  Biso   1.000  O
  O11      1.0000 0.56730  0.59920  0.27230  Biso   1.000  O
  O12      1.0000 0.43270  0.40080  0.72770  Biso   1.000  O
  O13      1.0000 0.14180  0.61850  0.10725  Biso   1.000  O
  O14      1.0000 0.85820  0.38150  0.89275  Biso   1.000  O
  O15      1.0000 0.01950  0.66610  0.03896  Biso   1.000  O
  O16      1.0000 0.98050  0.33390  0.96104  Biso   1.000  O
  O17      1.0000 0.39720  0.87180  0.36768  Biso   1.000  O
  O18      1.0000 0.60280  0.12820  0.63232  Biso   1.000  O
  O19      1.0000 0.39930  0.03710  0.41533  Biso   1.000  O
  O20      1.0000 0.60070  0.96290  0.58467  Biso   1.000  O
  O21      1.0000 0.07280  0.03210  0.12070  Biso   1.000  O
  O22      1.0000 0.92720  0.96790  0.87930  Biso   1.000  O
  O23      1.0000 0.18140  0.14380  0.23790  Biso   1.000  O
  O24      1.0000 0.81860  0.85620  0.76210  Biso   1.000  O
  O25      1.0000 0.38250  0.88810  0.51620  Biso   1.000  O
  O26      1.0000 0.61750  0.11190  0.48380  Biso   1.000  O
  O27      1.0000 0.38480  0.05400  0.57020  Biso   1.000  O
  O28      1.0000 0.61520  0.94600  0.42980  Biso   1.000  O
  O29      1.0000 0.99280  0.66580  0.57760  Biso   1.000  O
  O30      1.0000 0.00720  0.33420  0.42240  Biso   1.000  O
  O31      1.0000 0.12430  0.63210  0.52240  Biso   1.000  O
  O32      1.0000 0.87570  0.36790  0.47760  Biso   1.000  O
  O33      1.0000 0.03840  0.03490  0.75310  Biso   1.000  O
  O34      1.0000 0.96160  0.96510  0.24690  Biso   1.000  O
  O35      1.0000 0.15290  0.15080  0.74670  Biso   1.000  O
  O36      1.0000 0.84710  0.84920  0.25330  Biso   1.000  O
  O37      1.0000 0.79500  0.52910  0.58800  Biso   1.000  O
  O38      1.0000 0.20500  0.47090  0.41200  Biso   1.000  O
  O39      1.0000 0.19680  0.41920  0.09140  Biso   1.000  O
  O40      1.0000 0.80320  0.58080  0.90860  Biso   1.000  O
  O41      1.0000 0.53490  0.76000  0.45160  Biso   1.000  O
  O42      1.0000 0.46510  0.24000  0.54840  Biso   1.000  O
  O43      1.0000 0.07620  0.99680  0.44010  Biso   1.000  O
  O44      1.0000 0.92380  0.00320  0.55990  Biso   1.000  O
  O45      1.0000 0.49710  0.36520  0.19540  Biso   1.000  O
  O46      1.0000 0.50290  0.63480  0.80460  Biso   1.000  O
  O47      1.0000 0.78890  0.23840  0.05260  Biso   1.000  O
  O48      1.0000 0.21110  0.76160  0.94740  Biso   1.000  O
  O49      1.0000 0.54730  0.02980  0.84230  Biso   1.000  O
  O50      1.0000 0.45270  0.97020  0.15770  Biso   1.000  O
  O51      1.0000 0.73210  0.26470  0.27910  Biso   1.000  O
  O52      1.0000 0.26790  0.73530  0.72090  Biso   1.000  O
  O53      1.0000 0.81700  0.21200  0.21770  Biso   1.000  O
  O54      1.0000 0.18300  0.78800  0.78230  Biso   1.000  O
  N1       1.0000 0.59580  0.56610  0.21030  Biso   1.000  N
  N2       1.0000 0.40420  0.43390  0.78970  Biso   1.000  N
  N3       1.0000 0.14040  0.05580  0.18510  Biso   1.000  N
  N4       1.0000 0.85960  0.94420  0.81490  Biso   1.000  N
  N5       1.0000 0.10810  0.06120  0.72710  Biso   1.000  N
  N6       1.0000 0.89190  0.93880  0.27290  Biso   1.000  N
  N7       1.0000 0.71950  0.47780  0.67060  Biso   1.000  N
  N8       1.0000 0.28050  0.52220  0.32940  Biso   1.000  N
  N9       1.0000 0.27830  0.32420  0.00620  Biso   1.000  N
  N10      1.0000 0.72170  0.67580  0.99380  Biso   1.000  N
  N11      1.0000 0.67050  0.70730  0.50070  Biso   1.000  N
  N12      1.0000 0.32950  0.29270  0.49930  Biso   1.000  N
  N13      1.0000 0.05390  0.82240  0.38830  Biso   1.000  N
  N14      1.0000 0.94610  0.17760  0.61170  Biso   1.000  N
  N15      1.0000 0.46450  0.19350  0.11200  Biso   1.000  N
  N16      1.0000 0.53550  0.80650  0.88800  Biso   1.000  N
  N17      1.0000 0.59180  0.23670  0.32620  Biso   1.000  N
  N18      1.0000 0.40820  0.76330  0.67380  Biso   1.000  N
  N19      1.0000 0.57020  0.20470  0.87410  Biso   1.000  N
  N20      1.0000 0.42980  0.79530  0.12590  Biso   1.000  N
  N21      1.0000 0.92420  0.23900  0.14850  Biso   1.000  N
  N22      1.0000 0.07580  0.76100  0.85150  Biso   1.000  N
  C1       1.0000 0.89620  0.50410  0.37220  Biso   1.000  C
  C2       1.0000 0.10380  0.49590  0.62780  Biso   1.000  C
  C3       1.0000 0.84070  0.51050  0.29580  Biso   1.000  C
  C4       1.0000 0.15930  0.48950  0.70420  Biso   1.000  C
  C5       1.0000 0.88900  0.49820  0.23440  Biso   1.000  C
  C6       1.0000 0.11100  0.50180  0.76560  Biso   1.000  C
  H1       1.0000 0.95500  0.48230  0.23970  Biso   1.000  H
  H2       1.0000 0.04500  0.51770  0.76030  Biso   1.000  H
  C7       1.0000 0.84190  0.50880  0.16490  Biso   1.000  C
  C8       1.0000 0.15810  0.49120  0.83510  Biso   1.000  C
  C9       1.0000 0.74460  0.53010  0.15590  Biso   1.000  C
  C10      1.0000 0.25540  0.46990  0.84410  Biso   1.000  C
  H3       1.0000 0.71080  0.53630  0.10830  Biso   1.000  H
  H4       1.0000 0.28920  0.46370  0.89170  Biso   1.000  H
  C11      1.0000 0.69820  0.54210  0.21840  Biso   1.000  C
  C12      1.0000 0.30180  0.45790  0.78160  Biso   1.000  C
  C13      1.0000 0.74320  0.53250  0.28780  Biso   1.000  C
  C14      1.0000 0.25680  0.46750  0.71220  Biso   1.000  C
  H5       1.0000 0.70870  0.54060  0.32930  Biso   1.000  H
  H6       1.0000 0.29130  0.45940  0.67070  Biso   1.000  H
  C15      1.0000 0.90020  0.50170  0.10150  Biso   1.000  C
  C16      1.0000 0.09980  0.49830  0.89850  Biso   1.000  C
  C17      1.0000 0.10230  0.68430  0.09470  Biso   1.000  C
  C18      1.0000 0.89770  0.31570  0.90530  Biso   1.000  C
  C19      1.0000 0.15750  0.79480  0.15420  Biso   1.000  C
  C20      1.0000 0.84250  0.20520  0.84580  Biso   1.000  C
  C21      1.0000 0.23850  0.81930  0.22400  Biso   1.000  C
  C22      1.0000 0.76150  0.18070  0.77600  Biso   1.000  C
  H7       1.0000 0.26230  0.76610  0.23190  Biso   1.000  H
  H8       1.0000 0.73770  0.23390  0.76810  Biso   1.000  H
  C23      1.0000 0.28580  0.92060  0.28290  Biso   1.000  C
  C24      1.0000 0.71420  0.07940  0.71710  Biso   1.000  C
  C25      1.0000 0.25270  0.99920  0.27070  Biso   1.000  C
  C26      1.0000 0.74730  0.00080  0.72930  Biso   1.000  C
  H9       1.0000 0.28340  0.06890  0.31060  Biso   1.000  H
  H10      1.0000 0.71660  0.93110  0.68940  Biso   1.000  H
  C27      1.0000 0.17420  0.97270  0.19900  Biso   1.000  C
  C28      1.0000 0.82580  0.02730  0.80100  Biso   1.000  C
  C29      1.0000 0.12420  0.87230  0.14090  Biso   1.000  C
  C30      1.0000 0.87580  0.12770  0.85910  Biso   1.000  C
  H11      1.0000 0.06840  0.85650  0.09310  Biso   1.000  H
  H12      1.0000 0.93160  0.14350  0.90690  Biso   1.000  H
  C31      1.0000 0.36750  0.94520  0.36170  Biso   1.000  C
  C32      1.0000 0.63250  0.05480  0.63830  Biso   1.000  C
  C33      1.0000 0.35020  0.96210  0.55620  Biso   1.000  C
  C34      1.0000 0.64980  0.03790  0.44380  Biso   1.000  C
  C35      1.0000 0.26080  0.93620  0.58880  Biso   1.000  C
  C36      1.0000 0.73920  0.06380  0.41120  Biso   1.000  C
  C37      1.0000 0.21340  0.83330  0.56600  Biso   1.000  C
  C38      1.0000 0.78660  0.16670  0.43400  Biso   1.000  C
  H13      1.0000 0.23940  0.78210  0.53170  Biso   1.000  H
  H14      1.0000 0.76060  0.21790  0.46830  Biso   1.000  H
  C39      1.0000 0.12840  0.80450  0.59250  Biso   1.000  C
  C40      1.0000 0.87160  0.19550  0.40750  Biso   1.000  C
  C41      1.0000 0.09250  0.87900  0.64530  Biso   1.000  C
  C42      1.0000 0.90750  0.12100  0.35470  Biso   1.000  C
  H15      1.0000 0.03530  0.86080  0.66490  Biso   1.000  H
  H16      1.0000 0.96470  0.13920  0.33510  Biso   1.000  H
  C43      1.0000 0.14330  0.98050  0.66820  Biso   1.000  C
  C44      1.0000 0.85670  0.01950  0.33180  Biso   1.000  C
  C45      1.0000 0.22530  0.01120  0.64090  Biso   1.000  C
  C46      1.0000 0.77470  0.98880  0.35910  Biso   1.000  C
  H17      1.0000 0.25680  0.08200  0.65740  Biso   1.000  H
  H18      1.0000 0.74320  0.91800  0.34260  Biso   1.000  H
  C47      1.0000 0.07760  0.69130  0.56180  Biso   1.000  C
  C48      1.0000 0.92240  0.30870  0.43820  Biso   1.000  C
  C49      1.0000 0.76880  0.46510  0.61340  Biso   1.000  C
  C50      1.0000 0.23120  0.53490  0.38660  Biso   1.000  C
  H19      1.0000 0.78530  0.40190  0.59010  Biso   1.000  H
  H20      1.0000 0.21470  0.59810  0.40990  Biso   1.000  H
  C51      1.0000 0.69160  0.39820  0.69730  Biso   1.000  C
  C52      1.0000 0.30840  0.60180  0.30270  Biso   1.000  C
  H21      1.0000 0.70120  0.33420  0.65940  Biso   1.000  H
  H22      1.0000 0.29880  0.66580  0.34060  Biso   1.000  H
  H23      1.0000 0.61710  0.38680  0.69720  Biso   1.000  H
  H24      1.0000 0.38290  0.61320  0.30280  Biso   1.000  H
  H25      1.0000 0.73770  0.42020  0.75320  Biso   1.000  H
  H26      1.0000 0.26230  0.57980  0.24680  Biso   1.000  H
  C53      1.0000 0.69280  0.57200  0.71100  Biso   1.000  C
  C54      1.0000 0.30720  0.42800  0.28900  Biso   1.000  C
  H27      1.0000 0.65690  0.56660  0.75100  Biso   1.000  H
  H28      1.0000 0.34310  0.43340  0.24900  Biso   1.000  H
  H29      1.0000 0.64550  0.58370  0.66960  Biso   1.000  H
  H30      1.0000 0.35450  0.41630  0.33040  Biso   1.000  H
  H31      1.0000 0.75810  0.62970  0.73960  Biso   1.000  H
  H32      1.0000 0.24190  0.37030  0.26040  Biso   1.000  H
  C55      1.0000 0.27550  0.40530  0.06940  Biso   1.000  C
  C56      1.0000 0.72450  0.59470  0.93060  Biso   1.000  C
  H33      1.0000 0.34070  0.45800  0.10100  Biso   1.000  H
  H34      1.0000 0.65930  0.54200  0.89900  Biso   1.000  H
  C57      1.0000 0.18010  0.24420  0.95380  Biso   1.000  C
  C58      1.0000 0.81990  0.75580  0.04620  Biso   1.000  C
  H35      1.0000 0.19480  0.18930  0.90980  Biso   1.000  H
  H36      1.0000 0.80520  0.81070  0.09020  Biso   1.000  H
  H37      1.0000 0.13040  0.27300  0.92930  Biso   1.000  H
  H38      1.0000 0.86960  0.72700  0.07070  Biso   1.000  H
  H39      1.0000 0.14840  0.21610  0.98670  Biso   1.000  H
  H40      1.0000 0.85160  0.78390  0.01330  Biso   1.000  H
  C59      1.0000 0.37320  0.31740  0.98150  Biso   1.000  C
  C60      1.0000 0.62680  0.68260  0.01850  Biso   1.000  C
  H41      1.0000 0.35840  0.25120  0.93350  Biso   1.000  H
  H42      1.0000 0.64160  0.74880  0.06650  Biso   1.000  H
  H43      1.0000 0.43000  0.32290  0.02710  Biso   1.000  H
  H44      1.0000 0.57000  0.67710  0.97290  Biso   1.000  H
  H45      1.0000 0.39570  0.37340  0.96710  Biso   1.000  H
  H46      1.0000 0.60430  0.62660  0.03290  Biso   1.000  H
  C61      1.0000 0.63090  0.77370  0.48210  Biso   1.000  C
  C62      1.0000 0.36910  0.22630  0.51790  Biso   1.000  C
  H47      1.0000 0.67930  0.83630  0.49290  Biso   1.000  H
  H48      1.0000 0.32070  0.16370  0.50710  Biso   1.000  H
  C63      1.0000 0.60390  0.60900  0.48370  Biso   1.000  C
  C64      1.0000 0.39610  0.39100  0.51630  Biso   1.000  C
  H49      1.0000 0.64770  0.57080  0.50170  Biso   1.000  H
  H50      1.0000 0.35230  0.42920  0.49830  Biso   1.000  H
  H51      1.0000 0.56760  0.57010  0.42430  Biso   1.000  H
  H52      1.0000 0.43240  0.42990  0.57570  Biso   1.000  H
  H53      1.0000 0.55080  0.61900  0.51350  Biso   1.000  H
  H54      1.0000 0.44920  0.38100  0.48650  Biso   1.000  H
  C65      1.0000 0.78490  0.73250  0.54090  Biso   1.000  C
  C66      1.0000 0.21510  0.26750  0.45910  Biso   1.000  C
  H55      1.0000 0.80000  0.67450  0.54980  Biso   1.000  H
  H56      1.0000 0.20000  0.32550  0.45020  Biso   1.000  H
  H57      1.0000 0.80610  0.79350  0.59410  Biso   1.000  H
  H58      1.0000 0.19390  0.20650  0.40590  Biso   1.000  H
  H59      1.0000 0.82510  0.74610  0.50560  Biso   1.000  H
  H60      1.0000 0.17490  0.25390  0.49440  Biso   1.000  H
  C67      1.0000 0.10760  0.91970  0.41020  Biso   1.000  C
  C68      1.0000 0.89240  0.08030  0.58980  Biso   1.000  C
  H61      1.0000 0.17580  0.93070  0.40220  Biso   1.000  H
  H62      1.0000 0.82420  0.06930  0.59780  Biso   1.000  H
  C69      1.0000 0.94320  0.78970  0.39130  Biso   1.000  C
  C70      1.0000 0.05680  0.21030  0.60870  Biso   1.000  C
  H63      1.0000 0.92100  0.71510  0.37210  Biso   1.000  H
  H64      1.0000 0.07900  0.28490  0.62790  Biso   1.000  H
  H65      1.0000 0.89480  0.80820  0.35570  Biso   1.000  H
  H66      1.0000 0.10520  0.19180  0.64430  Biso   1.000  H
  H67      1.0000 0.94110  0.82430  0.44820  Biso   1.000  H
  H68      1.0000 0.05890  0.17570  0.55180  Biso   1.000  H
  C71      1.0000 0.10100  0.74340  0.35300  Biso   1.000  C
  C72      1.0000 0.89900  0.25660  0.64700  Biso   1.000  C
  H69      1.0000 0.05390  0.67690  0.34100  Biso   1.000  H
  H70      1.0000 0.94610  0.32310  0.65900  Biso   1.000  H
  H71      1.0000 0.16970  0.75650  0.39200  Biso   1.000  H
  H72      1.0000 0.83030  0.24350  0.60800  Biso   1.000  H
  H73      1.0000 0.11210  0.74220  0.30180  Biso   1.000  H
  H74      1.0000 0.88790  0.25780  0.69820  Biso   1.000  H
  C73      1.0000 0.52970  0.29360  0.14920  Biso   1.000  C
  C74      1.0000 0.47030  0.70640  0.85080  Biso   1.000  C
  C75      1.0000 0.35950  0.16500  0.11970  Biso   1.000  C
  C76      1.0000 0.64050  0.83500  0.88030  Biso   1.000  C
  H75      1.0000 0.32860  0.09060  0.08910  Biso   1.000  H
  H76      1.0000 0.67140  0.90940  0.91090  Biso   1.000  H
  H77      1.0000 0.31410  0.19910  0.09720  Biso   1.000  H
  H78      1.0000 0.68590  0.80090  0.90280  Biso   1.000  H
  H79      1.0000 0.36450  0.18720  0.17810  Biso   1.000  H
  H80      1.0000 0.63550  0.81280  0.82190  Biso   1.000  H
  C77      1.0000 0.49710  0.11050  0.05840  Biso   1.000  C
  C78      1.0000 0.50290  0.88950  0.94160  Biso   1.000  C
  H81      1.0000 0.44260  0.04530  0.03880  Biso   1.000  H
  H82      1.0000 0.55740  0.95470  0.96120  Biso   1.000  H
  H83      1.0000 0.56470  0.10800  0.08890  Biso   1.000  H
  H84      1.0000 0.43530  0.89200  0.91110  Biso   1.000  H
  H85      1.0000 0.50630  0.12200  0.01100  Biso   1.000  H
  H86      1.0000 0.49370  0.87800  0.98900  Biso   1.000  H
  C79      1.0000 0.82740  0.24140  0.11600  Biso   1.000  C
  C80      1.0000 0.17260  0.75860  0.88400  Biso   1.000  C
  H87      1.0000 0.78230  0.24630  0.15020  Biso   1.000  H
  H88      1.0000 0.21770  0.75370  0.84980  Biso   1.000  H
  C81      1.0000 0.00030  0.24700  0.10250  Biso   1.000  C
  C82      1.0000 0.99970  0.75300  0.89750  Biso   1.000  C
  H89      1.0000 0.06850  0.24290  0.13060  Biso   1.000  H
  H90      1.0000 0.93150  0.75710  0.86940  Biso   1.000  H
  H91      1.0000 0.01080  0.31290  0.09980  Biso   1.000  H
  H92      1.0000 0.98920  0.68710  0.90020  Biso   1.000  H
  H93      1.0000 0.97250  0.19060  0.04650  Biso   1.000  H
  H94      1.0000 0.02750  0.80940  0.95350  Biso   1.000  H
  C83      1.0000 0.96200  0.25100  0.22680  Biso   1.000  C
  C84      1.0000 0.03800  0.74900  0.77320  Biso   1.000  C
  H95      1.0000 0.03440  0.24420  0.23610  Biso   1.000  H
  H96      1.0000 0.96560  0.75580  0.76390  Biso   1.000  H
  H97      1.0000 0.91580  0.19820  0.23450  Biso   1.000  H
  H98      1.0000 0.08420  0.80180  0.76550  Biso   1.000  H
  H99      1.0000 0.96300  0.31920  0.26610  Biso   1.000  H
  H100     1.0000 0.03700  0.68080  0.73390  Biso   1.000  H
  C85      1.0000 0.58770  0.12340  0.88220  Biso   1.000  C
  C86      1.0000 0.41230  0.87660  0.11780  Biso   1.000  C
  H101     1.0000 0.64470  0.14130  0.92990  Biso   1.000  H
  H102     1.0000 0.35530  0.85870  0.07010  Biso   1.000  H
  C87      1.0000 0.48600  0.18350  0.80030  Biso   1.000  C
  C88      1.0000 0.51400  0.81650  0.19970  Biso   1.000  C
  H103     1.0000 0.48090  0.24840  0.79930  Biso   1.000  H
  H104     1.0000 0.51910  0.75160  0.20070  Biso   1.000  H
  H105     1.0000 0.41790  0.14690  0.80120  Biso   1.000  H
  H106     1.0000 0.58210  0.85310  0.19880  Biso   1.000  H
  H107     1.0000 0.50280  0.14100  0.75090  Biso   1.000  H
  H108     1.0000 0.49720  0.85900  0.24910  Biso   1.000  H
  C89      1.0000 0.62580  0.29620  0.92850  Biso   1.000  C
  C90      1.0000 0.37420  0.70380  0.07150  Biso   1.000  C
  H109     1.0000 0.60360  0.34650  0.91160  Biso   1.000  H
  H110     1.0000 0.39640  0.65350  0.08840  Biso   1.000  H
  H111     1.0000 0.70130  0.30360  0.93320  Biso   1.000  H
  H112     1.0000 0.29870  0.69640  0.06680  Biso   1.000  H
  H113     1.0000 0.61470  0.30810  0.98190  Biso   1.000  H
  H114     1.0000 0.38530  0.69190  0.01810  Biso   1.000  H
  C91      1.0000 0.65410  0.20620  0.27990  Biso   1.000  C
  C92      1.0000 0.34590  0.79380  0.72010  Biso   1.000  C
  H115     1.0000 0.63790  0.13480  0.24500  Biso   1.000  H
  H116     1.0000 0.36210  0.86520  0.75500  Biso   1.000  H
  C93      1.0000 0.61250  0.34930  0.37850  Biso   1.000  C
  C94      1.0000 0.38750  0.65070  0.62150  Biso   1.000  C
  H117     1.0000 0.56210  0.35970  0.41070  Biso   1.000  H
  H118     1.0000 0.43790  0.64030  0.58930  Biso   1.000  H
  H119     1.0000 0.60380  0.38400  0.34300  Biso   1.000  H
  H120     1.0000 0.39620  0.61600  0.65700  Biso   1.000  H
  H121     1.0000 0.68540  0.37780  0.41610  Biso   1.000  H
  H122     1.0000 0.31460  0.62220  0.58390  Biso   1.000  H
  C95      1.0000 0.49940  0.17150  0.32900  Biso   1.000  C
  C96      1.0000 0.50060  0.82850  0.67100  Biso   1.000  C
  H123     1.0000 0.46930  0.21350  0.36980  Biso   1.000  H
  H124     1.0000 0.53070  0.78650  0.63020  Biso   1.000  H
  H125     1.0000 0.52030  0.11980  0.34450  Biso   1.000  H
  H126     1.0000 0.47970  0.88020  0.65550  Biso   1.000  H
  H127     1.0000 0.44590  0.13720  0.27450  Biso   1.000  H
  H128     1.0000 0.55410  0.86280  0.72550  Biso   1.000  H
  C97      1.0000 0.89800  0.24800  0.21700  Biso   1.000  C
  C98      1.0000 0.10200  0.75200  0.78300  Biso   1.000  C
  H129     1.0000 0.95210  0.28690  0.26890  Biso   1.000  H
  H130     1.0000 0.04790  0.71310  0.73110  Biso   1.000  H
  C99      1.0000 0.86800  0.18400  0.07400  Biso   1.000  C
  C100     1.0000 0.13200  0.81600  0.92600  Biso   1.000  C
  H131     1.0000 0.89880  0.20670  0.03830  Biso   1.000  H
  H132     1.0000 0.10120  0.79330  0.96170  Biso   1.000  H
  H133     1.0000 0.79550  0.19010  0.06790  Biso   1.000  H
  H134     1.0000 0.20450  0.80990  0.93210  Biso   1.000  H
  H135     1.0000 0.86600  0.11190  0.05900  Biso   1.000  H
  H136     1.0000 0.13400  0.88810  0.94100  Biso   1.000  H
  C101     1.0000 0.04800  0.29400  0.17300  Biso   1.000  C
  C102     1.0000 0.95200  0.70600  0.82700  Biso   1.000  C
  H137     1.0000 0.07840  0.32470  0.23350  Biso   1.000  H
  H138     1.0000 0.92160  0.67530  0.76650  Biso   1.000  H
  H139     1.0000 0.05740  0.34850  0.15520  Biso   1.000  H
  H140     1.0000 0.94260  0.65150  0.84480  Biso   1.000  H
  H141     1.0000 0.08350  0.24390  0.14690  Biso   1.000  H
  H142     1.0000 0.91650  0.75610  0.85310  Biso   1.000  H
  C103     1.0000 0.07640  0.93870  0.43240  Biso   1.000  C
  C104     1.0000 0.92360  0.06130  0.56760  Biso   1.000  C
  C105     1.0000 0.94330  0.79540  0.41090  Biso   1.000  C
  C106     1.0000 0.05670  0.20460  0.58910  Biso   1.000  C
  C107     1.0000 0.07630  0.77080  0.34230  Biso   1.000  C
  C108     1.0000 0.92370  0.22920  0.65770  Biso   1.000  C
  C109     1.0000 0.55600  0.13700  0.86680  Biso   1.000  C
  C110     1.0000 0.44400  0.86300  0.13320  Biso   1.000  C
  C111     1.0000 0.62110  0.32280  0.92180  Biso   1.000  C
  C112     1.0000 0.37890  0.67720  0.07820  Biso   1.000  C
  C113     1.0000 0.48700  0.21300  0.79230  Biso   1.000  C
  C114     1.0000 0.51300  0.78700  0.20770  Biso   1.000  C
  C115     1.0000 0.67760  0.29580  0.32490  Biso   1.000  C
  C116     1.0000 0.32240  0.70420  0.67510  Biso   1.000  C
  C117     1.0000 0.53100  0.26200  0.38100  Biso   1.000  C
  C118     1.0000 0.46900  0.73800  0.61900  Biso   1.000  C
  C119     1.0000 0.56830  0.11770  0.27470  Biso   1.000  C
  C120     1.0000 0.43170  0.88230  0.72530  Biso   1.000  C
  H143     1.0000 0.04280  0.97920  0.46810  Biso   1.000  H
  H144     1.0000 0.95720  0.02080  0.53190  Biso   1.000  H
  H145     1.0000 0.92410  0.72070  0.37830  Biso   1.000  H
  H146     1.0000 0.07590  0.27930  0.62170  Biso   1.000  H
  H147     1.0000 0.88390  0.82070  0.39470  Biso   1.000  H
  H148     1.0000 0.11610  0.17930  0.60530  Biso   1.000  H
  H149     1.0000 0.95910  0.81240  0.46970  Biso   1.000  H
  H150     1.0000 0.04090  0.18760  0.53030  Biso   1.000  H
  H151     1.0000 0.03180  0.70020  0.32150  Biso   1.000  H
  H152     1.0000 0.96820  0.29980  0.67850  Biso   1.000  H
  H153     1.0000 0.14860  0.77780  0.37250  Biso   1.000  H
  H154     1.0000 0.85140  0.22220  0.62750  Biso   1.000  H
  H155     1.0000 0.07850  0.78670  0.29570  Biso   1.000  H
  H156     1.0000 0.92150  0.21330  0.70430  Biso   1.000  H
  H157     1.0000 0.51260  0.07030  0.82710  Biso   1.000  H
  H158     1.0000 0.48740  0.92970  0.17290  Biso   1.000  H
  H159     1.0000 0.59850  0.37290  0.90500  Biso   1.000  H
  H160     1.0000 0.40150  0.62710  0.09500  Biso   1.000  H
  H161     1.0000 0.69600  0.32870  0.92430  Biso   1.000  H
  H162     1.0000 0.30400  0.67130  0.07570  Biso   1.000  H
  H163     1.0000 0.61280  0.33610  0.97620  Biso   1.000  H
  H164     1.0000 0.38720  0.66390  0.02380  Biso   1.000  H
  H165     1.0000 0.44790  0.14030  0.75890  Biso   1.000  H
  H166     1.0000 0.55210  0.85970  0.24110  Biso   1.000  H
  H167     1.0000 0.52560  0.23760  0.76060  Biso   1.000  H
  H168     1.0000 0.47440  0.76240  0.23940  Biso   1.000  H
  H169     1.0000 0.43640  0.25280  0.80670  Biso   1.000  H
  H170     1.0000 0.56360  0.74720  0.19330  Biso   1.000  H
  H171     1.0000 0.69870  0.36700  0.36170  Biso   1.000  H
  H172     1.0000 0.30130  0.63300  0.63830  Biso   1.000  H
  H173     1.0000 0.47270  0.20180  0.36650  Biso   1.000  H
  H174     1.0000 0.52730  0.79820  0.63350  Biso   1.000  H
  H175     1.0000 0.50110  0.31680  0.37630  Biso   1.000  H
  H176     1.0000 0.49890  0.68320  0.62370  Biso   1.000  H
  H177     1.0000 0.57590  0.28700  0.43730  Biso   1.000  H
  H178     1.0000 0.42410  0.71300  0.56270  Biso   1.000  H
  H179     1.0000 0.50360  0.08190  0.28060  Biso   1.000  H
  H180     1.0000 0.49640  0.91810  0.71940  Biso   1.000  H
  H181     1.0000 0.62830  0.09570  0.29490  Biso   1.000  H
  H182     1.0000 0.37170  0.90430  0.70510  Biso   1.000  H
  H183     1.0000 0.55820  0.10110  0.21640  Biso   1.000  H
  H184     1.0000 0.44180  0.89890  0.78360  Biso   1.000  H
  N23      1.0000 0.56040  0.22660  0.86600  Biso   1.000  N
  N24      1.0000 0.43960  0.77340  0.13400  Biso   1.000  N
  N25      1.0000 0.03190  0.84120  0.39690  Biso   1.000  N
  N26      1.0000 0.96810  0.15880  0.60310  Biso   1.000  N
  O55      1.0000 0.15570  0.98550  0.42620  Biso   1.000  O
  O56      1.0000 0.84430  0.01450  0.57380  Biso   1.000  O
  O57      1.0000 0.62400  0.16300  0.93300  Biso   1.000  O
  O58      1.0000 0.37600  0.83700  0.06700  Biso   1.000  O
