data_image0
_cell_length_a       15.764
_cell_length_b       32.574
_cell_length_c       10.482
_cell_angle_alpha    90
_cell_angle_beta     90.025
_cell_angle_gamma    90

_symmetry_space_group_name_H-M    "P 1"
_symmetry_int_tables_number       1

loop_
  _symmetry_equiv_pos_as_xyz
  'x, y, z'

loop_
  _atom_site_label
  _atom_site_occupancy
  _atom_site_fract_x
  _atom_site_fract_y
  _atom_site_fract_z
  _atom_site_thermal_displace_type
  _atom_site_B_iso_or_equiv
  _atom_site_type_symbol
  Cu1      1.0000 0.20773  0.10055  0.94660  Biso   1.000  Cu
  Cu2      1.0000 0.79227  0.60055  0.55340  Biso   1.000  Cu
  Cu3      1.0000 0.79227  0.89945  0.05340  Biso   1.000  Cu
  Cu4      1.0000 0.20773  0.39945  0.44660  Biso   1.000  Cu
  Cu5      1.0000 0.21348  0.15980  0.11659  Biso   1.000  Cu
  Cu6      1.0000 0.78652  0.65980  0.38341  Biso   1.000  Cu
  Cu7      1.0000 0.78652  0.84020  0.88341  Biso   1.000  Cu
  Cu8      1.0000 0.21348  0.34020  0.61659  Biso   1.000  Cu
  Cu9      1.0000 0.70818  0.09922  0.62197  Biso   1.000  Cu
  Cu10     1.0000 0.29182  0.59922  0.87803  Biso   1.000  Cu
  Cu11     1.0000 0.29182  0.90078  0.37803  Biso   1.000  Cu
  Cu12     1.0000 0.70818  0.40078  0.12197  Biso   1.000  Cu
  Cu13     1.0000 0.71574  0.15750  0.44843  Biso   1.000  Cu
  Cu14     1.0000 0.28426  0.65750  0.05157  Biso   1.000  Cu
  Cu15     1.0000 0.28426  0.84250  0.55157  Biso   1.000  Cu
  Cu16     1.0000 0.71574  0.34250  0.94843  Biso   1.000  Cu
  O1       1.0000 0.12690  0.07037  0.05430  Biso   1.000  O
  O2       1.0000 0.87310  0.57037  0.44570  Biso   1.000  O
  O3       1.0000 0.87310  0.92963  0.94570  Biso   1.000  O
  O4       1.0000 0.12690  0.42963  0.55430  Biso   1.000  O
  O5       1.0000 0.12530  0.12278  0.19230  Biso   1.000  O
  O6       1.0000 0.87470  0.62278  0.30770  Biso   1.000  O
  O7       1.0000 0.87470  0.87722  0.80770  Biso   1.000  O
  O8       1.0000 0.12530  0.37722  0.69230  Biso   1.000  O
  O9       1.0000 0.28360  0.13853  0.85690  Biso   1.000  O
  O10      1.0000 0.71640  0.63853  0.64310  Biso   1.000  O
  O11      1.0000 0.71640  0.86147  0.14310  Biso   1.000  O
  O12      1.0000 0.28360  0.36147  0.35690  Biso   1.000  O
  O13      1.0000 0.30080  0.18629  0.01000  Biso   1.000  O
  O14      1.0000 0.69920  0.68629  0.49000  Biso   1.000  O
  O15      1.0000 0.69920  0.81371  0.99000  Biso   1.000  O
  O16      1.0000 0.30080  0.31371  0.51000  Biso   1.000  O
  O17      1.0000 0.30420  0.07773  0.04190  Biso   1.000  O
  O18      1.0000 0.69580  0.57773  0.45810  Biso   1.000  O
  O19      1.0000 0.69580  0.92227  0.95810  Biso   1.000  O
  O20      1.0000 0.30420  0.42227  0.54190  Biso   1.000  O
  O21      1.0000 0.30190  0.12597  0.19380  Biso   1.000  O
  O22      1.0000 0.69810  0.62597  0.30620  Biso   1.000  O
  O23      1.0000 0.69810  0.87403  0.80620  Biso   1.000  O
  O24      1.0000 0.30190  0.37403  0.69380  Biso   1.000  O
  O25      1.0000 0.11050  0.13283  0.88150  Biso   1.000  O
  O26      1.0000 0.88950  0.63283  0.61850  Biso   1.000  O
  O27      1.0000 0.88950  0.86717  0.11850  Biso   1.000  O
  O28      1.0000 0.11050  0.36717  0.38150  Biso   1.000  O
  O29      1.0000 0.12300  0.18565  0.01740  Biso   1.000  O
  O30      1.0000 0.87700  0.68565  0.48260  Biso   1.000  O
  O31      1.0000 0.87700  0.81435  0.98260  Biso   1.000  O
  O32      1.0000 0.12300  0.31435  0.51740  Biso   1.000  O
  O33      1.0000 0.21470  0.05938  0.78590  Biso   1.000  O
  O34      1.0000 0.78530  0.55938  0.71410  Biso   1.000  O
  O35      1.0000 0.78530  0.94062  0.21410  Biso   1.000  O
  O36      1.0000 0.21470  0.44062  0.28590  Biso   1.000  O
  O37      1.0000 0.20760  0.19920  0.28310  Biso   1.000  O
  O38      1.0000 0.79240  0.69920  0.21690  Biso   1.000  O
  O39      1.0000 0.79240  0.80080  0.71690  Biso   1.000  O
  O40      1.0000 0.20760  0.30080  0.78310  Biso   1.000  O
  O41      1.0000 0.96680  0.13179  0.29660  Biso   1.000  O
  O42      1.0000 0.03320  0.63179  0.20340  Biso   1.000  O
  O43      1.0000 0.03320  0.86821  0.70340  Biso   1.000  O
  O44      1.0000 0.96680  0.36821  0.79660  Biso   1.000  O
  O45      1.0000 0.46470  0.13012  0.82650  Biso   1.000  O
  O46      1.0000 0.53530  0.63012  0.67350  Biso   1.000  O
  O47      1.0000 0.53530  0.86988  0.17350  Biso   1.000  O
  O48      1.0000 0.46470  0.36988  0.32650  Biso   1.000  O
  O49      1.0000 0.61060  0.13230  0.68600  Biso   1.000  O
  O50      1.0000 0.38940  0.63230  0.81400  Biso   1.000  O
  O51      1.0000 0.38940  0.86770  0.31400  Biso   1.000  O
  O52      1.0000 0.61060  0.36770  0.18600  Biso   1.000  O
  O53      1.0000 0.62750  0.18474  0.54940  Biso   1.000  O
  O54      1.0000 0.37250  0.68474  0.95060  Biso   1.000  O
  O55      1.0000 0.37250  0.81526  0.45060  Biso   1.000  O
  O56      1.0000 0.62750  0.31526  0.04940  Biso   1.000  O
  O57      1.0000 0.80460  0.07517  0.53370  Biso   1.000  O
  O58      1.0000 0.19540  0.57517  0.96630  Biso   1.000  O
  O59      1.0000 0.19540  0.92483  0.46630  Biso   1.000  O
  O60      1.0000 0.80460  0.42483  0.03370  Biso   1.000  O
  O61      1.0000 0.80180  0.12194  0.37510  Biso   1.000  O
  O62      1.0000 0.19820  0.62194  0.12490  Biso   1.000  O
  O63      1.0000 0.19820  0.87806  0.62490  Biso   1.000  O
  O64      1.0000 0.80180  0.37806  0.87510  Biso   1.000  O
  O65      1.0000 0.78450  0.13770  0.70860  Biso   1.000  O
  O66      1.0000 0.21550  0.63770  0.79140  Biso   1.000  O
  O67      1.0000 0.21550  0.86230  0.29140  Biso   1.000  O
  O68      1.0000 0.78450  0.36230  0.20860  Biso   1.000  O
  O69      1.0000 0.80410  0.18364  0.55220  Biso   1.000  O
  O70      1.0000 0.19590  0.68364  0.94780  Biso   1.000  O
  O71      1.0000 0.19590  0.81636  0.44780  Biso   1.000  O
  O72      1.0000 0.80410  0.31636  0.05220  Biso   1.000  O
  O73      1.0000 0.62640  0.07010  0.51240  Biso   1.000  O
  O74      1.0000 0.37360  0.57010  0.98760  Biso   1.000  O
  O75      1.0000 0.37360  0.92990  0.48760  Biso   1.000  O
  O76      1.0000 0.62640  0.42990  0.01240  Biso   1.000  O
  O77      1.0000 0.62500  0.12259  0.37420  Biso   1.000  O
  O78      1.0000 0.37500  0.62259  0.12580  Biso   1.000  O
  O79      1.0000 0.37500  0.87741  0.62580  Biso   1.000  O
  O80      1.0000 0.62500  0.37741  0.87420  Biso   1.000  O
  O81      1.0000 0.71320  0.05849  0.78350  Biso   1.000  O
  O82      1.0000 0.28680  0.55849  0.71650  Biso   1.000  O
  O83      1.0000 0.28680  0.94151  0.21650  Biso   1.000  O
  O84      1.0000 0.71320  0.44151  0.28350  Biso   1.000  O
  O85      1.0000 0.71370  0.19642  0.27890  Biso   1.000  O
  O86      1.0000 0.28630  0.69642  0.22110  Biso   1.000  O
  O87      1.0000 0.28630  0.80358  0.72110  Biso   1.000  O
  O88      1.0000 0.71370  0.30358  0.77890  Biso   1.000  O
  O89      1.0000 0.46900  0.13449  0.26730  Biso   1.000  O
  O90      1.0000 0.53100  0.63449  0.23270  Biso   1.000  O
  O91      1.0000 0.53100  0.86551  0.73270  Biso   1.000  O
  O92      1.0000 0.46900  0.36551  0.76730  Biso   1.000  O
  O93      1.0000 0.96320  0.12879  0.74300  Biso   1.000  O
  O94      1.0000 0.03680  0.62879  0.75700  Biso   1.000  O
  O95      1.0000 0.03680  0.87121  0.25700  Biso   1.000  O
  O96      1.0000 0.96320  0.37121  0.24300  Biso   1.000  O
  N1       1.0000 0.22360  0.06139  0.56930  Biso   1.000  N
  N2       1.0000 0.77640  0.56139  0.93070  Biso   1.000  N
  N3       1.0000 0.77640  0.93861  0.43070  Biso   1.000  N
  N4       1.0000 0.22360  0.43861  0.06930  Biso   1.000  N
  N5       1.0000 0.15420  0.19603  0.48500  Biso   1.000  N
  N6       1.0000 0.84580  0.69603  0.01500  Biso   1.000  N
  N7       1.0000 0.84580  0.80397  0.51500  Biso   1.000  N
  N8       1.0000 0.15420  0.30397  0.98500  Biso   1.000  N
  N9       1.0000 0.71870  0.05640  0.99890  Biso   1.000  N
  N10      1.0000 0.28130  0.55640  0.50110  Biso   1.000  N
  N11      1.0000 0.28130  0.94360  0.00110  Biso   1.000  N
  N12      1.0000 0.71870  0.44360  0.49890  Biso   1.000  N
  N13      1.0000 0.65810  0.19557  0.07860  Biso   1.000  N
  N14      1.0000 0.34190  0.69557  0.42140  Biso   1.000  N
  N15      1.0000 0.34190  0.80443  0.92140  Biso   1.000  N
  N16      1.0000 0.65810  0.30443  0.57860  Biso   1.000  N
  C1       1.0000 0.09880  0.08889  0.15090  Biso   1.000  C
  C2       1.0000 0.90120  0.58889  0.34910  Biso   1.000  C
  C3       1.0000 0.90120  0.91111  0.84910  Biso   1.000  C
  C4       1.0000 0.09880  0.41111  0.65090  Biso   1.000  C
  C5       1.0000 0.02910  0.06819  0.22480  Biso   1.000  C
  C6       1.0000 0.97090  0.56819  0.27520  Biso   1.000  C
  C7       1.0000 0.97090  0.93181  0.77520  Biso   1.000  C
  C8       1.0000 0.02910  0.43181  0.72480  Biso   1.000  C
  C9       1.0000 0.02810  0.02530  0.22780  Biso   1.000  C
  C10      1.0000 0.97190  0.52530  0.27220  Biso   1.000  C
  C11      1.0000 0.97190  0.97470  0.77220  Biso   1.000  C
  C12      1.0000 0.02810  0.47470  0.72780  Biso   1.000  C
  H1       1.0000 0.06700  0.01020  0.17710  Biso   1.000  H
  H2       1.0000 0.93300  0.51020  0.32290  Biso   1.000  H
  H3       1.0000 0.93300  0.98980  0.82290  Biso   1.000  H
  H4       1.0000 0.06700  0.48980  0.67710  Biso   1.000  H
  C13      1.0000 0.97000  0.00470  0.30540  Biso   1.000  C
  C14      1.0000 0.03000  0.50470  0.19460  Biso   1.000  C
  C15      1.0000 0.03000  0.99530  0.69460  Biso   1.000  C
  C16      1.0000 0.97000  0.49530  0.80540  Biso   1.000  C
  H5       1.0000 0.97190  0.97560  0.31150  Biso   1.000  H
  H6       1.0000 0.02810  0.47560  0.18850  Biso   1.000  H
  H7       1.0000 0.02810  0.02440  0.68850  Biso   1.000  H
  H8       1.0000 0.97190  0.52440  0.81150  Biso   1.000  H
  C17      1.0000 0.91000  0.02620  0.37280  Biso   1.000  C
  C18      1.0000 0.09000  0.52620  0.12720  Biso   1.000  C
  C19      1.0000 0.09000  0.97380  0.62720  Biso   1.000  C
  C20      1.0000 0.91000  0.47380  0.87280  Biso   1.000  C
  H9       1.0000 0.87170  0.01190  0.42680  Biso   1.000  H
  H10      1.0000 0.12830  0.51190  0.07320  Biso   1.000  H
  H11      1.0000 0.12830  0.98810  0.57320  Biso   1.000  H
  H12      1.0000 0.87170  0.48810  0.92680  Biso   1.000  H
  C21      1.0000 0.90460  0.06865  0.36320  Biso   1.000  C
  C22      1.0000 0.09540  0.56865  0.13680  Biso   1.000  C
  C23      1.0000 0.09540  0.93135  0.63680  Biso   1.000  C
  C24      1.0000 0.90460  0.43135  0.86320  Biso   1.000  C
  C25      1.0000 0.96650  0.09009  0.29190  Biso   1.000  C
  C26      1.0000 0.03350  0.59009  0.20810  Biso   1.000  C
  C27      1.0000 0.03350  0.90991  0.70810  Biso   1.000  C
  C28      1.0000 0.96650  0.40991  0.79190  Biso   1.000  C
  C29      1.0000 0.93580  0.15110  0.18280  Biso   1.000  C
  C30      1.0000 0.06420  0.65110  0.31720  Biso   1.000  C
  C31      1.0000 0.06420  0.84890  0.81720  Biso   1.000  C
  C32      1.0000 0.93580  0.34890  0.68280  Biso   1.000  C
  H13      1.0000 0.95690  0.13630  0.10790  Biso   1.000  H
  H14      1.0000 0.04310  0.63630  0.39210  Biso   1.000  H
  H15      1.0000 0.04310  0.86370  0.89210  Biso   1.000  H
  H16      1.0000 0.95690  0.36370  0.60790  Biso   1.000  H
  H17      1.0000 0.95570  0.17960  0.17980  Biso   1.000  H
  H18      1.0000 0.04430  0.67960  0.32020  Biso   1.000  H
  H19      1.0000 0.04430  0.82040  0.82020  Biso   1.000  H
  H20      1.0000 0.95570  0.32040  0.67980  Biso   1.000  H
  H21      1.0000 0.87360  0.15070  0.18280  Biso   1.000  H
  H22      1.0000 0.12640  0.65070  0.31720  Biso   1.000  H
  H23      1.0000 0.12640  0.84930  0.81720  Biso   1.000  H
  H24      1.0000 0.87360  0.34930  0.68280  Biso   1.000  H
  C33      1.0000 0.31770  0.17075  0.90490  Biso   1.000  C
  C34      1.0000 0.68230  0.67075  0.59510  Biso   1.000  C
  C35      1.0000 0.68230  0.82925  0.09510  Biso   1.000  C
  C36      1.0000 0.31770  0.32925  0.40490  Biso   1.000  C
  C37      1.0000 0.38210  0.19115  0.81870  Biso   1.000  C
  C38      1.0000 0.61790  0.69115  0.68130  Biso   1.000  C
  C39      1.0000 0.61790  0.80885  0.18130  Biso   1.000  C
  C40      1.0000 0.38210  0.30885  0.31870  Biso   1.000  C
  C41      1.0000 0.37080  0.23115  0.78020  Biso   1.000  C
  C42      1.0000 0.62920  0.73115  0.71980  Biso   1.000  C
  C43      1.0000 0.62920  0.76885  0.21980  Biso   1.000  C
  C44      1.0000 0.37080  0.26885  0.28020  Biso   1.000  C
  H25      1.0000 0.32490  0.24670  0.81360  Biso   1.000  H
  H26      1.0000 0.67510  0.74670  0.68640  Biso   1.000  H
  H27      1.0000 0.67510  0.75330  0.18640  Biso   1.000  H
  H28      1.0000 0.32490  0.25330  0.31360  Biso   1.000  H
  C45      1.0000 0.42550  0.24890  0.69340  Biso   1.000  C
  C46      1.0000 0.57450  0.74890  0.80660  Biso   1.000  C
  C47      1.0000 0.57450  0.75110  0.30660  Biso   1.000  C
  C48      1.0000 0.42550  0.25110  0.19340  Biso   1.000  C
  H29      1.0000 0.41590  0.27610  0.66360  Biso   1.000  H
  H30      1.0000 0.58410  0.77610  0.83640  Biso   1.000  H
  H31      1.0000 0.58410  0.72390  0.33640  Biso   1.000  H
  H32      1.0000 0.41590  0.22390  0.16360  Biso   1.000  H
  C49      1.0000 0.49440  0.22664  0.65040  Biso   1.000  C
  C50      1.0000 0.50560  0.72664  0.84960  Biso   1.000  C
  C51      1.0000 0.50560  0.77336  0.34960  Biso   1.000  C
  C52      1.0000 0.49440  0.27336  0.15040  Biso   1.000  C
  H33      1.0000 0.53190  0.23900  0.59090  Biso   1.000  H
  H34      1.0000 0.46810  0.73900  0.90910  Biso   1.000  H
  H35      1.0000 0.46810  0.76100  0.40910  Biso   1.000  H
  H36      1.0000 0.53190  0.26100  0.09090  Biso   1.000  H
  C53      1.0000 0.51080  0.18673  0.69120  Biso   1.000  C
  C54      1.0000 0.48920  0.68673  0.80880  Biso   1.000  C
  C55      1.0000 0.48920  0.81327  0.30880  Biso   1.000  C
  C56      1.0000 0.51080  0.31327  0.19120  Biso   1.000  C
  C57      1.0000 0.45360  0.16856  0.77670  Biso   1.000  C
  C58      1.0000 0.54640  0.66856  0.72330  Biso   1.000  C
  C59      1.0000 0.54640  0.83144  0.22330  Biso   1.000  C
  C60      1.0000 0.45360  0.33144  0.27670  Biso   1.000  C
  C61      1.0000 0.43970  0.09660  0.74910  Biso   1.000  C
  C62      1.0000 0.56030  0.59660  0.75090  Biso   1.000  C
  C63      1.0000 0.56030  0.90340  0.25090  Biso   1.000  C
  C64      1.0000 0.43970  0.40340  0.24910  Biso   1.000  C
  H37      1.0000 0.37950  0.09930  0.72740  Biso   1.000  H
  H38      1.0000 0.62050  0.59930  0.77260  Biso   1.000  H
  H39      1.0000 0.62050  0.90070  0.27260  Biso   1.000  H
  H40      1.0000 0.37950  0.40070  0.22740  Biso   1.000  H
  H41      1.0000 0.44890  0.07090  0.79560  Biso   1.000  H
  H42      1.0000 0.55110  0.57090  0.70440  Biso   1.000  H
  H43      1.0000 0.55110  0.92910  0.20440  Biso   1.000  H
  H44      1.0000 0.44890  0.42910  0.29560  Biso   1.000  H
  H45      1.0000 0.47360  0.09650  0.67070  Biso   1.000  H
  H46      1.0000 0.52640  0.59650  0.82930  Biso   1.000  H
  H47      1.0000 0.52640  0.90350  0.32930  Biso   1.000  H
  H48      1.0000 0.47360  0.40350  0.17070  Biso   1.000  H
  C65      1.0000 0.59000  0.16603  0.64020  Biso   1.000  C
  C66      1.0000 0.41000  0.66603  0.85980  Biso   1.000  C
  C67      1.0000 0.41000  0.83397  0.35980  Biso   1.000  C
  C68      1.0000 0.59000  0.33397  0.14020  Biso   1.000  C
  C69      1.0000 0.32990  0.09425  0.14210  Biso   1.000  C
  C70      1.0000 0.67010  0.59425  0.35790  Biso   1.000  C
  C71      1.0000 0.67010  0.90575  0.85790  Biso   1.000  C
  C72      1.0000 0.32990  0.40575  0.64210  Biso   1.000  C
  C73      1.0000 0.39870  0.07163  0.21270  Biso   1.000  C
  C74      1.0000 0.60130  0.57163  0.28730  Biso   1.000  C
  C75      1.0000 0.60130  0.92837  0.78730  Biso   1.000  C
  C76      1.0000 0.39870  0.42837  0.71270  Biso   1.000  C
  C77      1.0000 0.39300  0.02955  0.21990  Biso   1.000  C
  C78      1.0000 0.60700  0.52955  0.28010  Biso   1.000  C
  C79      1.0000 0.60700  0.97045  0.78010  Biso   1.000  C
  C80      1.0000 0.39300  0.47045  0.71990  Biso   1.000  C
  H49      1.0000 0.34960  0.01570  0.17400  Biso   1.000  H
  H50      1.0000 0.65040  0.51570  0.32600  Biso   1.000  H
  H51      1.0000 0.65040  0.98430  0.82600  Biso   1.000  H
  H52      1.0000 0.34960  0.48430  0.67400  Biso   1.000  H
  C81      1.0000 0.44950  0.00699  0.29330  Biso   1.000  C
  C82      1.0000 0.55050  0.50699  0.20670  Biso   1.000  C
  C83      1.0000 0.55050  0.99301  0.70670  Biso   1.000  C
  C84      1.0000 0.44950  0.49301  0.79330  Biso   1.000  C
  H53      1.0000 0.44470  0.97800  0.29890  Biso   1.000  H
  H54      1.0000 0.55530  0.47800  0.20110  Biso   1.000  H
  H55      1.0000 0.55530  0.02200  0.70110  Biso   1.000  H
  H56      1.0000 0.44470  0.52200  0.79890  Biso   1.000  H
  C85      1.0000 0.51320  0.02759  0.35810  Biso   1.000  C
  C86      1.0000 0.48680  0.52759  0.14190  Biso   1.000  C
  C87      1.0000 0.48680  0.97241  0.64190  Biso   1.000  C
  C88      1.0000 0.51320  0.47241  0.85810  Biso   1.000  C
  H57      1.0000 0.55170  0.01230  0.40930  Biso   1.000  H
  H58      1.0000 0.44830  0.51230  0.09070  Biso   1.000  H
  H59      1.0000 0.44830  0.98770  0.59070  Biso   1.000  H
  H60      1.0000 0.55170  0.48770  0.90930  Biso   1.000  H
  C89      1.0000 0.52250  0.06988  0.35050  Biso   1.000  C
  C90      1.0000 0.47750  0.56988  0.14950  Biso   1.000  C
  C91      1.0000 0.47750  0.93012  0.64950  Biso   1.000  C
  C92      1.0000 0.52250  0.43012  0.85050  Biso   1.000  C
  C93      1.0000 0.46320  0.09236  0.27890  Biso   1.000  C
  C94      1.0000 0.53680  0.59236  0.22110  Biso   1.000  C
  C95      1.0000 0.53680  0.90764  0.72110  Biso   1.000  C
  C96      1.0000 0.46320  0.40764  0.77890  Biso   1.000  C
  C97      1.0000 0.44030  0.15680  0.37800  Biso   1.000  C
  C98      1.0000 0.55970  0.65680  0.12200  Biso   1.000  C
  C99      1.0000 0.55970  0.84320  0.62200  Biso   1.000  C
  C100     1.0000 0.44030  0.34320  0.87800  Biso   1.000  C
  H61      1.0000 0.37860  0.16010  0.37410  Biso   1.000  H
  H62      1.0000 0.62140  0.66010  0.12590  Biso   1.000  H
  H63      1.0000 0.62140  0.83990  0.62590  Biso   1.000  H
  H64      1.0000 0.37860  0.33990  0.87410  Biso   1.000  H
  H65      1.0000 0.46730  0.18390  0.37990  Biso   1.000  H
  H66      1.0000 0.53270  0.68390  0.12010  Biso   1.000  H
  H67      1.0000 0.53270  0.81610  0.62010  Biso   1.000  H
  H68      1.0000 0.46730  0.31610  0.87990  Biso   1.000  H
  H69      1.0000 0.45560  0.14160  0.45540  Biso   1.000  H
  H70      1.0000 0.54440  0.64160  0.04460  Biso   1.000  H
  H71      1.0000 0.54440  0.85840  0.54460  Biso   1.000  H
  H72      1.0000 0.45560  0.35840  0.95540  Biso   1.000  H
  C101     1.0000 0.19240  0.07224  0.68050  Biso   1.000  C
  C102     1.0000 0.80760  0.57224  0.81950  Biso   1.000  C
  C103     1.0000 0.80760  0.92776  0.31950  Biso   1.000  C
  C104     1.0000 0.19240  0.42776  0.18050  Biso   1.000  C
  H73      1.0000 0.14810  0.09200  0.67950  Biso   1.000  H
  H74      1.0000 0.85190  0.59200  0.82050  Biso   1.000  H
  H75      1.0000 0.85190  0.90800  0.32050  Biso   1.000  H
  H76      1.0000 0.14810  0.40800  0.17950  Biso   1.000  H
  C105     1.0000 0.19370  0.07830  0.45000  Biso   1.000  C
  C106     1.0000 0.80630  0.57830  0.05000  Biso   1.000  C
  C107     1.0000 0.80630  0.92170  0.55000  Biso   1.000  C
  C108     1.0000 0.19370  0.42170  0.95000  Biso   1.000  C
  H77      1.0000 0.14050  0.09310  0.46440  Biso   1.000  H
  H78      1.0000 0.85950  0.59310  0.03560  Biso   1.000  H
  H79      1.0000 0.85950  0.90690  0.53560  Biso   1.000  H
  H80      1.0000 0.14050  0.40690  0.96440  Biso   1.000  H
  H81      1.0000 0.18410  0.05600  0.38890  Biso   1.000  H
  H82      1.0000 0.81590  0.55600  0.11110  Biso   1.000  H
  H83      1.0000 0.81590  0.94400  0.61110  Biso   1.000  H
  H84      1.0000 0.18410  0.44400  0.88890  Biso   1.000  H
  H85      1.0000 0.23630  0.09720  0.41580  Biso   1.000  H
  H86      1.0000 0.76370  0.59720  0.08420  Biso   1.000  H
  H87      1.0000 0.76370  0.90280  0.58420  Biso   1.000  H
  H88      1.0000 0.23630  0.40280  0.91580  Biso   1.000  H
  C109     1.0000 0.29270  0.03205  0.56010  Biso   1.000  C
  C110     1.0000 0.70730  0.53205  0.93990  Biso   1.000  C
  C111     1.0000 0.70730  0.96795  0.43990  Biso   1.000  C
  C112     1.0000 0.29270  0.46795  0.06010  Biso   1.000  C
  H89      1.0000 0.30850  0.02270  0.64580  Biso   1.000  H
  H90      1.0000 0.69150  0.52270  0.85420  Biso   1.000  H
  H91      1.0000 0.69150  0.97730  0.35420  Biso   1.000  H
  H92      1.0000 0.30850  0.47730  0.14580  Biso   1.000  H
  H93      1.0000 0.34170  0.04520  0.51950  Biso   1.000  H
  H94      1.0000 0.65830  0.54520  0.98050  Biso   1.000  H
  H95      1.0000 0.65830  0.95480  0.48050  Biso   1.000  H
  H96      1.0000 0.34170  0.45480  0.01950  Biso   1.000  H
  H97      1.0000 0.27460  0.00850  0.50890  Biso   1.000  H
  H98      1.0000 0.72540  0.50850  0.99110  Biso   1.000  H
  H99      1.0000 0.72540  0.99150  0.49110  Biso   1.000  H
  H100     1.0000 0.27460  0.49150  0.00890  Biso   1.000  H
  C113     1.0000 0.14960  0.19113  0.36030  Biso   1.000  C
  C114     1.0000 0.85040  0.69113  0.13970  Biso   1.000  C
  C115     1.0000 0.85040  0.80887  0.63970  Biso   1.000  C
  C116     1.0000 0.14960  0.30887  0.86030  Biso   1.000  C
  H101     1.0000 0.09810  0.18060  0.32640  Biso   1.000  H
  H102     1.0000 0.90190  0.68060  0.17360  Biso   1.000  H
  H103     1.0000 0.90190  0.81940  0.67360  Biso   1.000  H
  H104     1.0000 0.09810  0.31940  0.82640  Biso   1.000  H
  C117     1.0000 0.08210  0.18560  0.56770  Biso   1.000  C
  C118     1.0000 0.91790  0.68560  0.93230  Biso   1.000  C
  C119     1.0000 0.91790  0.81440  0.43230  Biso   1.000  C
  C120     1.0000 0.08210  0.31440  0.06770  Biso   1.000  C
  H105     1.0000 0.03500  0.17550  0.51530  Biso   1.000  H
  H106     1.0000 0.96500  0.67550  0.98470  Biso   1.000  H
  H107     1.0000 0.96500  0.82450  0.48470  Biso   1.000  H
  H108     1.0000 0.03500  0.32450  0.01530  Biso   1.000  H
  H109     1.0000 0.06390  0.21010  0.61460  Biso   1.000  H
  H110     1.0000 0.93610  0.71010  0.88540  Biso   1.000  H
  H111     1.0000 0.93610  0.78990  0.38540  Biso   1.000  H
  H112     1.0000 0.06390  0.28990  0.11460  Biso   1.000  H
  H113     1.0000 0.09920  0.16420  0.62830  Biso   1.000  H
  H114     1.0000 0.90080  0.66420  0.87170  Biso   1.000  H
  H115     1.0000 0.90080  0.83580  0.37170  Biso   1.000  H
  H116     1.0000 0.09920  0.33580  0.12830  Biso   1.000  H
  C121     1.0000 0.22870  0.21090  0.54660  Biso   1.000  C
  C122     1.0000 0.77130  0.71090  0.95340  Biso   1.000  C
  C123     1.0000 0.77130  0.78910  0.45340  Biso   1.000  C
  C124     1.0000 0.22870  0.28910  0.04660  Biso   1.000  C
  H117     1.0000 0.24680  0.19120  0.61180  Biso   1.000  H
  H118     1.0000 0.75320  0.69120  0.88820  Biso   1.000  H
  H119     1.0000 0.75320  0.80880  0.38820  Biso   1.000  H
  H120     1.0000 0.24680  0.30880  0.11180  Biso   1.000  H
  H121     1.0000 0.21650  0.23740  0.58680  Biso   1.000  H
  H122     1.0000 0.78350  0.73740  0.91320  Biso   1.000  H
  H123     1.0000 0.78350  0.76260  0.41320  Biso   1.000  H
  H124     1.0000 0.21650  0.26260  0.08680  Biso   1.000  H
  H125     1.0000 0.27400  0.21430  0.48350  Biso   1.000  H
  H126     1.0000 0.72600  0.71430  0.01650  Biso   1.000  H
  H127     1.0000 0.72600  0.78570  0.51650  Biso   1.000  H
  H128     1.0000 0.27400  0.28570  0.98350  Biso   1.000  H
  C125     1.0000 0.83200  0.09052  0.42940  Biso   1.000  C
  C126     1.0000 0.16800  0.59052  0.07060  Biso   1.000  C
  C127     1.0000 0.16800  0.90948  0.57060  Biso   1.000  C
  C128     1.0000 0.83200  0.40948  0.92940  Biso   1.000  C
  C129     1.0000 0.81990  0.16850  0.66010  Biso   1.000  C
  C130     1.0000 0.18010  0.66850  0.83990  Biso   1.000  C
  C131     1.0000 0.18010  0.83150  0.33990  Biso   1.000  C
  C132     1.0000 0.81990  0.33150  0.16010  Biso   1.000  C
  C133     1.0000 0.88370  0.19025  0.74180  Biso   1.000  C
  C134     1.0000 0.11630  0.69025  0.75820  Biso   1.000  C
  C135     1.0000 0.11630  0.80975  0.25820  Biso   1.000  C
  C136     1.0000 0.88370  0.30975  0.24180  Biso   1.000  C
  C137     1.0000 0.87120  0.23073  0.77730  Biso   1.000  C
  C138     1.0000 0.12880  0.73073  0.72270  Biso   1.000  C
  C139     1.0000 0.12880  0.76927  0.22270  Biso   1.000  C
  C140     1.0000 0.87120  0.26927  0.27730  Biso   1.000  C
  H129     1.0000 0.82490  0.24580  0.74270  Biso   1.000  H
  H130     1.0000 0.17510  0.74580  0.75730  Biso   1.000  H
  H131     1.0000 0.17510  0.75420  0.25730  Biso   1.000  H
  H132     1.0000 0.82490  0.25420  0.24270  Biso   1.000  H
  C141     1.0000 0.92570  0.24929  0.86260  Biso   1.000  C
  C142     1.0000 0.07430  0.74929  0.63740  Biso   1.000  C
  C143     1.0000 0.07430  0.75071  0.13740  Biso   1.000  C
  C144     1.0000 0.92570  0.25071  0.36260  Biso   1.000  C
  H133     1.0000 0.91650  0.27700  0.88770  Biso   1.000  H
  H134     1.0000 0.08350  0.77700  0.61230  Biso   1.000  H
  H135     1.0000 0.08350  0.72300  0.11230  Biso   1.000  H
  H136     1.0000 0.91650  0.22300  0.38770  Biso   1.000  H
  C145     1.0000 0.99380  0.22753  0.91170  Biso   1.000  C
  C146     1.0000 0.00620  0.72753  0.58830  Biso   1.000  C
  C147     1.0000 0.00620  0.77247  0.08830  Biso   1.000  C
  C148     1.0000 0.99380  0.27247  0.41170  Biso   1.000  C
  H137     1.0000 0.03060  0.24030  0.97140  Biso   1.000  H
  H138     1.0000 0.96940  0.74030  0.52860  Biso   1.000  H
  H139     1.0000 0.96940  0.75970  0.02860  Biso   1.000  H
  H140     1.0000 0.03060  0.25970  0.47140  Biso   1.000  H
  C149     1.0000 0.00890  0.18688  0.87420  Biso   1.000  C
  C150     1.0000 0.99110  0.68688  0.62580  Biso   1.000  C
  C151     1.0000 0.99110  0.81312  0.12580  Biso   1.000  C
  C152     1.0000 0.00890  0.31312  0.37420  Biso   1.000  C
  C153     1.0000 0.95260  0.16782  0.79090  Biso   1.000  C
  C154     1.0000 0.04740  0.66782  0.70910  Biso   1.000  C
  C155     1.0000 0.04740  0.83218  0.20910  Biso   1.000  C
  C156     1.0000 0.95260  0.33218  0.29090  Biso   1.000  C
  C157     1.0000 0.93660  0.09602  0.82710  Biso   1.000  C
  C158     1.0000 0.06340  0.59602  0.67290  Biso   1.000  C
  C159     1.0000 0.06340  0.90398  0.17290  Biso   1.000  C
  C160     1.0000 0.93660  0.40398  0.32710  Biso   1.000  C
  H141     1.0000 0.98540  0.08630  0.87650  Biso   1.000  H
  H142     1.0000 0.01460  0.58630  0.62350  Biso   1.000  H
  H143     1.0000 0.01460  0.91370  0.12350  Biso   1.000  H
  H144     1.0000 0.98540  0.41370  0.37650  Biso   1.000  H
  H145     1.0000 0.91360  0.07330  0.77640  Biso   1.000  H
  H146     1.0000 0.08640  0.57330  0.72360  Biso   1.000  H
  H147     1.0000 0.08640  0.92670  0.22360  Biso   1.000  H
  H148     1.0000 0.91360  0.42670  0.27640  Biso   1.000  H
  H149     1.0000 0.89290  0.10620  0.88540  Biso   1.000  H
  H150     1.0000 0.10710  0.60620  0.61460  Biso   1.000  H
  H151     1.0000 0.10710  0.89380  0.11460  Biso   1.000  H
  H152     1.0000 0.89290  0.39380  0.38540  Biso   1.000  H
  C161     1.0000 0.59720  0.08944  0.41700  Biso   1.000  C
  C162     1.0000 0.40280  0.58944  0.08300  Biso   1.000  C
  C163     1.0000 0.40280  0.91056  0.58300  Biso   1.000  C
  C164     1.0000 0.59720  0.41056  0.91700  Biso   1.000  C
  C165     1.0000 0.69150  0.07070  0.88840  Biso   1.000  C
  C166     1.0000 0.30850  0.57070  0.61160  Biso   1.000  C
  C167     1.0000 0.30850  0.92930  0.11160  Biso   1.000  C
  C168     1.0000 0.69150  0.42930  0.38840  Biso   1.000  C
  H153     1.0000 0.65150  0.09250  0.89090  Biso   1.000  H
  H154     1.0000 0.34850  0.59250  0.60910  Biso   1.000  H
  H155     1.0000 0.34850  0.90750  0.10910  Biso   1.000  H
  H156     1.0000 0.65150  0.40750  0.39090  Biso   1.000  H
  C169     1.0000 0.68840  0.07340  0.12150  Biso   1.000  C
  C170     1.0000 0.31160  0.57340  0.37850  Biso   1.000  C
  C171     1.0000 0.31160  0.92660  0.87850  Biso   1.000  C
  C172     1.0000 0.68840  0.42660  0.62150  Biso   1.000  C
  H157     1.0000 0.73700  0.08300  0.17170  Biso   1.000  H
  H158     1.0000 0.26300  0.58300  0.32830  Biso   1.000  H
  H159     1.0000 0.26300  0.91700  0.82830  Biso   1.000  H
  H160     1.0000 0.73700  0.41700  0.67170  Biso   1.000  H
  H161     1.0000 0.65820  0.05200  0.16910  Biso   1.000  H
  H162     1.0000 0.34180  0.55200  0.33090  Biso   1.000  H
  H163     1.0000 0.34180  0.94800  0.83090  Biso   1.000  H
  H164     1.0000 0.65820  0.44800  0.66910  Biso   1.000  H
  H165     1.0000 0.64990  0.09640  0.10510  Biso   1.000  H
  H166     1.0000 0.35010  0.59640  0.39490  Biso   1.000  H
  H167     1.0000 0.35010  0.90360  0.89490  Biso   1.000  H
  H168     1.0000 0.64990  0.40360  0.60510  Biso   1.000  H
  C173     1.0000 0.78350  0.02428  0.00420  Biso   1.000  C
  C174     1.0000 0.21650  0.52428  0.49580  Biso   1.000  C
  C175     1.0000 0.21650  0.97572  0.99580  Biso   1.000  C
  C176     1.0000 0.78350  0.47572  0.50420  Biso   1.000  C
  H169     1.0000 0.79970  0.01650  0.91730  Biso   1.000  H
  H170     1.0000 0.20030  0.51650  0.58270  Biso   1.000  H
  H171     1.0000 0.20030  0.98350  0.08270  Biso   1.000  H
  H172     1.0000 0.79970  0.48350  0.41730  Biso   1.000  H
  H173     1.0000 0.76080  0.00030  0.04900  Biso   1.000  H
  H174     1.0000 0.23920  0.50030  0.45100  Biso   1.000  H
  H175     1.0000 0.23920  0.99970  0.95100  Biso   1.000  H
  H176     1.0000 0.76080  0.49970  0.54900  Biso   1.000  H
  H177     1.0000 0.83340  0.03460  0.04980  Biso   1.000  H
  H178     1.0000 0.16660  0.53460  0.45020  Biso   1.000  H
  H179     1.0000 0.16660  0.96540  0.95020  Biso   1.000  H
  H180     1.0000 0.83340  0.46540  0.54980  Biso   1.000  H
  C177     1.0000 0.65490  0.18995  0.20390  Biso   1.000  C
  C178     1.0000 0.34510  0.68995  0.29610  Biso   1.000  C
  C179     1.0000 0.34510  0.81005  0.79610  Biso   1.000  C
  C180     1.0000 0.65490  0.31005  0.70390  Biso   1.000  C
  H181     1.0000 0.60310  0.18010  0.23870  Biso   1.000  H
  H182     1.0000 0.39690  0.68010  0.26130  Biso   1.000  H
  H183     1.0000 0.39690  0.81990  0.76130  Biso   1.000  H
  H184     1.0000 0.60310  0.31990  0.73870  Biso   1.000  H
  C181     1.0000 0.58700  0.18580  0.99660  Biso   1.000  C
  C182     1.0000 0.41300  0.68580  0.50340  Biso   1.000  C
  C183     1.0000 0.41300  0.81420  0.00340  Biso   1.000  C
  C184     1.0000 0.58700  0.31420  0.49660  Biso   1.000  C
  H185     1.0000 0.54080  0.17430  0.04790  Biso   1.000  H
  H186     1.0000 0.45920  0.67430  0.45210  Biso   1.000  H
  H187     1.0000 0.45920  0.82570  0.95210  Biso   1.000  H
  H188     1.0000 0.54080  0.32570  0.54790  Biso   1.000  H
  H189     1.0000 0.60470  0.16570  0.93240  Biso   1.000  H
  H190     1.0000 0.39530  0.66570  0.56760  Biso   1.000  H
  H191     1.0000 0.39530  0.83430  0.06760  Biso   1.000  H
  H192     1.0000 0.60470  0.33430  0.43240  Biso   1.000  H
  H193     1.0000 0.56730  0.21080  0.95390  Biso   1.000  H
  H194     1.0000 0.43270  0.71080  0.54610  Biso   1.000  H
  H195     1.0000 0.43270  0.78920  0.04610  Biso   1.000  H
  H196     1.0000 0.56730  0.28920  0.45390  Biso   1.000  H
  C185     1.0000 0.73530  0.21030  0.01790  Biso   1.000  C
  C186     1.0000 0.26470  0.71030  0.48210  Biso   1.000  C
  C187     1.0000 0.26470  0.78970  0.98210  Biso   1.000  C
  C188     1.0000 0.73530  0.28970  0.51790  Biso   1.000  C
  H197     1.0000 0.72680  0.23850  0.98810  Biso   1.000  H
  H198     1.0000 0.27320  0.73850  0.51190  Biso   1.000  H
  H199     1.0000 0.27320  0.76150  0.01190  Biso   1.000  H
  H200     1.0000 0.72680  0.26150  0.48810  Biso   1.000  H
  H201     1.0000 0.74920  0.19260  0.94510  Biso   1.000  H
  H202     1.0000 0.25080  0.69260  0.55490  Biso   1.000  H
  H203     1.0000 0.25080  0.80740  0.05490  Biso   1.000  H
  H204     1.0000 0.74920  0.30740  0.44510  Biso   1.000  H
  H205     1.0000 0.78210  0.20960  0.07950  Biso   1.000  H
  H206     1.0000 0.21790  0.70960  0.42050  Biso   1.000  H
  H207     1.0000 0.21790  0.79040  0.92050  Biso   1.000  H
  H208     1.0000 0.78210  0.29040  0.57950  Biso   1.000  H
  C189     1.0000 0.08630  0.16627  0.92910  Biso   1.000  C
  C190     1.0000 0.91370  0.66627  0.57090  Biso   1.000  C
  C191     1.0000 0.91370  0.83373  0.07090  Biso   1.000  C
  C192     1.0000 0.08630  0.33373  0.42910  Biso   1.000  C
