data_image0
_cell_length_a       33.045
_cell_length_b       18.74
_cell_length_c       10.858
_cell_angle_alpha    90
_cell_angle_beta     92.485
_cell_angle_gamma    90

_symmetry_space_group_name_H-M    "P 1"
_symmetry_int_tables_number       1

loop_
  _symmetry_equiv_pos_as_xyz
  'x, y, z'

loop_
  _atom_site_label
  _atom_site_occupancy
  _atom_site_fract_x
  _atom_site_fract_y
  _atom_site_fract_z
  _atom_site_thermal_displace_type
  _atom_site_B_iso_or_equiv
  _atom_site_type_symbol
  O1       1.0000 0.10440  0.18090  0.82900  Biso   1.000  O
  O2       1.0000 0.89560  0.18090  0.17100  Biso   1.000  O
  O3       1.0000 0.60440  0.68090  0.82900  Biso   1.000  O
  O4       1.0000 0.39560  0.68090  0.17100  Biso   1.000  O
  O5       1.0000 0.89560  0.81910  0.17100  Biso   1.000  O
  O6       1.0000 0.10440  0.81910  0.82900  Biso   1.000  O
  O7       1.0000 0.39560  0.31910  0.17100  Biso   1.000  O
  O8       1.0000 0.60440  0.31910  0.82900  Biso   1.000  O
  N1       1.0000 0.07740  0.26060  0.69450  Biso   1.000  N
  N2       1.0000 0.92260  0.26060  0.30550  Biso   1.000  N
  N3       1.0000 0.57740  0.76060  0.69450  Biso   1.000  N
  N4       1.0000 0.42260  0.76060  0.30550  Biso   1.000  N
  N5       1.0000 0.92260  0.73940  0.30550  Biso   1.000  N
  N6       1.0000 0.07740  0.73940  0.69450  Biso   1.000  N
  N7       1.0000 0.42260  0.23940  0.30550  Biso   1.000  N
  N8       1.0000 0.57740  0.23940  0.69450  Biso   1.000  N
  C1       1.0000 0.11280  0.30910  0.70800  Biso   1.000  C
  C2       1.0000 0.88720  0.30910  0.29200  Biso   1.000  C
  C3       1.0000 0.61280  0.80910  0.70800  Biso   1.000  C
  C4       1.0000 0.38720  0.80910  0.29200  Biso   1.000  C
  C5       1.0000 0.88720  0.69090  0.29200  Biso   1.000  C
  C6       1.0000 0.11280  0.69090  0.70800  Biso   1.000  C
  C7       1.0000 0.38720  0.19090  0.29200  Biso   1.000  C
  C8       1.0000 0.61280  0.19090  0.70800  Biso   1.000  C
  H1       1.0000 0.10950  0.34850  0.64910  Biso   1.000  H
  H2       1.0000 0.89050  0.34850  0.35090  Biso   1.000  H
  H3       1.0000 0.60950  0.84850  0.64910  Biso   1.000  H
  H4       1.0000 0.39050  0.84850  0.35090  Biso   1.000  H
  H5       1.0000 0.89050  0.65150  0.35090  Biso   1.000  H
  H6       1.0000 0.10950  0.65150  0.64910  Biso   1.000  H
  H7       1.0000 0.39050  0.15150  0.35090  Biso   1.000  H
  H8       1.0000 0.60950  0.15150  0.64910  Biso   1.000  H
  H9       1.0000 0.13760  0.28260  0.69140  Biso   1.000  H
  H10      1.0000 0.86240  0.28260  0.30860  Biso   1.000  H
  H11      1.0000 0.63760  0.78260  0.69140  Biso   1.000  H
  H12      1.0000 0.36240  0.78260  0.30860  Biso   1.000  H
  H13      1.0000 0.86240  0.71740  0.30860  Biso   1.000  H
  H14      1.0000 0.13760  0.71740  0.69140  Biso   1.000  H
  H15      1.0000 0.36240  0.21740  0.30860  Biso   1.000  H
  H16      1.0000 0.63760  0.21740  0.69140  Biso   1.000  H
  H17      1.0000 0.11480  0.32810  0.79200  Biso   1.000  H
  H18      1.0000 0.88520  0.32810  0.20800  Biso   1.000  H
  H19      1.0000 0.61480  0.82810  0.79200  Biso   1.000  H
  H20      1.0000 0.38520  0.82810  0.20800  Biso   1.000  H
  H21      1.0000 0.88520  0.67190  0.20800  Biso   1.000  H
  H22      1.0000 0.11480  0.67190  0.79200  Biso   1.000  H
  H23      1.0000 0.38520  0.17190  0.20800  Biso   1.000  H
  H24      1.0000 0.61480  0.17190  0.79200  Biso   1.000  H
  C9       1.0000 0.07890  0.20370  0.77600  Biso   1.000  C
  C10      1.0000 0.92110  0.20370  0.22400  Biso   1.000  C
  C11      1.0000 0.57890  0.70370  0.77600  Biso   1.000  C
  C12      1.0000 0.42110  0.70370  0.22400  Biso   1.000  C
  C13      1.0000 0.92110  0.79630  0.22400  Biso   1.000  C
  C14      1.0000 0.07890  0.79630  0.77600  Biso   1.000  C
  C15      1.0000 0.42110  0.29630  0.22400  Biso   1.000  C
  C16      1.0000 0.57890  0.29630  0.77600  Biso   1.000  C
  H25      1.0000 0.05360  0.18120  0.78800  Biso   1.000  H
  H26      1.0000 0.94640  0.18120  0.21200  Biso   1.000  H
  H27      1.0000 0.55360  0.68120  0.78800  Biso   1.000  H
  H28      1.0000 0.44640  0.68120  0.21200  Biso   1.000  H
  H29      1.0000 0.94640  0.81880  0.21200  Biso   1.000  H
  H30      1.0000 0.05360  0.81880  0.78800  Biso   1.000  H
  H31      1.0000 0.44640  0.31880  0.21200  Biso   1.000  H
  H32      1.0000 0.55360  0.31880  0.78800  Biso   1.000  H
  C17      1.0000 0.04680  0.28040  0.62000  Biso   1.000  C
  C18      1.0000 0.95320  0.28040  0.38000  Biso   1.000  C
  C19      1.0000 0.54680  0.78040  0.62000  Biso   1.000  C
  C20      1.0000 0.45320  0.78040  0.38000  Biso   1.000  C
  C21      1.0000 0.95320  0.71960  0.38000  Biso   1.000  C
  C22      1.0000 0.04680  0.71960  0.62000  Biso   1.000  C
  C23      1.0000 0.45320  0.21960  0.38000  Biso   1.000  C
  C24      1.0000 0.54680  0.21960  0.62000  Biso   1.000  C
  H33      1.0000 0.05470  0.32230  0.57270  Biso   1.000  H
  H34      1.0000 0.94530  0.32230  0.42730  Biso   1.000  H
  H35      1.0000 0.55470  0.82230  0.57270  Biso   1.000  H
  H36      1.0000 0.44530  0.82230  0.42730  Biso   1.000  H
  H37      1.0000 0.94530  0.67770  0.42730  Biso   1.000  H
  H38      1.0000 0.05470  0.67770  0.57270  Biso   1.000  H
  H39      1.0000 0.44530  0.17770  0.42730  Biso   1.000  H
  H40      1.0000 0.55470  0.17770  0.57270  Biso   1.000  H
  H41      1.0000 0.02350  0.29230  0.66880  Biso   1.000  H
  H42      1.0000 0.97650  0.29230  0.33120  Biso   1.000  H
  H43      1.0000 0.52350  0.79230  0.66880  Biso   1.000  H
  H44      1.0000 0.47650  0.79230  0.33120  Biso   1.000  H
  H45      1.0000 0.97650  0.70770  0.33120  Biso   1.000  H
  H46      1.0000 0.02350  0.70770  0.66880  Biso   1.000  H
  H47      1.0000 0.47650  0.20770  0.33120  Biso   1.000  H
  H48      1.0000 0.52350  0.20770  0.66880  Biso   1.000  H
  H49      1.0000 0.03960  0.24130  0.56340  Biso   1.000  H
  H50      1.0000 0.96040  0.24130  0.43660  Biso   1.000  H
  H51      1.0000 0.53960  0.74130  0.56340  Biso   1.000  H
  H52      1.0000 0.46040  0.74130  0.43660  Biso   1.000  H
  H53      1.0000 0.96040  0.75870  0.43660  Biso   1.000  H
  H54      1.0000 0.03960  0.75870  0.56340  Biso   1.000  H
  H55      1.0000 0.46040  0.25870  0.43660  Biso   1.000  H
  H56      1.0000 0.53960  0.25870  0.56340  Biso   1.000  H
  O9       1.0000 0.16940  0.00000  0.96600  Biso   1.000  O
  O10      1.0000 0.83060  0.00000  0.03400  Biso   1.000  O
  O11      1.0000 0.66940  0.50000  0.96600  Biso   1.000  O
  O12      1.0000 0.33060  0.50000  0.03400  Biso   1.000  O
  N9       1.0000 0.17730  0.00000  0.76600  Biso   1.000  N
  N10      1.0000 0.82270  0.00000  0.23400  Biso   1.000  N
  N11      1.0000 0.67730  0.50000  0.76600  Biso   1.000  N
  N12      1.0000 0.32270  0.50000  0.23400  Biso   1.000  N
  C25      1.0000 0.15770  0.00000  0.87400  Biso   1.000  C
  C26      1.0000 0.84230  0.00000  0.12600  Biso   1.000  C
  C27      1.0000 0.65770  0.50000  0.87400  Biso   1.000  C
  C28      1.0000 0.34230  0.50000  0.12600  Biso   1.000  C
  H57      1.0000 0.12900  0.00000  0.86460  Biso   1.000  H
  H58      1.0000 0.87100  0.00000  0.13540  Biso   1.000  H
  H59      1.0000 0.62900  0.50000  0.86460  Biso   1.000  H
  H60      1.0000 0.37100  0.50000  0.13540  Biso   1.000  H
  C29      1.0000 0.15690  0.00000  0.64900  Biso   1.000  C
  C30      1.0000 0.84310  0.00000  0.35100  Biso   1.000  C
  C31      1.0000 0.65690  0.50000  0.64900  Biso   1.000  C
  C32      1.0000 0.34310  0.50000  0.35100  Biso   1.000  C
  H61      1.0000 0.17680  0.00000  0.58490  Biso   1.000  H
  H62      1.0000 0.82320  0.00000  0.41510  Biso   1.000  H
  H63      1.0000 0.67680  0.50000  0.58490  Biso   1.000  H
  H64      1.0000 0.32320  0.50000  0.41510  Biso   1.000  H
  H65      1.0000 0.13990  0.95730  0.64090  Biso   1.000  H
  H66      1.0000 0.86010  0.95730  0.35910  Biso   1.000  H
  H67      1.0000 0.63990  0.45730  0.64090  Biso   1.000  H
  H68      1.0000 0.36010  0.45730  0.35910  Biso   1.000  H
  H69      1.0000 0.86010  0.04270  0.35910  Biso   1.000  H
  H70      1.0000 0.13990  0.04270  0.64090  Biso   1.000  H
  H71      1.0000 0.36010  0.54270  0.35910  Biso   1.000  H
  H72      1.0000 0.63990  0.54270  0.64090  Biso   1.000  H
  C33      1.0000 0.22030  0.00000  0.76800  Biso   1.000  C
  C34      1.0000 0.77970  0.00000  0.23200  Biso   1.000  C
  C35      1.0000 0.72030  0.50000  0.76800  Biso   1.000  C
  C36      1.0000 0.27970  0.50000  0.23200  Biso   1.000  C
  H73      1.0000 0.23090  0.00000  0.85390  Biso   1.000  H
  H74      1.0000 0.76910  0.00000  0.14610  Biso   1.000  H
  H75      1.0000 0.73090  0.50000  0.85390  Biso   1.000  H
  H76      1.0000 0.26910  0.50000  0.14610  Biso   1.000  H
  H77      1.0000 0.22980  0.95730  0.72620  Biso   1.000  H
  H78      1.0000 0.77020  0.95730  0.27380  Biso   1.000  H
  H79      1.0000 0.72980  0.45730  0.72620  Biso   1.000  H
  H80      1.0000 0.27020  0.45730  0.27380  Biso   1.000  H
  H81      1.0000 0.77020  0.04270  0.27380  Biso   1.000  H
  H82      1.0000 0.22980  0.04270  0.72620  Biso   1.000  H
  H83      1.0000 0.27020  0.54270  0.27380  Biso   1.000  H
  H84      1.0000 0.72980  0.54270  0.72620  Biso   1.000  H
  Cu1      1.0000 0.24119  0.78441  0.60210  Biso   1.000  Cu
  Cu2      1.0000 0.75881  0.78441  0.39790  Biso   1.000  Cu
  Cu3      1.0000 0.74119  0.28441  0.60210  Biso   1.000  Cu
  Cu4      1.0000 0.25881  0.28441  0.39790  Biso   1.000  Cu
  Cu5      1.0000 0.75881  0.21559  0.39790  Biso   1.000  Cu
  Cu6      1.0000 0.24119  0.21559  0.60210  Biso   1.000  Cu
  Cu7      1.0000 0.25881  0.71559  0.39790  Biso   1.000  Cu
  Cu8      1.0000 0.74119  0.71559  0.60210  Biso   1.000  Cu
  Cu9      1.0000 0.02230  0.00000  0.60422  Biso   1.000  Cu
  Cu10     1.0000 0.97770  0.00000  0.39578  Biso   1.000  Cu
  Cu11     1.0000 0.52230  0.50000  0.60422  Biso   1.000  Cu
  Cu12     1.0000 0.47770  0.50000  0.39578  Biso   1.000  Cu
  O13      1.0000 0.22420  0.68860  0.65370  Biso   1.000  O
  O14      1.0000 0.77580  0.68860  0.34630  Biso   1.000  O
  O15      1.0000 0.72420  0.18860  0.65370  Biso   1.000  O
  O16      1.0000 0.27580  0.18860  0.34630  Biso   1.000  O
  O17      1.0000 0.77580  0.31140  0.34630  Biso   1.000  O
  O18      1.0000 0.22420  0.31140  0.65370  Biso   1.000  O
  O19      1.0000 0.27580  0.81140  0.34630  Biso   1.000  O
  O20      1.0000 0.72420  0.81140  0.65370  Biso   1.000  O
  O21      1.0000 0.24160  0.63040  0.48530  Biso   1.000  O
  O22      1.0000 0.75840  0.63040  0.51470  Biso   1.000  O
  O23      1.0000 0.74160  0.13040  0.48530  Biso   1.000  O
  O24      1.0000 0.25840  0.13040  0.51470  Biso   1.000  O
  O25      1.0000 0.75840  0.36960  0.51470  Biso   1.000  O
  O26      1.0000 0.24160  0.36960  0.48530  Biso   1.000  O
  O27      1.0000 0.25840  0.86960  0.51470  Biso   1.000  O
  O28      1.0000 0.74160  0.86960  0.48530  Biso   1.000  O
  O29      1.0000 0.15170  0.44210  0.96290  Biso   1.000  O
  O30      1.0000 0.84830  0.44210  0.03710  Biso   1.000  O
  O31      1.0000 0.65170  0.94210  0.96290  Biso   1.000  O
  O32      1.0000 0.34830  0.94210  0.03710  Biso   1.000  O
  O33      1.0000 0.84830  0.55790  0.03710  Biso   1.000  O
  O34      1.0000 0.15170  0.55790  0.96290  Biso   1.000  O
  O35      1.0000 0.34830  0.05790  0.03710  Biso   1.000  O
  O36      1.0000 0.65170  0.05790  0.96290  Biso   1.000  O
  O37      1.0000 0.18570  0.79800  0.52900  Biso   1.000  O
  O38      1.0000 0.81430  0.79800  0.47100  Biso   1.000  O
  O39      1.0000 0.68570  0.29800  0.52900  Biso   1.000  O
  O40      1.0000 0.31430  0.29800  0.47100  Biso   1.000  O
  O41      1.0000 0.81430  0.20200  0.47100  Biso   1.000  O
  O42      1.0000 0.18570  0.20200  0.52900  Biso   1.000  O
  O43      1.0000 0.31430  0.70200  0.47100  Biso   1.000  O
  O44      1.0000 0.68570  0.70200  0.52900  Biso   1.000  O
  O45      1.0000 0.20110  0.73740  0.35910  Biso   1.000  O
  O46      1.0000 0.79890  0.73740  0.64090  Biso   1.000  O
  O47      1.0000 0.70110  0.23740  0.35910  Biso   1.000  O
  O48      1.0000 0.29890  0.23740  0.64090  Biso   1.000  O
  O49      1.0000 0.79890  0.26260  0.64090  Biso   1.000  O
  O50      1.0000 0.20110  0.26260  0.35910  Biso   1.000  O
  O51      1.0000 0.29890  0.76260  0.64090  Biso   1.000  O
  O52      1.0000 0.70110  0.76260  0.35910  Biso   1.000  O
  O53      1.0000 0.05510  0.92610  0.52720  Biso   1.000  O
  O54      1.0000 0.94490  0.92610  0.47280  Biso   1.000  O
  O55      1.0000 0.55510  0.42610  0.52720  Biso   1.000  O
  O56      1.0000 0.44490  0.42610  0.47280  Biso   1.000  O
  O57      1.0000 0.94490  0.07390  0.47280  Biso   1.000  O
  O58      1.0000 0.05510  0.07390  0.52720  Biso   1.000  O
  O59      1.0000 0.44490  0.57390  0.47280  Biso   1.000  O
  O60      1.0000 0.55510  0.57390  0.52720  Biso   1.000  O
  O61      1.0000 0.01620  0.92470  0.35210  Biso   1.000  O
  O62      1.0000 0.98380  0.92470  0.64790  Biso   1.000  O
  O63      1.0000 0.51620  0.42470  0.35210  Biso   1.000  O
  O64      1.0000 0.48380  0.42470  0.64790  Biso   1.000  O
  O65      1.0000 0.98380  0.07530  0.64790  Biso   1.000  O
  O66      1.0000 0.01620  0.07530  0.35210  Biso   1.000  O
  O67      1.0000 0.48380  0.57530  0.64790  Biso   1.000  O
  O68      1.0000 0.51620  0.57530  0.35210  Biso   1.000  O
  O69      1.0000 0.09410  0.67590  0.06320  Biso   1.000  O
  O70      1.0000 0.90590  0.67590  0.93680  Biso   1.000  O
  O71      1.0000 0.59410  0.17590  0.06320  Biso   1.000  O
  O72      1.0000 0.40590  0.17590  0.93680  Biso   1.000  O
  O73      1.0000 0.90590  0.32410  0.93680  Biso   1.000  O
  O74      1.0000 0.09410  0.32410  0.06320  Biso   1.000  O
  O75      1.0000 0.40590  0.82410  0.93680  Biso   1.000  O
  O76      1.0000 0.59410  0.82410  0.06320  Biso   1.000  O
  O77      1.0000 0.03790  0.73110  0.06400  Biso   1.000  O
  O78      1.0000 0.96210  0.73110  0.93600  Biso   1.000  O
  O79      1.0000 0.53790  0.23110  0.06400  Biso   1.000  O
  O80      1.0000 0.46210  0.23110  0.93600  Biso   1.000  O
  O81      1.0000 0.96210  0.26890  0.93600  Biso   1.000  O
  O82      1.0000 0.03790  0.26890  0.06400  Biso   1.000  O
  O83      1.0000 0.46210  0.76890  0.93600  Biso   1.000  O
  O84      1.0000 0.53790  0.76890  0.06400  Biso   1.000  O
  O85      1.0000 0.23460  0.82830  0.77740  Biso   1.000  O
  O86      1.0000 0.76540  0.82830  0.22260  Biso   1.000  O
  O87      1.0000 0.73460  0.32830  0.77740  Biso   1.000  O
  O88      1.0000 0.26540  0.32830  0.22260  Biso   1.000  O
  O89      1.0000 0.76540  0.17170  0.22260  Biso   1.000  O
  O90      1.0000 0.23460  0.17170  0.77740  Biso   1.000  O
  O91      1.0000 0.26540  0.67170  0.22260  Biso   1.000  O
  O92      1.0000 0.73460  0.67170  0.77740  Biso   1.000  O
  O93      1.0000 0.05060  0.00000  0.78010  Biso   1.000  O
  O94      1.0000 0.94940  0.00000  0.21990  Biso   1.000  O
  O95      1.0000 0.55060  0.50000  0.78010  Biso   1.000  O
  O96      1.0000 0.44940  0.50000  0.21990  Biso   1.000  O
  N13      1.0000 0.16070  0.50000  0.91900  Biso   1.000  N
  N14      1.0000 0.83930  0.50000  0.08100  Biso   1.000  N
  N15      1.0000 0.66070  0.00000  0.91900  Biso   1.000  N
  N16      1.0000 0.33930  0.00000  0.08100  Biso   1.000  N
  N17      1.0000 0.07110  0.71950  0.10890  Biso   1.000  N
  N18      1.0000 0.92890  0.71950  0.89110  Biso   1.000  N
  N19      1.0000 0.57110  0.21950  0.10890  Biso   1.000  N
  N20      1.0000 0.42890  0.21950  0.89110  Biso   1.000  N
  N21      1.0000 0.92890  0.28050  0.89110  Biso   1.000  N
  N22      1.0000 0.07110  0.28050  0.10890  Biso   1.000  N
  N23      1.0000 0.42890  0.78050  0.89110  Biso   1.000  N
  N24      1.0000 0.57110  0.78050  0.10890  Biso   1.000  N
  N25      1.0000 0.21120  0.82080  0.96880  Biso   1.000  N
  N26      1.0000 0.78880  0.82080  0.03120  Biso   1.000  N
  N27      1.0000 0.71120  0.32080  0.96880  Biso   1.000  N
  N28      1.0000 0.28880  0.32080  0.03120  Biso   1.000  N
  N29      1.0000 0.78880  0.17920  0.03120  Biso   1.000  N
  N30      1.0000 0.21120  0.17920  0.96880  Biso   1.000  N
  N31      1.0000 0.28880  0.67920  0.03120  Biso   1.000  N
  N32      1.0000 0.71120  0.67920  0.96880  Biso   1.000  N
  N33      1.0000 0.05600  0.97690  0.97400  Biso   1.000  N
  N34      1.0000 0.94400  0.97690  0.02600  Biso   1.000  N
  N35      1.0000 0.55600  0.47690  0.97400  Biso   1.000  N
  N36      1.0000 0.44400  0.47690  0.02600  Biso   1.000  N
  N37      1.0000 0.94400  0.02310  0.02600  Biso   1.000  N
  N38      1.0000 0.05600  0.02310  0.97400  Biso   1.000  N
  N39      1.0000 0.44400  0.52310  0.02600  Biso   1.000  N
  N40      1.0000 0.55600  0.52310  0.97400  Biso   1.000  N
  C37      1.0000 0.22420  0.50000  0.59330  Biso   1.000  C
  C38      1.0000 0.77580  0.50000  0.40670  Biso   1.000  C
  C39      1.0000 0.72420  0.00000  0.59330  Biso   1.000  C
  C40      1.0000 0.27580  0.00000  0.40670  Biso   1.000  C
  H85      1.0000 0.23900  0.50000  0.52020  Biso   1.000  H
  H86      1.0000 0.76100  0.50000  0.47980  Biso   1.000  H
  H87      1.0000 0.73900  0.00000  0.52020  Biso   1.000  H
  H88      1.0000 0.26100  0.00000  0.47980  Biso   1.000  H
  C41      1.0000 0.21370  0.56380  0.64520  Biso   1.000  C
  C42      1.0000 0.78630  0.56380  0.35480  Biso   1.000  C
  C43      1.0000 0.71370  0.06380  0.64520  Biso   1.000  C
  C44      1.0000 0.28630  0.06380  0.35480  Biso   1.000  C
  C45      1.0000 0.78630  0.43620  0.35480  Biso   1.000  C
  C46      1.0000 0.21370  0.43620  0.64520  Biso   1.000  C
  C47      1.0000 0.28630  0.93620  0.35480  Biso   1.000  C
  C48      1.0000 0.71370  0.93620  0.64520  Biso   1.000  C
  C49      1.0000 0.19250  0.56420  0.75050  Biso   1.000  C
  C50      1.0000 0.80750  0.56420  0.24950  Biso   1.000  C
  C51      1.0000 0.69250  0.06420  0.75050  Biso   1.000  C
  C52      1.0000 0.30750  0.06420  0.24950  Biso   1.000  C
  C53      1.0000 0.80750  0.43580  0.24950  Biso   1.000  C
  C54      1.0000 0.19250  0.43580  0.75050  Biso   1.000  C
  C55      1.0000 0.30750  0.93580  0.24950  Biso   1.000  C
  C56      1.0000 0.69250  0.93580  0.75050  Biso   1.000  C
  H89      1.0000 0.18480  0.60800  0.78690  Biso   1.000  H
  H90      1.0000 0.81520  0.60800  0.21310  Biso   1.000  H
  H91      1.0000 0.68480  0.10800  0.78690  Biso   1.000  H
  H92      1.0000 0.31520  0.10800  0.21310  Biso   1.000  H
  H93      1.0000 0.81520  0.39200  0.21310  Biso   1.000  H
  H94      1.0000 0.18480  0.39200  0.78690  Biso   1.000  H
  H95      1.0000 0.31520  0.89200  0.21310  Biso   1.000  H
  H96      1.0000 0.68480  0.89200  0.78690  Biso   1.000  H
  C57      1.0000 0.18240  0.50000  0.80270  Biso   1.000  C
  C58      1.0000 0.81760  0.50000  0.19730  Biso   1.000  C
  C59      1.0000 0.68240  0.00000  0.80270  Biso   1.000  C
  C60      1.0000 0.31760  0.00000  0.19730  Biso   1.000  C
  C61      1.0000 0.22780  0.63480  0.59040  Biso   1.000  C
  C62      1.0000 0.77220  0.63480  0.40960  Biso   1.000  C
  C63      1.0000 0.72780  0.13480  0.59040  Biso   1.000  C
  C64      1.0000 0.27220  0.13480  0.40960  Biso   1.000  C
  C65      1.0000 0.77220  0.36520  0.40960  Biso   1.000  C
  C66      1.0000 0.22780  0.36520  0.59040  Biso   1.000  C
  C67      1.0000 0.27220  0.86520  0.40960  Biso   1.000  C
  C68      1.0000 0.72780  0.86520  0.59040  Biso   1.000  C
  C69      1.0000 0.13528  0.78260  0.37460  Biso   1.000  C
  C70      1.0000 0.86472  0.78260  0.62540  Biso   1.000  C
  C71      1.0000 0.63528  0.28260  0.37460  Biso   1.000  C
  C72      1.0000 0.36472  0.28260  0.62540  Biso   1.000  C
  C73      1.0000 0.86472  0.21740  0.62540  Biso   1.000  C
  C74      1.0000 0.13528  0.21740  0.37460  Biso   1.000  C
  C75      1.0000 0.36472  0.71740  0.62540  Biso   1.000  C
  C76      1.0000 0.63528  0.71740  0.37460  Biso   1.000  C
  C77      1.0000 0.12214  0.74520  0.26970  Biso   1.000  C
  C78      1.0000 0.87786  0.74520  0.73030  Biso   1.000  C
  C79      1.0000 0.62214  0.24520  0.26970  Biso   1.000  C
  C80      1.0000 0.37786  0.24520  0.73030  Biso   1.000  C
  C81      1.0000 0.87786  0.25480  0.73030  Biso   1.000  C
  C82      1.0000 0.12214  0.25480  0.26970  Biso   1.000  C
  C83      1.0000 0.37786  0.75480  0.73030  Biso   1.000  C
  C84      1.0000 0.62214  0.75480  0.26970  Biso   1.000  C
  H97      1.0000 0.13910  0.71020  0.23540  Biso   1.000  H
  H98      1.0000 0.86090  0.71020  0.76460  Biso   1.000  H
  H99      1.0000 0.63910  0.21020  0.23540  Biso   1.000  H
  H100     1.0000 0.36090  0.21020  0.76460  Biso   1.000  H
  H101     1.0000 0.86090  0.28980  0.76460  Biso   1.000  H
  H102     1.0000 0.13910  0.28980  0.23540  Biso   1.000  H
  H103     1.0000 0.36090  0.78980  0.76460  Biso   1.000  H
  H104     1.0000 0.63910  0.78980  0.23540  Biso   1.000  H
  C85      1.0000 0.08415  0.75910  0.21500  Biso   1.000  C
  C86      1.0000 0.91585  0.75910  0.78500  Biso   1.000  C
  C87      1.0000 0.58415  0.25910  0.21500  Biso   1.000  C
  C88      1.0000 0.41585  0.25910  0.78500  Biso   1.000  C
  C89      1.0000 0.91585  0.24090  0.78500  Biso   1.000  C
  C90      1.0000 0.08415  0.24090  0.21500  Biso   1.000  C
  C91      1.0000 0.41585  0.74090  0.78500  Biso   1.000  C
  C92      1.0000 0.58415  0.74090  0.21500  Biso   1.000  C
  C93      1.0000 0.05930  0.81040  0.26520  Biso   1.000  C
  C94      1.0000 0.94070  0.81040  0.73480  Biso   1.000  C
  C95      1.0000 0.55930  0.31040  0.26520  Biso   1.000  C
  C96      1.0000 0.44070  0.31040  0.73480  Biso   1.000  C
  C97      1.0000 0.94070  0.18960  0.73480  Biso   1.000  C
  C98      1.0000 0.05930  0.18960  0.26520  Biso   1.000  C
  C99      1.0000 0.44070  0.68960  0.73480  Biso   1.000  C
  C100     1.0000 0.55930  0.68960  0.26520  Biso   1.000  C
  H105     1.0000 0.03330  0.81990  0.22780  Biso   1.000  H
  H106     1.0000 0.96670  0.81990  0.77220  Biso   1.000  H
  H107     1.0000 0.53330  0.31990  0.22780  Biso   1.000  H
  H108     1.0000 0.46670  0.31990  0.77220  Biso   1.000  H
  H109     1.0000 0.96670  0.18010  0.77220  Biso   1.000  H
  H110     1.0000 0.03330  0.18010  0.22780  Biso   1.000  H
  H111     1.0000 0.46670  0.68010  0.77220  Biso   1.000  H
  H112     1.0000 0.53330  0.68010  0.22780  Biso   1.000  H
  C101     1.0000 0.07244  0.84770  0.37000  Biso   1.000  C
  C102     1.0000 0.92756  0.84770  0.63000  Biso   1.000  C
  C103     1.0000 0.57244  0.34770  0.37000  Biso   1.000  C
  C104     1.0000 0.42756  0.34770  0.63000  Biso   1.000  C
  C105     1.0000 0.92756  0.15230  0.63000  Biso   1.000  C
  C106     1.0000 0.07244  0.15230  0.37000  Biso   1.000  C
  C107     1.0000 0.42756  0.65230  0.63000  Biso   1.000  C
  C108     1.0000 0.57244  0.65230  0.37000  Biso   1.000  C
  C109     1.0000 0.11043  0.83380  0.42470  Biso   1.000  C
  C110     1.0000 0.88957  0.83380  0.57530  Biso   1.000  C
  C111     1.0000 0.61043  0.33380  0.42470  Biso   1.000  C
  C112     1.0000 0.38957  0.33380  0.57530  Biso   1.000  C
  C113     1.0000 0.88957  0.16620  0.57530  Biso   1.000  C
  C114     1.0000 0.11043  0.16620  0.42470  Biso   1.000  C
  C115     1.0000 0.38957  0.66620  0.57530  Biso   1.000  C
  C116     1.0000 0.61043  0.66620  0.42470  Biso   1.000  C
  H113     1.0000 0.11940  0.85930  0.49640  Biso   1.000  H
  H114     1.0000 0.88060  0.85930  0.50360  Biso   1.000  H
  H115     1.0000 0.61940  0.35930  0.49640  Biso   1.000  H
  H116     1.0000 0.38060  0.35930  0.50360  Biso   1.000  H
  H117     1.0000 0.88060  0.14070  0.50360  Biso   1.000  H
  H118     1.0000 0.11940  0.14070  0.49640  Biso   1.000  H
  H119     1.0000 0.38060  0.64070  0.50360  Biso   1.000  H
  H120     1.0000 0.61940  0.64070  0.49640  Biso   1.000  H
  C117     1.0000 0.17755  0.77240  0.42310  Biso   1.000  C
  C118     1.0000 0.82245  0.77240  0.57690  Biso   1.000  C
  C119     1.0000 0.67755  0.27240  0.42310  Biso   1.000  C
  C120     1.0000 0.32245  0.27240  0.57690  Biso   1.000  C
  C121     1.0000 0.82245  0.22760  0.57690  Biso   1.000  C
  C122     1.0000 0.17755  0.22760  0.42310  Biso   1.000  C
  C123     1.0000 0.32245  0.72760  0.57690  Biso   1.000  C
  C124     1.0000 0.67755  0.72760  0.42310  Biso   1.000  C
  C125     1.0000 0.04608  0.90340  0.42030  Biso   1.000  C
  C126     1.0000 0.95392  0.90340  0.57970  Biso   1.000  C
  C127     1.0000 0.54608  0.40340  0.42030  Biso   1.000  C
  C128     1.0000 0.45392  0.40340  0.57970  Biso   1.000  C
  C129     1.0000 0.95392  0.09660  0.57970  Biso   1.000  C
  C130     1.0000 0.04608  0.09660  0.42030  Biso   1.000  C
  C131     1.0000 0.45392  0.59660  0.57970  Biso   1.000  C
  C132     1.0000 0.54608  0.59660  0.42030  Biso   1.000  C
  C133     1.0000 0.21100  0.80930  0.84500  Biso   1.000  C
  C134     1.0000 0.78900  0.80930  0.15500  Biso   1.000  C
  C135     1.0000 0.71100  0.30930  0.84500  Biso   1.000  C
  C136     1.0000 0.28900  0.30930  0.15500  Biso   1.000  C
  C137     1.0000 0.78900  0.19070  0.15500  Biso   1.000  C
  C138     1.0000 0.21100  0.19070  0.84500  Biso   1.000  C
  C139     1.0000 0.28900  0.69070  0.15500  Biso   1.000  C
  C140     1.0000 0.71100  0.69070  0.84500  Biso   1.000  C
  H121     1.0000 0.18890  0.78260  0.81050  Biso   1.000  H
  H122     1.0000 0.81110  0.78260  0.18950  Biso   1.000  H
  H123     1.0000 0.68890  0.28260  0.81050  Biso   1.000  H
  H124     1.0000 0.31110  0.28260  0.18950  Biso   1.000  H
  H125     1.0000 0.81110  0.21740  0.18950  Biso   1.000  H
  H126     1.0000 0.18890  0.21740  0.81050  Biso   1.000  H
  H127     1.0000 0.31110  0.71740  0.18950  Biso   1.000  H
  H128     1.0000 0.68890  0.71740  0.81050  Biso   1.000  H
  C141     1.0000 0.18430  0.79010  0.05030  Biso   1.000  C
  C142     1.0000 0.81570  0.79010  0.94970  Biso   1.000  C
  C143     1.0000 0.68430  0.29010  0.05030  Biso   1.000  C
  C144     1.0000 0.31570  0.29010  0.94970  Biso   1.000  C
  C145     1.0000 0.81570  0.20990  0.94970  Biso   1.000  C
  C146     1.0000 0.18430  0.20990  0.05030  Biso   1.000  C
  C147     1.0000 0.31570  0.70990  0.94970  Biso   1.000  C
  C148     1.0000 0.68430  0.70990  0.05030  Biso   1.000  C
  H129     1.0000 0.19080  0.80710  0.13420  Biso   1.000  H
  H130     1.0000 0.80920  0.80710  0.86580  Biso   1.000  H
  H131     1.0000 0.69080  0.30710  0.13420  Biso   1.000  H
  H132     1.0000 0.30920  0.30710  0.86580  Biso   1.000  H
  H133     1.0000 0.80920  0.19290  0.86580  Biso   1.000  H
  H134     1.0000 0.19080  0.19290  0.13420  Biso   1.000  H
  H135     1.0000 0.30920  0.69290  0.86580  Biso   1.000  H
  H136     1.0000 0.69080  0.69290  0.13420  Biso   1.000  H
  H137     1.0000 0.15650  0.80380  0.02570  Biso   1.000  H
  H138     1.0000 0.84350  0.80380  0.97430  Biso   1.000  H
  H139     1.0000 0.65650  0.30380  0.02570  Biso   1.000  H
  H140     1.0000 0.34350  0.30380  0.97430  Biso   1.000  H
  H141     1.0000 0.84350  0.19620  0.97430  Biso   1.000  H
  H142     1.0000 0.15650  0.19620  0.02570  Biso   1.000  H
  H143     1.0000 0.34350  0.69620  0.97430  Biso   1.000  H
  H144     1.0000 0.65650  0.69620  0.02570  Biso   1.000  H
  H145     1.0000 0.18690  0.73800  0.04770  Biso   1.000  H
  H146     1.0000 0.81310  0.73800  0.95230  Biso   1.000  H
  H147     1.0000 0.68690  0.23800  0.04770  Biso   1.000  H
  H148     1.0000 0.31310  0.23800  0.95230  Biso   1.000  H
  H149     1.0000 0.81310  0.26200  0.95230  Biso   1.000  H
  H150     1.0000 0.18690  0.26200  0.04770  Biso   1.000  H
  H151     1.0000 0.31310  0.76200  0.95230  Biso   1.000  H
  H152     1.0000 0.68690  0.76200  0.04770  Biso   1.000  H
  C149     1.0000 0.24460  0.86150  0.02560  Biso   1.000  C
  C150     1.0000 0.75540  0.86150  0.97440  Biso   1.000  C
  C151     1.0000 0.74460  0.36150  0.02560  Biso   1.000  C
  C152     1.0000 0.25540  0.36150  0.97440  Biso   1.000  C
  C153     1.0000 0.75540  0.13850  0.97440  Biso   1.000  C
  C154     1.0000 0.24460  0.13850  0.02560  Biso   1.000  C
  C155     1.0000 0.25540  0.63850  0.97440  Biso   1.000  C
  C156     1.0000 0.74460  0.63850  0.02560  Biso   1.000  C
  H153     1.0000 0.24090  0.86560  0.11440  Biso   1.000  H
  H154     1.0000 0.75910  0.86560  0.88560  Biso   1.000  H
  H155     1.0000 0.74090  0.36560  0.11440  Biso   1.000  H
  H156     1.0000 0.25910  0.36560  0.88560  Biso   1.000  H
  H157     1.0000 0.75910  0.13440  0.88560  Biso   1.000  H
  H158     1.0000 0.24090  0.13440  0.11440  Biso   1.000  H
  H159     1.0000 0.25910  0.63440  0.88560  Biso   1.000  H
  H160     1.0000 0.74090  0.63440  0.11440  Biso   1.000  H
  H161     1.0000 0.27020  0.83700  0.01170  Biso   1.000  H
  H162     1.0000 0.72980  0.83700  0.98830  Biso   1.000  H
  H163     1.0000 0.77020  0.33700  0.01170  Biso   1.000  H
  H164     1.0000 0.22980  0.33700  0.98830  Biso   1.000  H
  H165     1.0000 0.72980  0.16300  0.98830  Biso   1.000  H
  H166     1.0000 0.27020  0.16300  0.01170  Biso   1.000  H
  H167     1.0000 0.22980  0.66300  0.98830  Biso   1.000  H
  H168     1.0000 0.77020  0.66300  0.01170  Biso   1.000  H
  H169     1.0000 0.24520  0.90930  0.98890  Biso   1.000  H
  H170     1.0000 0.75480  0.90930  0.01110  Biso   1.000  H
  H171     1.0000 0.74520  0.40930  0.98890  Biso   1.000  H
  H172     1.0000 0.25480  0.40930  0.01110  Biso   1.000  H
  H173     1.0000 0.75480  0.09070  0.01110  Biso   1.000  H
  H174     1.0000 0.24520  0.09070  0.98890  Biso   1.000  H
  H175     1.0000 0.25480  0.59070  0.01110  Biso   1.000  H
  H176     1.0000 0.74520  0.59070  0.98890  Biso   1.000  H
  C157     1.0000 0.05120  0.96930  0.85620  Biso   1.000  C
  C158     1.0000 0.94880  0.96930  0.14380  Biso   1.000  C
  C159     1.0000 0.55120  0.46930  0.85620  Biso   1.000  C
  C160     1.0000 0.44880  0.46930  0.14380  Biso   1.000  C
  C161     1.0000 0.94880  0.03070  0.14380  Biso   1.000  C
  C162     1.0000 0.05120  0.03070  0.85620  Biso   1.000  C
  C163     1.0000 0.44880  0.53070  0.14380  Biso   1.000  C
  C164     1.0000 0.55120  0.53070  0.85620  Biso   1.000  C
  C165     1.0000 0.05600  0.91900  0.06100  Biso   1.000  C
  C166     1.0000 0.94400  0.91900  0.93900  Biso   1.000  C
  C167     1.0000 0.55600  0.41900  0.06100  Biso   1.000  C
  C168     1.0000 0.44400  0.41900  0.93900  Biso   1.000  C
  C169     1.0000 0.94400  0.08100  0.93900  Biso   1.000  C
  C170     1.0000 0.05600  0.08100  0.06100  Biso   1.000  C
  C171     1.0000 0.44400  0.58100  0.93900  Biso   1.000  C
  C172     1.0000 0.55600  0.58100  0.06100  Biso   1.000  C
  C173     1.0000 0.05700  0.04330  0.03800  Biso   1.000  C
  C174     1.0000 0.94300  0.04330  0.96200  Biso   1.000  C
  C175     1.0000 0.55700  0.54330  0.03800  Biso   1.000  C
  C176     1.0000 0.44300  0.54330  0.96200  Biso   1.000  C
  C177     1.0000 0.94300  0.95670  0.96200  Biso   1.000  C
  C178     1.0000 0.05700  0.95670  0.03800  Biso   1.000  C
  C179     1.0000 0.44300  0.45670  0.96200  Biso   1.000  C
  C180     1.0000 0.55700  0.45670  0.03800  Biso   1.000  C
  H177     1.0000 0.07900  0.92710  0.00820  Biso   1.000  H
  H178     1.0000 0.92100  0.92710  0.99180  Biso   1.000  H
  H179     1.0000 0.57900  0.42710  0.00820  Biso   1.000  H
  H180     1.0000 0.42100  0.42710  0.99180  Biso   1.000  H
  H181     1.0000 0.92100  0.07290  0.99180  Biso   1.000  H
  H182     1.0000 0.07900  0.07290  0.00820  Biso   1.000  H
  H183     1.0000 0.42100  0.57290  0.99180  Biso   1.000  H
  H184     1.0000 0.57900  0.57290  0.00820  Biso   1.000  H
  H185     1.0000 0.03110  0.93190  0.02370  Biso   1.000  H
  H186     1.0000 0.96890  0.93190  0.97630  Biso   1.000  H
  H187     1.0000 0.53110  0.43190  0.02370  Biso   1.000  H
  H188     1.0000 0.46890  0.43190  0.97630  Biso   1.000  H
  H189     1.0000 0.96890  0.06810  0.97630  Biso   1.000  H
  H190     1.0000 0.03110  0.06810  0.02370  Biso   1.000  H
  H191     1.0000 0.46890  0.56810  0.97630  Biso   1.000  H
  H192     1.0000 0.53110  0.56810  0.02370  Biso   1.000  H
  H193     1.0000 0.06140  0.93790  0.14410  Biso   1.000  H
  H194     1.0000 0.93860  0.93790  0.85590  Biso   1.000  H
  H195     1.0000 0.56140  0.43790  0.14410  Biso   1.000  H
  H196     1.0000 0.43860  0.43790  0.85590  Biso   1.000  H
  H197     1.0000 0.93860  0.06210  0.85590  Biso   1.000  H
  H198     1.0000 0.06140  0.06210  0.14410  Biso   1.000  H
  H199     1.0000 0.43860  0.56210  0.85590  Biso   1.000  H
  H200     1.0000 0.56140  0.56210  0.14410  Biso   1.000  H
  H201     1.0000 0.03010  0.89470  0.05580  Biso   1.000  H
  H202     1.0000 0.96990  0.89470  0.94420  Biso   1.000  H
  H203     1.0000 0.53010  0.39470  0.05580  Biso   1.000  H
  H204     1.0000 0.46990  0.39470  0.94420  Biso   1.000  H
  H205     1.0000 0.96990  0.10530  0.94420  Biso   1.000  H
  H206     1.0000 0.03010  0.10530  0.05580  Biso   1.000  H
  H207     1.0000 0.46990  0.60530  0.94420  Biso   1.000  H
  H208     1.0000 0.53010  0.60530  0.05580  Biso   1.000  H
  H209     1.0000 0.06160  0.96550  0.12660  Biso   1.000  H
  H210     1.0000 0.93840  0.96550  0.87340  Biso   1.000  H
  H211     1.0000 0.56160  0.46550  0.12660  Biso   1.000  H
  H212     1.0000 0.43840  0.46550  0.87340  Biso   1.000  H
  H213     1.0000 0.93840  0.03450  0.87340  Biso   1.000  H
  H214     1.0000 0.06160  0.03450  0.12660  Biso   1.000  H
  H215     1.0000 0.43840  0.53450  0.87340  Biso   1.000  H
  H216     1.0000 0.56160  0.53450  0.12660  Biso   1.000  H
  H217     1.0000 0.07780  0.88520  0.04130  Biso   1.000  H
  H218     1.0000 0.92220  0.88520  0.95870  Biso   1.000  H
  H219     1.0000 0.57780  0.38520  0.04130  Biso   1.000  H
  H220     1.0000 0.42220  0.38520  0.95870  Biso   1.000  H
  H221     1.0000 0.92220  0.11480  0.95870  Biso   1.000  H
  H222     1.0000 0.07780  0.11480  0.04130  Biso   1.000  H
  H223     1.0000 0.42220  0.61480  0.95870  Biso   1.000  H
  H224     1.0000 0.57780  0.61480  0.04130  Biso   1.000  H
  H225     1.0000 0.04700  0.92050  0.83510  Biso   1.000  H
  H226     1.0000 0.95300  0.92050  0.16490  Biso   1.000  H
  H227     1.0000 0.54700  0.42050  0.83510  Biso   1.000  H
  H228     1.0000 0.45300  0.42050  0.16490  Biso   1.000  H
  H229     1.0000 0.95300  0.07950  0.16490  Biso   1.000  H
  H230     1.0000 0.04700  0.07950  0.83510  Biso   1.000  H
  H231     1.0000 0.45300  0.57950  0.16490  Biso   1.000  H
  H232     1.0000 0.54700  0.57950  0.83510  Biso   1.000  H
