data_image0
_cell_length_a       7.2152
_cell_length_b       11.3005
_cell_length_c       12.2762
_cell_angle_alpha    101.315
_cell_angle_beta     100.576
_cell_angle_gamma    92.018

_symmetry_space_group_name_H-M    "P 1"
_symmetry_int_tables_number       1

loop_
  _symmetry_equiv_pos_as_xyz
  'x, y, z'

loop_
  _atom_site_label
  _atom_site_occupancy
  _atom_site_fract_x
  _atom_site_fract_y
  _atom_site_fract_z
  _atom_site_thermal_displace_type
  _atom_site_B_iso_or_equiv
  _atom_site_type_symbol
  Cu1      1.0000 0.27717  0.61573  0.30982  Biso   1.000  Cu
  Cu2      1.0000 0.72283  0.38427  0.69018  Biso   1.000  Cu
  Cl1      1.0000 0.78525  0.57272  0.32311  Biso   1.000  Cl
  Cl2      1.0000 0.21475  0.42728  0.67689  Biso   1.000  Cl
  N1       1.0000 0.31610  0.74440  0.44970  Biso   1.000  N
  N2       1.0000 0.68390  0.25560  0.55030  Biso   1.000  N
  N3       1.0000 0.25670  0.73150  0.21180  Biso   1.000  N
  N4       1.0000 0.74330  0.26850  0.78820  Biso   1.000  N
  N5       1.0000 0.25230  0.67510  0.10160  Biso   1.000  N
  N6       1.0000 0.74770  0.32490  0.89840  Biso   1.000  N
  H1       1.0000 0.25080  0.71440  0.04810  Biso   1.000  H
  H2       1.0000 0.74920  0.28560  0.95190  Biso   1.000  H
  N7       1.0000 0.24250  0.49330  0.97950  Biso   1.000  N
  N8       1.0000 0.75750  0.50670  0.02050  Biso   1.000  N
  H3       1.0000 0.24050  0.41560  0.96590  Biso   1.000  H
  H4       1.0000 0.75950  0.58440  0.03410  Biso   1.000  H
  H5       1.0000 0.23940  0.53130  0.92510  Biso   1.000  H
  H6       1.0000 0.76060  0.46870  0.07490  Biso   1.000  H
  O1       1.0000 0.25520  0.50180  0.16480  Biso   1.000  O
  O2       1.0000 0.74480  0.49820  0.83520  Biso   1.000  O
  O3       1.0000 0.26450  0.47550  0.38030  Biso   1.000  O
  O4       1.0000 0.73550  0.52450  0.61970  Biso   1.000  O
  H7       1.0000 0.15120  0.50190  0.39680  Biso   1.000  H
  H8       1.0000 0.84880  0.49810  0.60320  Biso   1.000  H
  H9       1.0000 0.22630  0.40420  0.32290  Biso   1.000  H
  H10      1.0000 0.77370  0.59580  0.67710  Biso   1.000  H
  C1       1.0000 0.23240  0.84360  0.23560  Biso   1.000  C
  C2       1.0000 0.76760  0.15640  0.76440  Biso   1.000  C
  H11      1.0000 0.21230  0.88530  0.17670  Biso   1.000  H
  H12      1.0000 0.78770  0.11470  0.82330  Biso   1.000  H
  C3       1.0000 0.37170  0.70970  0.54550  Biso   1.000  C
  C4       1.0000 0.62830  0.29030  0.45450  Biso   1.000  C
  H13      1.0000 0.40270  0.63020  0.54280  Biso   1.000  H
  H14      1.0000 0.59730  0.36980  0.45720  Biso   1.000  H
  C5       1.0000 0.38680  0.78520  0.65070  Biso   1.000  C
  C6       1.0000 0.61320  0.21480  0.34930  Biso   1.000  C
  H15      1.0000 0.42760  0.75680  0.71660  Biso   1.000  H
  H16      1.0000 0.57240  0.24320  0.28340  Biso   1.000  H
  C7       1.0000 0.34100  0.90160  0.65590  Biso   1.000  C
  C8       1.0000 0.65900  0.09840  0.34410  Biso   1.000  C
  H17      1.0000 0.34490  0.95260  0.72580  Biso   1.000  H
  H18      1.0000 0.65510  0.04740  0.27420  Biso   1.000  H
  C9       1.0000 0.24610  0.06820  0.55920  Biso   1.000  C
  C10      1.0000 0.75390  0.93180  0.44080  Biso   1.000  C
  H19      1.0000 0.25220  0.12080  0.62850  Biso   1.000  H
  H20      1.0000 0.74780  0.87920  0.37150  Biso   1.000  H
  C11      1.0000 0.19820  0.10860  0.46320  Biso   1.000  C
  C12      1.0000 0.80180  0.89140  0.53680  Biso   1.000  C
  H21      1.0000 0.16740  0.18820  0.46560  Biso   1.000  H
  H22      1.0000 0.83260  0.81180  0.53440  Biso   1.000  H
  C13      1.0000 0.19490  0.02990  0.35830  Biso   1.000  C
  C14      1.0000 0.80510  0.97010  0.64170  Biso   1.000  C
  H23      1.0000 0.16500  0.05960  0.29220  Biso   1.000  H
  H24      1.0000 0.83500  0.94040  0.70780  Biso   1.000  H
  C15      1.0000 0.23420  0.91100  0.35030  Biso   1.000  C
  C16      1.0000 0.76580  0.08900  0.64970  Biso   1.000  C
  C17      1.0000 0.27880  0.86530  0.45160  Biso   1.000  C
  C18      1.0000 0.72120  0.13470  0.54840  Biso   1.000  C
  C19      1.0000 0.28820  0.94420  0.55650  Biso   1.000  C
  C20      1.0000 0.71180  0.05580  0.44350  Biso   1.000  C
  C21      1.0000 0.25040  0.55400  0.08360  Biso   1.000  C
  C22      1.0000 0.74960  0.44600  0.91640  Biso   1.000  C
  O5       1.0000 0.74610  0.45580  0.25470  Biso   1.000  O
  O6       1.0000 0.25390  0.54420  0.74530  Biso   1.000  O
  O7       1.0000 0.62440  0.63380  0.33410  Biso   1.000  O
  O8       1.0000 0.37560  0.36620  0.66590  Biso   1.000  O
  O9       1.0000 0.91330  0.63930  0.27950  Biso   1.000  O
  O10      1.0000 0.08670  0.36070  0.72050  Biso   1.000  O
  O11      1.0000 0.88420  0.56030  0.43300  Biso   1.000  O
  O12      1.0000 0.11580  0.43970  0.56700  Biso   1.000  O
  O13      1.0000 0.64500  0.57800  0.39000  Biso   1.000  O
  O14      1.0000 0.35500  0.42200  0.61000  Biso   1.000  O
  O15      1.0000 0.95400  0.64100  0.36300  Biso   1.000  O
  O16      1.0000 0.04600  0.35900  0.63700  Biso   1.000  O
  O17      1.0000 0.68500  0.64700  0.24700  Biso   1.000  O
  O18      1.0000 0.31500  0.35300  0.75300  Biso   1.000  O
  Cl3      1.0000 0.75000  0.86235  0.03586  Biso   1.000  Cl
  Cl4      1.0000 0.25000  0.13765  0.96414  Biso   1.000  Cl
  O19      1.0000 0.62270  0.83930  0.10190  Biso   1.000  O
  O20      1.0000 0.37730  0.16070  0.89810  Biso   1.000  O
  O21      1.0000 0.87090  0.77080  0.02140  Biso   1.000  O
  O22      1.0000 0.12910  0.22920  0.97860  Biso   1.000  O
  O23      1.0000 0.65410  0.88210  0.93410  Biso   1.000  O
  O24      1.0000 0.34590  0.11790  0.06590  Biso   1.000  O
  O25      1.0000 0.86270  0.96490  0.09680  Biso   1.000  O
  O26      1.0000 0.13730  0.03510  0.90320  Biso   1.000  O
  O27      1.0000 0.24490  0.79930  0.92450  Biso   1.000  O
  O28      1.0000 0.75510  0.20070  0.07550  Biso   1.000  O
  H25      1.0000 0.21230  0.86910  0.91440  Biso   1.000  H
  H26      1.0000 0.78770  0.13090  0.08560  Biso   1.000  H
  H27      1.0000 0.35750  0.81090  0.94440  Biso   1.000  H
  H28      1.0000 0.64250  0.18910  0.05560  Biso   1.000  H
  O29      1.0000 0.10780  0.27610  0.24060  Biso   1.000  O
  O30      1.0000 0.89220  0.72390  0.75940  Biso   1.000  O
  H29      1.0000 0.99140  0.27600  0.22690  Biso   1.000  H
  H30      1.0000 0.00860  0.72400  0.77310  Biso   1.000  H
  H31      1.0000 0.16620  0.23690  0.19510  Biso   1.000  H
  H32      1.0000 0.83380  0.76310  0.80490  Biso   1.000  H
