data_image0
_cell_length_a       7.1028
_cell_length_b       9.0104
_cell_length_c       15.2719
_cell_angle_alpha    72.983
_cell_angle_beta     82.497
_cell_angle_gamma    88.316

_symmetry_space_group_name_H-M    "P 1"
_symmetry_int_tables_number       1

loop_
  _symmetry_equiv_pos_as_xyz
  'x, y, z'

loop_
  _atom_site_label
  _atom_site_occupancy
  _atom_site_fract_x
  _atom_site_fract_y
  _atom_site_fract_z
  _atom_site_thermal_displace_type
  _atom_site_B_iso_or_equiv
  _atom_site_type_symbol
  Cu1      1.0000 0.33590  0.59597  0.19653  Biso   1.000  Cu
  Cu2      1.0000 0.66410  0.40403  0.80347  Biso   1.000  Cu
  S1       1.0000 0.38721  0.69992  0.04069  Biso   1.000  S
  S2       1.0000 0.61279  0.30008  0.95931  Biso   1.000  S
  Cl1      1.0000 0.84660  0.57328  0.15765  Biso   1.000  Cl
  Cl2      1.0000 0.15340  0.42672  0.84235  Biso   1.000  Cl
  O1       1.0000 0.90210  0.72520  0.10070  Biso   1.000  O
  O2       1.0000 0.09790  0.27480  0.89930  Biso   1.000  O
  O3       1.0000 0.68020  0.58040  0.21980  Biso   1.000  O
  O4       1.0000 0.31980  0.41960  0.78020  Biso   1.000  O
  O5       1.0000 0.99780  0.50700  0.20920  Biso   1.000  O
  O6       1.0000 0.00220  0.49300  0.79080  Biso   1.000  O
  O7       1.0000 0.80720  0.48210  0.10020  Biso   1.000  O
  O8       1.0000 0.19280  0.51790  0.89980  Biso   1.000  O
  N1       1.0000 0.30610  0.51360  0.33680  Biso   1.000  N
  N2       1.0000 0.69390  0.48640  0.66320  Biso   1.000  N
  N3       1.0000 0.26480  0.80660  0.20010  Biso   1.000  N
  N4       1.0000 0.73520  0.19340  0.79990  Biso   1.000  N
  N5       1.0000 0.25390  0.91710  0.11610  Biso   1.000  N
  N6       1.0000 0.74610  0.08290  0.88390  Biso   1.000  N
  H1       1.0000 0.21800  0.00990  0.11420  Biso   1.000  H
  H2       1.0000 0.78200  0.99010  0.88580  Biso   1.000  H
  N7       1.0000 0.27760  0.98240  0.96080  Biso   1.000  N
  N8       1.0000 0.72240  0.01760  0.03920  Biso   1.000  N
  H3       1.0000 0.23490  0.07260  0.96120  Biso   1.000  H
  H4       1.0000 0.76510  0.92740  0.03880  Biso   1.000  H
  H5       1.0000 0.30570  0.96120  0.90930  Biso   1.000  H
  H6       1.0000 0.69430  0.03880  0.09070  Biso   1.000  H
  C1       1.0000 0.22340  0.85550  0.27050  Biso   1.000  C
  C2       1.0000 0.77660  0.14450  0.72950  Biso   1.000  C
  H7       1.0000 0.19340  0.95990  0.26000  Biso   1.000  H
  H8       1.0000 0.80660  0.04010  0.74000  Biso   1.000  H
  C3       1.0000 0.34310  0.36540  0.37140  Biso   1.000  C
  C4       1.0000 0.65690  0.63460  0.62860  Biso   1.000  C
  H9       1.0000 0.37840  0.30830  0.33020  Biso   1.000  H
  H10      1.0000 0.62160  0.69170  0.66980  Biso   1.000  H
  C5       1.0000 0.33320  0.28850  0.46470  Biso   1.000  C
  C6       1.0000 0.66680  0.71150  0.53530  Biso   1.000  C
  H11      1.0000 0.36100  0.18330  0.48480  Biso   1.000  H
  H12      1.0000 0.63900  0.81670  0.51520  Biso   1.000  H
  C7       1.0000 0.28290  0.36800  0.52550  Biso   1.000  C
  C8       1.0000 0.71710  0.63200  0.47450  Biso   1.000  C
  H13      1.0000 0.27450  0.31790  0.58850  Biso   1.000  H
  H14      1.0000 0.72550  0.68210  0.41150  Biso   1.000  H
  C9       1.0000 0.19320  0.61600  0.55700  Biso   1.000  C
  C10      1.0000 0.80680  0.38400  0.44300  Biso   1.000  C
  H15      1.0000 0.18540  0.56880  0.62030  Biso   1.000  H
  H16      1.0000 0.81460  0.43120  0.37970  Biso   1.000  H
  C11      1.0000 0.15790  0.76770  0.52460  Biso   1.000  C
  C12      1.0000 0.84210  0.23230  0.47540  Biso   1.000  C
  H17      1.0000 0.12330  0.82490  0.56580  Biso   1.000  H
  H18      1.0000 0.87670  0.17510  0.43420  Biso   1.000  H
  C13      1.0000 0.17190  0.84010  0.43130  Biso   1.000  C
  C14      1.0000 0.82810  0.15990  0.56870  Biso   1.000  C
  H19      1.0000 0.14870  0.94600  0.41100  Biso   1.000  H
  H20      1.0000 0.85130  0.05400  0.58900  Biso   1.000  H
  C15      1.0000 0.21950  0.76080  0.36600  Biso   1.000  C
  C16      1.0000 0.78050  0.23920  0.63400  Biso   1.000  C
  C17      1.0000 0.25660  0.59810  0.39720  Biso   1.000  C
  C18      1.0000 0.74340  0.40190  0.60280  Biso   1.000  C
  C19      1.0000 0.24260  0.52770  0.49430  Biso   1.000  C
  C20      1.0000 0.75740  0.47230  0.50570  Biso   1.000  C
  C21      1.0000 0.29950  0.87880  0.03780  Biso   1.000  C
  C22      1.0000 0.70050  0.12120  0.96220  Biso   1.000  C
  O9       1.0000 0.38150  0.38800  0.17610  Biso   1.000  O
  O10      1.0000 0.61850  0.61200  0.82390  Biso   1.000  O
  H21      1.0000 0.31880  0.36190  0.15130  Biso   1.000  H
  H22      1.0000 0.68120  0.63810  0.84870  Biso   1.000  H
  H23      1.0000 0.48270  0.35750  0.17070  Biso   1.000  H
  H24      1.0000 0.51730  0.64250  0.82930  Biso   1.000  H
  Cl3      1.0000 0.70480  0.04639  0.27814  Biso   1.000  Cl
  Cl4      1.0000 0.29520  0.95361  0.72186  Biso   1.000  Cl
  O11      1.0000 0.58460  0.03550  0.36020  Biso   1.000  O
  O12      1.0000 0.41540  0.96450  0.63980  Biso   1.000  O
  O13      1.0000 0.86430  0.13970  0.27290  Biso   1.000  O
  O14      1.0000 0.13570  0.86030  0.72710  Biso   1.000  O
  O15      1.0000 0.60060  0.11260  0.20390  Biso   1.000  O
  O16      1.0000 0.39940  0.88740  0.79610  Biso   1.000  O
  O17      1.0000 0.77790  0.90480  0.26660  Biso   1.000  O
  O18      1.0000 0.22210  0.09520  0.73340  Biso   1.000  O
  O19      1.0000 0.87200  0.04100  0.30800  Biso   1.000  O
  O20      1.0000 0.12800  0.95900  0.69200  Biso   1.000  O
  O21      1.0000 0.71100  0.17700  0.20100  Biso   1.000  O
  O22      1.0000 0.28900  0.82300  0.79900  Biso   1.000  O
  O23      1.0000 0.64700  0.91800  0.26000  Biso   1.000  O
  O24      1.0000 0.35300  0.08200  0.74000  Biso   1.000  O
  O25      1.0000 0.13150  0.23810  0.10560  Biso   1.000  O
  O26      1.0000 0.86850  0.76190  0.89440  Biso   1.000  O
  H25      1.0000 0.00570  0.22110  0.13160  Biso   1.000  H
  H26      1.0000 0.99430  0.77890  0.86840  Biso   1.000  H
  H27      1.0000 0.12290  0.25090  0.04180  Biso   1.000  H
  H28      1.0000 0.87710  0.74910  0.95820  Biso   1.000  H
