data_image0
_cell_length_a       6.6953
_cell_length_b       10.4322
_cell_length_c       10.439
_cell_angle_alpha    62.618
_cell_angle_beta     71.985
_cell_angle_gamma    83.474

_symmetry_space_group_name_H-M    "P 1"
_symmetry_int_tables_number       1

loop_
  _symmetry_equiv_pos_as_xyz
  'x, y, z'

loop_
  _atom_site_label
  _atom_site_occupancy
  _atom_site_fract_x
  _atom_site_fract_y
  _atom_site_fract_z
  _atom_site_thermal_displace_type
  _atom_site_B_iso_or_equiv
  _atom_site_type_symbol
  Cu1      1.0000 0.50000  0.50000  0.50000  Biso   1.000  Cu
  Na1      1.0000 0.25880  0.90256  0.02877  Biso   1.000  Na
  Na2      1.0000 0.74120  0.09744  0.97123  Biso   1.000  Na
  O1       1.0000 0.31714  0.37384  0.84124  Biso   1.000  O
  O2       1.0000 0.68286  0.62616  0.15876  Biso   1.000  O
  O3       1.0000 0.70474  0.76373  0.45256  Biso   1.000  O
  O4       1.0000 0.29526  0.23627  0.54744  Biso   1.000  O
  O5       1.0000 0.41215  0.76004  0.91032  Biso   1.000  O
  O6       1.0000 0.58785  0.23996  0.08968  Biso   1.000  O
  O7       1.0000 0.89246  0.56671  0.82633  Biso   1.000  O
  O8       1.0000 0.10754  0.43329  0.17367  Biso   1.000  O
  O9       1.0000 0.98574  0.95627  0.88835  Biso   1.000  O
  O10      1.0000 0.01426  0.04373  0.11165  Biso   1.000  O
  O11      1.0000 0.28487  0.95651  0.43443  Biso   1.000  O
  O12      1.0000 0.71513  0.04349  0.56557  Biso   1.000  O
  O13      1.0000 0.24004  0.59783  0.48039  Biso   1.000  O
  O14      1.0000 0.75996  0.40217  0.51961  Biso   1.000  O
  O15      1.0000 0.49672  0.89644  0.16855  Biso   1.000  O
  O16      1.0000 0.50328  0.10356  0.83145  Biso   1.000  O
  O17      1.0000 0.07371  0.67993  0.24389  Biso   1.000  O
  O18      1.0000 0.92629  0.32007  0.75611  Biso   1.000  O
  N1       1.0000 0.51215  0.56669  0.64368  Biso   1.000  N
  N2       1.0000 0.48785  0.43331  0.35632  Biso   1.000  N
  N3       1.0000 0.36783  0.56401  0.87975  Biso   1.000  N
  N4       1.0000 0.63217  0.43599  0.12025  Biso   1.000  N
  N5       1.0000 0.56223  0.76482  0.68036  Biso   1.000  N
  N6       1.0000 0.43777  0.23518  0.31964  Biso   1.000  N
  N7       1.0000 0.09003  0.75712  0.62360  Biso   1.000  N
  N8       1.0000 0.90997  0.24288  0.37640  Biso   1.000  N
  N9       1.0000 0.93093  0.76290  0.85641  Biso   1.000  N
  N10      1.0000 0.06907  0.23710  0.14359  Biso   1.000  N
  N11      1.0000 0.13681  0.95736  0.66050  Biso   1.000  N
  N12      1.0000 0.86319  0.04264  0.33950  Biso   1.000  N
  C1       1.0000 0.01480  0.89644  0.80690  Biso   1.000  C
  C2       1.0000 0.98520  0.10356  0.19310  Biso   1.000  C
  C3       1.0000 0.44581  0.70007  0.82918  Biso   1.000  C
  C4       1.0000 0.55419  0.29993  0.17082  Biso   1.000  C
  C5       1.0000 0.17347  0.89101  0.56744  Biso   1.000  C
  C6       1.0000 0.82653  0.10899  0.43256  Biso   1.000  C
  C7       1.0000 0.39675  0.49544  0.78976  Biso   1.000  C
  C8       1.0000 0.60325  0.50456  0.21024  Biso   1.000  C
  C9       1.0000 0.96987  0.69060  0.76839  Biso   1.000  C
  C10      1.0000 0.03013  0.30940  0.23161  Biso   1.000  C
  C11      1.0000 0.59903  0.70004  0.58644  Biso   1.000  C
  C12      1.0000 0.40097  0.29996  0.41356  Biso   1.000  C
  H1       1.0000 0.19400  0.65200  0.52400  Biso   1.000  H
  H2       1.0000 0.80600  0.34800  0.47600  Biso   1.000  H
  H3       1.0000 0.29100  0.52100  0.96700  Biso   1.000  H
  H4       1.0000 0.70900  0.47900  0.03300  Biso   1.000  H
  H5       1.0000 0.61300  0.85200  0.64300  Biso   1.000  H
  H6       1.0000 0.38700  0.14800  0.35700  Biso   1.000  H
  H7       1.0000 0.85200  0.72200  0.94300  Biso   1.000  H
  H8       1.0000 0.14800  0.27800  0.05700  Biso   1.000  H
  H9       1.0000 0.19000  0.04100  0.62700  Biso   1.000  H
  H10      1.0000 0.81000  0.95900  0.37300  Biso   1.000  H
  H11      1.0000 0.19900  0.61700  0.40700  Biso   1.000  H
  H12      1.0000 0.80100  0.38300  0.59300  Biso   1.000  H
  H13      1.0000 0.55500  0.81900  0.18000  Biso   1.000  H
  H14      1.0000 0.44500  0.18100  0.82000  Biso   1.000  H
  H15      1.0000 0.45000  0.90200  0.24500  Biso   1.000  H
  H16      1.0000 0.55000  0.09800  0.75500  Biso   1.000  H
  H17      1.0000 0.95800  0.69900  0.28800  Biso   1.000  H
  H18      1.0000 0.04200  0.30100  0.71200  Biso   1.000  H
  H19      1.0000 0.06400  0.61000  0.22900  Biso   1.000  H
  H20      1.0000 0.93600  0.39000  0.77100  Biso   1.000  H
