data_image0
_cell_length_a       9.864
_cell_length_b       20.855
_cell_length_c       39.101
_cell_angle_alpha    90
_cell_angle_beta     90
_cell_angle_gamma    90

_symmetry_space_group_name_H-M    "P 1"
_symmetry_int_tables_number       1

loop_
  _symmetry_equiv_pos_as_xyz
  'x, y, z'

loop_
  _atom_site_label
  _atom_site_occupancy
  _atom_site_fract_x
  _atom_site_fract_y
  _atom_site_fract_z
  _atom_site_thermal_displace_type
  _atom_site_B_iso_or_equiv
  _atom_site_type_symbol
  O1       1.0000 0.62700  0.22400  0.26100  Biso   1.000  O
  O2       1.0000 0.87300  0.77600  0.76100  Biso   1.000  O
  O3       1.0000 0.12700  0.27600  0.73900  Biso   1.000  O
  O4       1.0000 0.37300  0.72400  0.23900  Biso   1.000  O
  Tm1      1.0000 0.27020  0.27460  0.39290  Biso   1.000  Tm
  Tm2      1.0000 0.22980  0.72540  0.89290  Biso   1.000  Tm
  Tm3      1.0000 0.77020  0.22540  0.60710  Biso   1.000  Tm
  Tm4      1.0000 0.72980  0.77460  0.10710  Biso   1.000  Tm
  Tm5      1.0000 0.35720  0.27550  0.10830  Biso   1.000  Tm
  Tm6      1.0000 0.14280  0.72450  0.60830  Biso   1.000  Tm
  Tm7      1.0000 0.85720  0.22450  0.89170  Biso   1.000  Tm
  Tm8      1.0000 0.64280  0.77550  0.39170  Biso   1.000  Tm
  Cu1      1.0000 0.40800  0.27650  0.25240  Biso   1.000  Cu
  Cu2      1.0000 0.09200  0.72350  0.75240  Biso   1.000  Cu
  Cu3      1.0000 0.90800  0.22350  0.74760  Biso   1.000  Cu
  Cu4      1.0000 0.59200  0.77650  0.24760  Biso   1.000  Cu
  Cu5      1.0000 0.50700  0.51400  0.40260  Biso   1.000  Cu
  Cu6      1.0000 0.99300  0.48600  0.90260  Biso   1.000  Cu
  Cu7      1.0000 0.00700  0.98600  0.59740  Biso   1.000  Cu
  Cu8      1.0000 0.49300  0.01400  0.09740  Biso   1.000  Cu
  Cu9      1.0000 0.59100  0.51760  0.08090  Biso   1.000  Cu
  Cu10     1.0000 0.90900  0.48240  0.58090  Biso   1.000  Cu
  Cu11     1.0000 0.09100  0.98240  0.91910  Biso   1.000  Cu
  Cu12     1.0000 0.40900  0.01760  0.41910  Biso   1.000  Cu
  O5       1.0000 0.16000  0.28500  0.45800  Biso   1.000  O
  O6       1.0000 0.34000  0.71500  0.95800  Biso   1.000  O
  O7       1.0000 0.66000  0.21500  0.54200  Biso   1.000  O
  O8       1.0000 0.84000  0.78500  0.04200  Biso   1.000  O
  O9       1.0000 0.31100  0.26600  0.04500  Biso   1.000  O
  O10      1.0000 0.18900  0.73400  0.54500  Biso   1.000  O
  O11      1.0000 0.81100  0.23400  0.95500  Biso   1.000  O
  O12      1.0000 0.68900  0.76600  0.45500  Biso   1.000  O
  O13      1.0000 0.42000  0.30700  0.35600  Biso   1.000  O
  O14      1.0000 0.08000  0.69300  0.85600  Biso   1.000  O
  O15      1.0000 0.92000  0.19300  0.64400  Biso   1.000  O
  O16      1.0000 0.58000  0.80700  0.14400  Biso   1.000  O
  O17      1.0000 0.24000  0.22400  0.34400  Biso   1.000  O
  O18      1.0000 0.26000  0.77600  0.84400  Biso   1.000  O
  O19      1.0000 0.74000  0.27600  0.65600  Biso   1.000  O
  O20      1.0000 0.76000  0.72400  0.15600  Biso   1.000  O
  C1       1.0000 0.31000  0.23800  0.31800  Biso   1.000  C
  C2       1.0000 0.19000  0.76200  0.81800  Biso   1.000  C
  C3       1.0000 0.81000  0.26200  0.68200  Biso   1.000  C
  C4       1.0000 0.69000  0.73800  0.18200  Biso   1.000  C
  C5       1.0000 0.39800  0.30200  0.31900  Biso   1.000  C
  C6       1.0000 0.10200  0.69800  0.81900  Biso   1.000  C
  C7       1.0000 0.89800  0.19800  0.68100  Biso   1.000  C
  C8       1.0000 0.60200  0.80200  0.18100  Biso   1.000  C
  N1       1.0000 0.29300  0.22200  0.28200  Biso   1.000  N
  N2       1.0000 0.20700  0.77800  0.78200  Biso   1.000  N
  N3       1.0000 0.79300  0.27800  0.71800  Biso   1.000  N
  N4       1.0000 0.70700  0.72200  0.21800  Biso   1.000  N
  O21      1.0000 0.45800  0.33300  0.29500  Biso   1.000  O
  O22      1.0000 0.04200  0.66700  0.79500  Biso   1.000  O
  O23      1.0000 0.95800  0.16700  0.70500  Biso   1.000  O
  O24      1.0000 0.54200  0.83300  0.20500  Biso   1.000  O
  N5       1.0000 0.31300  0.22200  0.22000  Biso   1.000  N
  N6       1.0000 0.18700  0.77800  0.72000  Biso   1.000  N
  N7       1.0000 0.81300  0.27800  0.78000  Biso   1.000  N
  N8       1.0000 0.68700  0.72200  0.28000  Biso   1.000  N
  O25      1.0000 0.46300  0.32300  0.21000  Biso   1.000  O
  O26      1.0000 0.03700  0.67700  0.71000  Biso   1.000  O
  O27      1.0000 0.96300  0.17700  0.79000  Biso   1.000  O
  O28      1.0000 0.53700  0.82300  0.29000  Biso   1.000  O
  C9       1.0000 0.35000  0.24100  0.19000  Biso   1.000  C
  C10      1.0000 0.15000  0.75900  0.69000  Biso   1.000  C
  C11      1.0000 0.85000  0.25900  0.81000  Biso   1.000  C
  C12      1.0000 0.65000  0.74100  0.31000  Biso   1.000  C
  C13      1.0000 0.42000  0.30400  0.18100  Biso   1.000  C
  C14      1.0000 0.08000  0.69600  0.68100  Biso   1.000  C
  C15      1.0000 0.92000  0.19600  0.81900  Biso   1.000  C
  C16      1.0000 0.58000  0.80400  0.31900  Biso   1.000  C
  O29      1.0000 0.30600  0.21600  0.15600  Biso   1.000  O
  O30      1.0000 0.19400  0.78400  0.65600  Biso   1.000  O
  O31      1.0000 0.80600  0.28400  0.84400  Biso   1.000  O
  O32      1.0000 0.69400  0.71600  0.34400  Biso   1.000  O
  O33      1.0000 0.44400  0.32500  0.15600  Biso   1.000  O
  O34      1.0000 0.05600  0.67500  0.65600  Biso   1.000  O
  O35      1.0000 0.94400  0.17500  0.84400  Biso   1.000  O
  O36      1.0000 0.55600  0.82500  0.34400  Biso   1.000  O
  C17      1.0000 0.22000  0.17700  0.26700  Biso   1.000  C
  C18      1.0000 0.28000  0.82300  0.76700  Biso   1.000  C
  C19      1.0000 0.72000  0.32300  0.73300  Biso   1.000  C
  C20      1.0000 0.78000  0.67700  0.23300  Biso   1.000  C
  C21      1.0000 0.13000  0.13000  0.28200  Biso   1.000  C
  C22      1.0000 0.37000  0.87000  0.78200  Biso   1.000  C
  C23      1.0000 0.63000  0.37000  0.71800  Biso   1.000  C
  C24      1.0000 0.87000  0.63000  0.21800  Biso   1.000  C
  C25      1.0000 0.08000  0.07900  0.26200  Biso   1.000  C
  C26      1.0000 0.42000  0.92100  0.76200  Biso   1.000  C
  C27      1.0000 0.58000  0.42100  0.73800  Biso   1.000  C
  C28      1.0000 0.92000  0.57900  0.23800  Biso   1.000  C
  C29      1.0000 0.10000  0.08100  0.22700  Biso   1.000  C
  C30      1.0000 0.40000  0.91900  0.72700  Biso   1.000  C
  C31      1.0000 0.60000  0.41900  0.77300  Biso   1.000  C
  C32      1.0000 0.90000  0.58100  0.27300  Biso   1.000  C
  C33      1.0000 0.18000  0.12800  0.21200  Biso   1.000  C
  C34      1.0000 0.32000  0.87200  0.71200  Biso   1.000  C
  C35      1.0000 0.68000  0.37200  0.78800  Biso   1.000  C
  C36      1.0000 0.82000  0.62800  0.28800  Biso   1.000  C
  C37      1.0000 0.23000  0.17800  0.23200  Biso   1.000  C
  C38      1.0000 0.27000  0.82200  0.73200  Biso   1.000  C
  C39      1.0000 0.73000  0.32200  0.76800  Biso   1.000  C
  C40      1.0000 0.77000  0.67800  0.26800  Biso   1.000  C
  O37      1.0000 0.22700  0.38200  0.39500  Biso   1.000  O
  O38      1.0000 0.27300  0.61800  0.89500  Biso   1.000  O
  O39      1.0000 0.72700  0.11800  0.60500  Biso   1.000  O
  O40      1.0000 0.77300  0.88200  0.10500  Biso   1.000  O
  O41      1.0000 0.43900  0.33700  0.42100  Biso   1.000  O
  O42      1.0000 0.06100  0.66300  0.92100  Biso   1.000  O
  O43      1.0000 0.93900  0.16300  0.57900  Biso   1.000  O
  O44      1.0000 0.56100  0.83700  0.07900  Biso   1.000  O
  C41      1.0000 0.50000  0.40100  0.40500  Biso   1.000  C
  C42      1.0000 0.00000  0.59900  0.90500  Biso   1.000  C
  C43      1.0000 0.00000  0.09900  0.59500  Biso   1.000  C
  C44      1.0000 0.50000  0.90100  0.09500  Biso   1.000  C
  C45      1.0000 0.33600  0.41700  0.40400  Biso   1.000  C
  C46      1.0000 0.16400  0.58300  0.90400  Biso   1.000  C
  C47      1.0000 0.83600  0.08300  0.59600  Biso   1.000  C
  C48      1.0000 0.66400  0.91700  0.09600  Biso   1.000  C
  N9       1.0000 0.33800  0.48600  0.39900  Biso   1.000  N
  N10      1.0000 0.16200  0.51400  0.89900  Biso   1.000  N
  N11      1.0000 0.83800  0.01400  0.60100  Biso   1.000  N
  N12      1.0000 0.66200  0.98600  0.10100  Biso   1.000  N
  O45      1.0000 0.65600  0.56700  0.41400  Biso   1.000  O
  O46      1.0000 0.84400  0.43300  0.91400  Biso   1.000  O
  O47      1.0000 0.15600  0.93300  0.58600  Biso   1.000  O
  O48      1.0000 0.34400  0.06700  0.08600  Biso   1.000  O
  N13      1.0000 0.41300  0.59500  0.39400  Biso   1.000  N
  N14      1.0000 0.08700  0.40500  0.89400  Biso   1.000  N
  N15      1.0000 0.91300  0.90500  0.60600  Biso   1.000  N
  N16      1.0000 0.58700  0.09500  0.10600  Biso   1.000  N
  O49      1.0000 0.55900  0.43700  0.41600  Biso   1.000  O
  O50      1.0000 0.94100  0.56300  0.91600  Biso   1.000  O
  O51      1.0000 0.05900  0.06300  0.58400  Biso   1.000  O
  O52      1.0000 0.44100  0.93700  0.08400  Biso   1.000  O
  C49      1.0000 0.50000  0.63300  0.39500  Biso   1.000  C
  C50      1.0000 0.00000  0.36700  0.89500  Biso   1.000  C
  C51      1.0000 0.00000  0.86700  0.60500  Biso   1.000  C
  C52      1.0000 0.50000  0.13300  0.10500  Biso   1.000  C
  C53      1.0000 0.65600  0.62500  0.40100  Biso   1.000  C
  C54      1.0000 0.84400  0.37500  0.90100  Biso   1.000  C
  C55      1.0000 0.15600  0.87500  0.59900  Biso   1.000  C
  C56      1.0000 0.34400  0.12500  0.09900  Biso   1.000  C
  O53      1.0000 0.45300  0.70000  0.39000  Biso   1.000  O
  O54      1.0000 0.04700  0.30000  0.89000  Biso   1.000  O
  O55      1.0000 0.95300  0.80000  0.61000  Biso   1.000  O
  O56      1.0000 0.54700  0.20000  0.11000  Biso   1.000  O
  O57      1.0000 0.71700  0.67700  0.40700  Biso   1.000  O
  O58      1.0000 0.78300  0.32300  0.90700  Biso   1.000  O
  O59      1.0000 0.21700  0.82300  0.59300  Biso   1.000  O
  O60      1.0000 0.28300  0.17700  0.09300  Biso   1.000  O
  C57      1.0000 0.22000  0.52500  0.38900  Biso   1.000  C
  C58      1.0000 0.28000  0.47500  0.88900  Biso   1.000  C
  C59      1.0000 0.72000  0.97500  0.61100  Biso   1.000  C
  C60      1.0000 0.78000  0.02500  0.11100  Biso   1.000  C
  C61      1.0000 0.08500  0.51400  0.37800  Biso   1.000  C
  C62      1.0000 0.41500  0.48600  0.87800  Biso   1.000  C
  C63      1.0000 0.58500  0.98600  0.62200  Biso   1.000  C
  C64      1.0000 0.91500  0.01400  0.12200  Biso   1.000  C
  C65      1.0000 0.00400  0.56600  0.36900  Biso   1.000  C
  C66      1.0000 0.49600  0.43400  0.86900  Biso   1.000  C
  C67      1.0000 0.50400  0.93400  0.63100  Biso   1.000  C
  C68      1.0000 0.99600  0.06600  0.13100  Biso   1.000  C
  C69      1.0000 0.05200  0.62800  0.37500  Biso   1.000  C
  C70      1.0000 0.44800  0.37200  0.87500  Biso   1.000  C
  C71      1.0000 0.55200  0.87200  0.62500  Biso   1.000  C
  C72      1.0000 0.94800  0.12800  0.12500  Biso   1.000  C
  C73      1.0000 0.19100  0.63800  0.37800  Biso   1.000  C
  C74      1.0000 0.30900  0.36200  0.87800  Biso   1.000  C
  C75      1.0000 0.69100  0.86200  0.62200  Biso   1.000  C
  C76      1.0000 0.80900  0.13800  0.12200  Biso   1.000  C
  C77      1.0000 0.27500  0.58700  0.38800  Biso   1.000  C
  C78      1.0000 0.22500  0.41300  0.88800  Biso   1.000  C
  C79      1.0000 0.77500  0.91300  0.61200  Biso   1.000  C
  C80      1.0000 0.72500  0.08700  0.11200  Biso   1.000  C
  O61      1.0000 0.56200  0.71300  0.10400  Biso   1.000  O
  O62      1.0000 0.93800  0.28700  0.60400  Biso   1.000  O
  O63      1.0000 0.06200  0.78700  0.89600  Biso   1.000  O
  O64      1.0000 0.43800  0.21300  0.39600  Biso   1.000  O
  O65      1.0000 0.78800  0.66900  0.09100  Biso   1.000  O
  O66      1.0000 0.71200  0.33100  0.59100  Biso   1.000  O
  O67      1.0000 0.28800  0.83100  0.90900  Biso   1.000  O
  O68      1.0000 0.21200  0.16900  0.40900  Biso   1.000  O
  C81      1.0000 0.57600  0.65500  0.09300  Biso   1.000  C
  C82      1.0000 0.92400  0.34500  0.59300  Biso   1.000  C
  C83      1.0000 0.07600  0.84500  0.90700  Biso   1.000  C
  C84      1.0000 0.42400  0.15500  0.40700  Biso   1.000  C
  C85      1.0000 0.72000  0.61600  0.09200  Biso   1.000  C
  C86      1.0000 0.78000  0.38400  0.59200  Biso   1.000  C
  C87      1.0000 0.22000  0.88400  0.90800  Biso   1.000  C
  C88      1.0000 0.28000  0.11600  0.40800  Biso   1.000  C
  N17      1.0000 0.43000  0.49200  0.08400  Biso   1.000  N
  N18      1.0000 0.07000  0.50800  0.58400  Biso   1.000  N
  N19      1.0000 0.93000  0.00800  0.91600  Biso   1.000  N
  N20      1.0000 0.57000  0.99200  0.41600  Biso   1.000  N
  O69      1.0000 0.64900  0.42200  0.08100  Biso   1.000  O
  O70      1.0000 0.85100  0.57800  0.58100  Biso   1.000  O
  O71      1.0000 0.14900  0.07800  0.91900  Biso   1.000  O
  O72      1.0000 0.35100  0.92200  0.41900  Biso   1.000  O
  N21      1.0000 0.50300  0.60000  0.09200  Biso   1.000  N
  N22      1.0000 0.99700  0.40000  0.59200  Biso   1.000  N
  N23      1.0000 0.00300  0.90000  0.90800  Biso   1.000  N
  N24      1.0000 0.49700  0.10000  0.40800  Biso   1.000  N
  O73      1.0000 0.78000  0.56700  0.08400  Biso   1.000  O
  O74      1.0000 0.72000  0.43300  0.58400  Biso   1.000  O
  O75      1.0000 0.28000  0.93300  0.91600  Biso   1.000  O
  O76      1.0000 0.22000  0.06700  0.41600  Biso   1.000  O
  C89      1.0000 0.52900  0.39400  0.09000  Biso   1.000  C
  C90      1.0000 0.97100  0.60600  0.59000  Biso   1.000  C
  C91      1.0000 0.02900  0.10600  0.91000  Biso   1.000  C
  C92      1.0000 0.47100  0.89400  0.41000  Biso   1.000  C
  C93      1.0000 0.39500  0.42100  0.09200  Biso   1.000  C
  C94      1.0000 0.10500  0.57900  0.59200  Biso   1.000  C
  C95      1.0000 0.89500  0.07900  0.90800  Biso   1.000  C
  C96      1.0000 0.60500  0.92100  0.40800  Biso   1.000  C
  O77      1.0000 0.31100  0.38700  0.10300  Biso   1.000  O
  O78      1.0000 0.18900  0.61300  0.60300  Biso   1.000  O
  O79      1.0000 0.81100  0.11300  0.89700  Biso   1.000  O
  O80      1.0000 0.68900  0.88700  0.39700  Biso   1.000  O
  O81      1.0000 0.54800  0.32400  0.08900  Biso   1.000  O
  O82      1.0000 0.95200  0.67600  0.58900  Biso   1.000  O
  O83      1.0000 0.04800  0.17600  0.91100  Biso   1.000  O
  O84      1.0000 0.45200  0.82400  0.41100  Biso   1.000  O
  C97      1.0000 0.31300  0.52200  0.09500  Biso   1.000  C
  C98      1.0000 0.18700  0.47800  0.59500  Biso   1.000  C
  C99      1.0000 0.81300  0.97800  0.90500  Biso   1.000  C
  C100     1.0000 0.68700  0.02200  0.40500  Biso   1.000  C
  C101     1.0000 0.17500  0.51100  0.09700  Biso   1.000  C
  C102     1.0000 0.32500  0.48900  0.59700  Biso   1.000  C
  C103     1.0000 0.67500  0.98900  0.90300  Biso   1.000  C
  C104     1.0000 0.82500  0.01100  0.40300  Biso   1.000  C
  C105     1.0000 0.08400  0.56100  0.09400  Biso   1.000  C
  C106     1.0000 0.41600  0.43900  0.59400  Biso   1.000  C
  C107     1.0000 0.58400  0.93900  0.90600  Biso   1.000  C
  C108     1.0000 0.91600  0.06100  0.40600  Biso   1.000  C
  C109     1.0000 0.13100  0.62400  0.09800  Biso   1.000  C
  C110     1.0000 0.36900  0.37600  0.59800  Biso   1.000  C
  C111     1.0000 0.63100  0.87600  0.90200  Biso   1.000  C
  C112     1.0000 0.86900  0.12400  0.40200  Biso   1.000  C
  C113     1.0000 0.27000  0.63600  0.09500  Biso   1.000  C
  C114     1.0000 0.23000  0.36400  0.59500  Biso   1.000  C
  C115     1.0000 0.77000  0.86400  0.90500  Biso   1.000  C
  C116     1.0000 0.73000  0.13600  0.40500  Biso   1.000  C
  C117     1.0000 0.36000  0.58500  0.09100  Biso   1.000  C
  C118     1.0000 0.14000  0.41500  0.59100  Biso   1.000  C
  C119     1.0000 0.86000  0.91500  0.90900  Biso   1.000  C
  C120     1.0000 0.64000  0.08500  0.40900  Biso   1.000  C
