data_image0
_cell_length_a       5.442
_cell_length_b       20.57
_cell_length_c       8.529
_cell_angle_alpha    90
_cell_angle_beta     93.18
_cell_angle_gamma    90

_symmetry_space_group_name_H-M    "P 1"
_symmetry_int_tables_number       1

loop_
  _symmetry_equiv_pos_as_xyz
  'x, y, z'

loop_
  _atom_site_label
  _atom_site_occupancy
  _atom_site_fract_x
  _atom_site_fract_y
  _atom_site_fract_z
  _atom_site_thermal_displace_type
  _atom_site_B_iso_or_equiv
  _atom_site_type_symbol
  Cu1      1.0000 0.00000  0.50000  0.50000  Biso   1.000  Cu
  Cu2      1.0000 0.50000  0.00000  0.00000  Biso   1.000  Cu
  Cu3      1.0000 0.50896  0.48424  0.67286  Biso   1.000  Cu
  Cu4      1.0000 0.99104  0.98424  0.82714  Biso   1.000  Cu
  Cu5      1.0000 0.49104  0.51576  0.32714  Biso   1.000  Cu
  Cu6      1.0000 0.00896  0.01576  0.17286  Biso   1.000  Cu
  Cu7      1.0000 0.36006  0.56308  0.99035  Biso   1.000  Cu
  Cu8      1.0000 0.13994  0.06308  0.50965  Biso   1.000  Cu
  Cu9      1.0000 0.63994  0.43692  0.00965  Biso   1.000  Cu
  Cu10     1.0000 0.86006  0.93692  0.49035  Biso   1.000  Cu
  P1       1.0000 0.93280  0.59710  0.20990  Biso   1.000  P
  P2       1.0000 0.56720  0.09710  0.29010  Biso   1.000  P
  P3       1.0000 0.06720  0.40290  0.79010  Biso   1.000  P
  P4       1.0000 0.43280  0.90290  0.70990  Biso   1.000  P
  S1       1.0000 0.70590  0.36010  0.29310  Biso   1.000  S
  S2       1.0000 0.79410  0.86010  0.20690  Biso   1.000  S
  S3       1.0000 0.29410  0.63990  0.70690  Biso   1.000  S
  S4       1.0000 0.20590  0.13990  0.79310  Biso   1.000  S
  O1       1.0000 0.67750  0.53990  0.52400  Biso   1.000  O
  O2       1.0000 0.82250  0.03990  0.97600  Biso   1.000  O
  O3       1.0000 0.32250  0.46010  0.47600  Biso   1.000  O
  O4       1.0000 0.17750  0.96010  0.02400  Biso   1.000  O
  O5       1.0000 0.08500  0.55710  0.32950  Biso   1.000  O
  O6       1.0000 0.41500  0.05710  0.17050  Biso   1.000  O
  O7       1.0000 0.91500  0.44290  0.67050  Biso   1.000  O
  O8       1.0000 0.58500  0.94290  0.82950  Biso   1.000  O
  O9       1.0000 0.62960  0.51790  0.88370  Biso   1.000  O
  O10      1.0000 0.87040  0.01790  0.61630  Biso   1.000  O
  O11      1.0000 0.37040  0.48210  0.11630  Biso   1.000  O
  O12      1.0000 0.12960  0.98210  0.38370  Biso   1.000  O
  O13      1.0000 0.03510  0.59090  0.04770  Biso   1.000  O
  O14      1.0000 0.46490  0.09090  0.45230  Biso   1.000  O
  O15      1.0000 0.96490  0.40910  0.95230  Biso   1.000  O
  O16      1.0000 0.53510  0.90910  0.54770  Biso   1.000  O
  O17      1.0000 0.90850  0.31350  0.31680  Biso   1.000  O
  O18      1.0000 0.59150  0.81350  0.18320  Biso   1.000  O
  O19      1.0000 0.09150  0.68650  0.68320  Biso   1.000  O
  O20      1.0000 0.40850  0.18650  0.81680  Biso   1.000  O
  O21      1.0000 0.65740  0.58020  0.20330  Biso   1.000  O
  O22      1.0000 0.84260  0.08020  0.29670  Biso   1.000  O
  O23      1.0000 0.34260  0.41980  0.79670  Biso   1.000  O
  O24      1.0000 0.15740  0.91980  0.70330  Biso   1.000  O
  O25      1.0000 0.51090  0.34300  0.39880  Biso   1.000  O
  O26      1.0000 0.98910  0.84300  0.10120  Biso   1.000  O
  O27      1.0000 0.48910  0.65700  0.60120  Biso   1.000  O
  O28      1.0000 0.01090  0.15700  0.89880  Biso   1.000  O
  O29      1.0000 0.59860  0.35430  0.12520  Biso   1.000  O
  O30      1.0000 0.90140  0.85430  0.37480  Biso   1.000  O
  O31      1.0000 0.40140  0.64570  0.87480  Biso   1.000  O
  O32      1.0000 0.09860  0.14570  0.62520  Biso   1.000  O
  O33      1.0000 0.78950  0.42750  0.31330  Biso   1.000  O
  O34      1.0000 0.71050  0.92750  0.18670  Biso   1.000  O
  O35      1.0000 0.21050  0.57250  0.68670  Biso   1.000  O
  O36      1.0000 0.28950  0.07250  0.81330  Biso   1.000  O
  N1       1.0000 0.27860  0.75840  0.37980  Biso   1.000  N
  N2       1.0000 0.22140  0.25840  0.12020  Biso   1.000  N
  N3       1.0000 0.72140  0.24160  0.62020  Biso   1.000  N
  N4       1.0000 0.77860  0.74160  0.87980  Biso   1.000  N
  C1       1.0000 0.96000  0.67940  0.27740  Biso   1.000  C
  C2       1.0000 0.54000  0.17940  0.22260  Biso   1.000  C
  C3       1.0000 0.04000  0.32060  0.72260  Biso   1.000  C
  C4       1.0000 0.46000  0.82060  0.77740  Biso   1.000  C
  C5       1.0000 0.22000  0.70610  0.26270  Biso   1.000  C
  C6       1.0000 0.28000  0.20610  0.23730  Biso   1.000  C
  C7       1.0000 0.78000  0.29390  0.73730  Biso   1.000  C
  C8       1.0000 0.72000  0.79390  0.76270  Biso   1.000  C
  H1       1.0000 0.67000  0.57000  0.53500  Biso   1.000  H
  H2       1.0000 0.83000  0.07000  0.96500  Biso   1.000  H
  H3       1.0000 0.33000  0.43000  0.46500  Biso   1.000  H
  H4       1.0000 0.17000  0.93000  0.03500  Biso   1.000  H
  H5       1.0000 0.72000  0.53300  0.89500  Biso   1.000  H
  H6       1.0000 0.78000  0.03300  0.60500  Biso   1.000  H
  H7       1.0000 0.28000  0.46700  0.10500  Biso   1.000  H
  H8       1.0000 0.22000  0.96700  0.39500  Biso   1.000  H
  H9       1.0000 0.32000  0.74000  0.47200  Biso   1.000  H
  H10      1.0000 0.18000  0.24000  0.02800  Biso   1.000  H
  H11      1.0000 0.68000  0.26000  0.52800  Biso   1.000  H
  H12      1.0000 0.82000  0.76000  0.97200  Biso   1.000  H
  H13      1.0000 0.41000  0.77800  0.34700  Biso   1.000  H
  H14      1.0000 0.09000  0.27800  0.15300  Biso   1.000  H
  H15      1.0000 0.59000  0.22200  0.65300  Biso   1.000  H
  H16      1.0000 0.91000  0.72200  0.84700  Biso   1.000  H
  H17      1.0000 0.16000  0.78300  0.39000  Biso   1.000  H
  H18      1.0000 0.34000  0.28300  0.11000  Biso   1.000  H
  H19      1.0000 0.84000  0.21700  0.61000  Biso   1.000  H
  H20      1.0000 0.66000  0.71700  0.89000  Biso   1.000  H
  H21      1.0000 0.86000  0.70100  0.22200  Biso   1.000  H
  H22      1.0000 0.64000  0.20100  0.27800  Biso   1.000  H
  H23      1.0000 0.14000  0.29900  0.77800  Biso   1.000  H
  H24      1.0000 0.36000  0.79900  0.72200  Biso   1.000  H
  H25      1.0000 0.92000  0.67400  0.38100  Biso   1.000  H
  H26      1.0000 0.58000  0.17400  0.11900  Biso   1.000  H
  H27      1.0000 0.08000  0.32600  0.61900  Biso   1.000  H
  H28      1.0000 0.42000  0.82600  0.88100  Biso   1.000  H
  H29      1.0000 0.24000  0.71900  0.16400  Biso   1.000  H
  H30      1.0000 0.26000  0.21900  0.33600  Biso   1.000  H
  H31      1.0000 0.76000  0.28100  0.83600  Biso   1.000  H
  H32      1.0000 0.74000  0.78100  0.66400  Biso   1.000  H
  H33      1.0000 0.34000  0.67000  0.29000  Biso   1.000  H
  H34      1.0000 0.16000  0.17000  0.21000  Biso   1.000  H
  H35      1.0000 0.66000  0.33000  0.71000  Biso   1.000  H
  H36      1.0000 0.84000  0.83000  0.79000  Biso   1.000  H
