data_image0
_cell_length_a       10.486
_cell_length_b       10.8132
_cell_length_c       10.8268
_cell_angle_alpha    90.123
_cell_angle_beta     99.936
_cell_angle_gamma    101.413

_symmetry_space_group_name_H-M    "P 1"
_symmetry_int_tables_number       1

loop_
  _symmetry_equiv_pos_as_xyz
  'x, y, z'

loop_
  _atom_site_label
  _atom_site_occupancy
  _atom_site_fract_x
  _atom_site_fract_y
  _atom_site_fract_z
  _atom_site_thermal_displace_type
  _atom_site_B_iso_or_equiv
  _atom_site_type_symbol
  Cu1      1.0000 0.37057  0.47374  0.48010  Biso   1.000  Cu
  Cu2      1.0000 0.62943  0.52626  0.51990  Biso   1.000  Cu
  O1       1.0000 0.37766  0.65667  0.47372  Biso   1.000  O
  O2       1.0000 0.62234  0.34333  0.52628  Biso   1.000  O
  O3       1.0000 0.59870  0.69844  0.50830  Biso   1.000  O
  O4       1.0000 0.40130  0.30156  0.49170  Biso   1.000  O
  O5       1.0000 0.16850  0.86030  0.33360  Biso   1.000  O
  O6       1.0000 0.83150  0.13970  0.66640  Biso   1.000  O
  O7       1.0000 0.31270  0.78850  0.24040  Biso   1.000  O
  O8       1.0000 0.68730  0.21150  0.75960  Biso   1.000  O
  H1       1.0000 0.24620  0.75680  0.19010  Biso   1.000  H
  H2       1.0000 0.75380  0.24320  0.80990  Biso   1.000  H
  C1       1.0000 0.48790  0.73000  0.49000  Biso   1.000  C
  C2       1.0000 0.51210  0.27000  0.51000  Biso   1.000  C
  C3       1.0000 0.49130  0.86950  0.49070  Biso   1.000  C
  C4       1.0000 0.50870  0.13050  0.50930  Biso   1.000  C
  C5       1.0000 0.59480  0.94610  0.57120  Biso   1.000  C
  C6       1.0000 0.40520  0.05390  0.42880  Biso   1.000  C
  H3       1.0000 0.65900  0.90960  0.61930  Biso   1.000  H
  H4       1.0000 0.34100  0.09040  0.38070  Biso   1.000  H
  C7       1.0000 0.39550  0.92390  0.41890  Biso   1.000  C
  C8       1.0000 0.60450  0.07610  0.58110  Biso   1.000  C
  C9       1.0000 0.27980  0.85320  0.32760  Biso   1.000  C
  C10      1.0000 0.72020  0.14680  0.67240  Biso   1.000  C
  O9       1.0000 0.60710  0.51350  0.33648  Biso   1.000  O
  O10      1.0000 0.39290  0.48650  0.66352  Biso   1.000  O
  O11      1.0000 0.38610  0.47140  0.30162  Biso   1.000  O
  O12      1.0000 0.61390  0.52860  0.69838  Biso   1.000  O
  C11      1.0000 0.49630  0.48870  0.26700  Biso   1.000  C
  C12      1.0000 0.50370  0.51130  0.73300  Biso   1.000  C
  C13      1.0000 0.49550  0.48940  0.12800  Biso   1.000  C
  C14      1.0000 0.50450  0.51060  0.87200  Biso   1.000  C
  C15      1.0000 0.46440  0.59340  0.06490  Biso   1.000  C
  C16      1.0000 0.53560  0.40660  0.93510  Biso   1.000  C
  H5       1.0000 0.44000  0.65660  0.10850  Biso   1.000  H
  H6       1.0000 0.56000  0.34340  0.89150  Biso   1.000  H
  C17      1.0000 0.53120  0.39400  0.06230  Biso   1.000  C
  C18      1.0000 0.46880  0.60600  0.93770  Biso   1.000  C
  C19      1.0000 0.55850  0.27700  0.12430  Biso   1.000  C
  C20      1.0000 0.44150  0.72300  0.87570  Biso   1.000  C
  O13      1.0000 0.61970  0.21250  0.06440  Biso   1.000  O
  O14      1.0000 0.38030  0.78750  0.93560  Biso   1.000  O
  H7       1.0000 0.64080  0.15530  0.10780  Biso   1.000  H
  H8       1.0000 0.35920  0.84470  0.89220  Biso   1.000  H
  O15      1.0000 0.52870  0.24760  0.22390  Biso   1.000  O
  O16      1.0000 0.47130  0.75240  0.77610  Biso   1.000  O
  O17      1.0000 0.16140  0.41700  0.44720  Biso   1.000  O
  O18      1.0000 0.83860  0.58300  0.55280  Biso   1.000  O
  C21      1.0000 0.09330  0.47140  0.37080  Biso   1.000  C
  C22      1.0000 0.90670  0.52860  0.62920  Biso   1.000  C
  H9       1.0000 0.13480  0.54580  0.33950  Biso   1.000  H
  H10      1.0000 0.86520  0.45420  0.66050  Biso   1.000  H
  N1       1.0000 0.96580  0.43240  0.33000  Biso   1.000  N
  N2       1.0000 0.03420  0.56760  0.67000  Biso   1.000  N
  C23      1.0000 0.89250  0.49840  0.23610  Biso   1.000  C
  C24      1.0000 0.10750  0.50160  0.76390  Biso   1.000  C
  H11      1.0000 0.95070  0.57110  0.21240  Biso   1.000  H
  H12      1.0000 0.04930  0.42890  0.78760  Biso   1.000  H
  H13      1.0000 0.82280  0.52470  0.26980  Biso   1.000  H
  H14      1.0000 0.17720  0.47530  0.73020  Biso   1.000  H
  H15      1.0000 0.85520  0.44320  0.16390  Biso   1.000  H
  H16      1.0000 0.14480  0.55680  0.83610  Biso   1.000  H
  C25      1.0000 0.89360  0.31880  0.37520  Biso   1.000  C
  C26      1.0000 0.10640  0.68120  0.62480  Biso   1.000  C
  H17      1.0000 0.87070  0.25390  0.30990  Biso   1.000  H
  H18      1.0000 0.12930  0.74610  0.69010  Biso   1.000  H
  H19      1.0000 0.81450  0.33550  0.39910  Biso   1.000  H
  H20      1.0000 0.18550  0.66450  0.60090  Biso   1.000  H
  H21      1.0000 0.94760  0.29140  0.44650  Biso   1.000  H
  H22      1.0000 0.05240  0.70860  0.55350  Biso   1.000  H
  O19      1.0000 0.10140  0.69920  0.07050  Biso   1.000  O
  O20      1.0000 0.89860  0.30080  0.92950  Biso   1.000  O
  N3       1.0000 0.95610  0.76470  0.91710  Biso   1.000  N
  N4       1.0000 0.04390  0.23530  0.08290  Biso   1.000  N
  C27      1.0000 0.92380  0.85970  0.83270  Biso   1.000  C
  C28      1.0000 0.07620  0.14030  0.16730  Biso   1.000  C
  H23      1.0000 0.98950  0.93580  0.85210  Biso   1.000  H
  H24      1.0000 0.01050  0.06420  0.14790  Biso   1.000  H
  H25      1.0000 0.83890  0.87600  0.84120  Biso   1.000  H
  H26      1.0000 0.16110  0.12400  0.15880  Biso   1.000  H
  H27      1.0000 0.92110  0.83110  0.74810  Biso   1.000  H
  H28      1.0000 0.07890  0.16890  0.25190  Biso   1.000  H
  C29      1.0000 0.06960  0.77800  0.99470  Biso   1.000  C
  C30      1.0000 0.93040  0.22200  0.00530  Biso   1.000  C
  H29      1.0000 0.13090  0.85260  0.99240  Biso   1.000  H
  H30      1.0000 0.86910  0.14740  0.00760  Biso   1.000  H
  C31      1.0000 0.85850  0.65110  0.91950  Biso   1.000  C
  C32      1.0000 0.14150  0.34890  0.08050  Biso   1.000  C
  H31      1.0000 0.90160  0.58070  0.93470  Biso   1.000  H
  H32      1.0000 0.09840  0.41930  0.06530  Biso   1.000  H
  H33      1.0000 0.79940  0.63760  0.84030  Biso   1.000  H
  H34      1.0000 0.20060  0.36240  0.15970  Biso   1.000  H
  H35      1.0000 0.80940  0.65910  0.98510  Biso   1.000  H
  H36      1.0000 0.19060  0.34090  0.01490  Biso   1.000  H
  O21      1.0000 0.66940  0.00400  0.15640  Biso   1.000  O
  O22      1.0000 0.33060  0.99600  0.84360  Biso   1.000  O
  C33      1.0000 0.71140  0.98810  0.26020  Biso   1.000  C
  C34      1.0000 0.28860  0.01190  0.73980  Biso   1.000  C
  H37      1.0000 0.69580  0.03840  0.32350  Biso   1.000  H
  H38      1.0000 0.30420  0.96160  0.67650  Biso   1.000  H
  N5       1.0000 0.78040  0.90090  0.28980  Biso   1.000  N
  N6       1.0000 0.21960  0.09910  0.71020  Biso   1.000  N
  C35      1.0000 0.78910  0.80590  0.20150  Biso   1.000  C
  C36      1.0000 0.21090  0.19410  0.79850  Biso   1.000  C
  H39      1.0000 0.87740  0.81920  0.18410  Biso   1.000  H
  H40      1.0000 0.12260  0.18080  0.81590  Biso   1.000  H
  H41      1.0000 0.72830  0.81030  0.12520  Biso   1.000  H
  H42      1.0000 0.27170  0.18970  0.87480  Biso   1.000  H
  H43      1.0000 0.76740  0.72420  0.23590  Biso   1.000  H
  H44      1.0000 0.23260  0.27580  0.76410  Biso   1.000  H
  C37      1.0000 0.85010  0.89590  0.41390  Biso   1.000  C
  C38      1.0000 0.14990  0.10410  0.58610  Biso   1.000  C
  H45      1.0000 0.84690  0.96960  0.46200  Biso   1.000  H
  H46      1.0000 0.15310  0.03040  0.53800  Biso   1.000  H
  H47      1.0000 0.94050  0.89290  0.41120  Biso   1.000  H
  H48      1.0000 0.05950  0.10710  0.58880  Biso   1.000  H
  H49      1.0000 0.81010  0.82170  0.45240  Biso   1.000  H
  H50      1.0000 0.18990  0.17830  0.54760  Biso   1.000  H
