data_image0
_cell_length_a       6.681
_cell_length_b       7.182
_cell_length_c       9.648
_cell_angle_alpha    104.74
_cell_angle_beta     84.74
_cell_angle_gamma    91.45

_symmetry_space_group_name_H-M    "P 1"
_symmetry_int_tables_number       1

loop_
  _symmetry_equiv_pos_as_xyz
  'x, y, z'

loop_
  _atom_site_label
  _atom_site_occupancy
  _atom_site_fract_x
  _atom_site_fract_y
  _atom_site_fract_z
  _atom_site_thermal_displace_type
  _atom_site_B_iso_or_equiv
  _atom_site_type_symbol
  Cu1      1.0000 0.00000  0.00000  0.00000  Biso   1.000  Cu
  C1       1.0000 0.37554  0.45419  0.38775  Biso   1.000  C
  C2       1.0000 0.62446  0.54581  0.61225  Biso   1.000  C
  C3       1.0000 0.75752  0.80200  0.20336  Biso   1.000  C
  C4       1.0000 0.24248  0.19800  0.79664  Biso   1.000  C
  C5       1.0000 0.10043  0.93860  0.28441  Biso   1.000  C
  C6       1.0000 0.89957  0.06140  0.71559  Biso   1.000  C
  C7       1.0000 0.69885  0.44055  0.47813  Biso   1.000  C
  C8       1.0000 0.30115  0.55945  0.52187  Biso   1.000  C
  C9       1.0000 0.57432  0.39474  0.36339  Biso   1.000  C
  C10      1.0000 0.42568  0.60526  0.63661  Biso   1.000  C
  C11      1.0000 0.65694  0.28251  0.21590  Biso   1.000  C
  C12      1.0000 0.34306  0.71749  0.78410  Biso   1.000  C
  C13      1.0000 0.94911  0.77221  0.27602  Biso   1.000  C
  C14      1.0000 0.05089  0.22779  0.72398  Biso   1.000  C
  N1       1.0000 0.80467  0.79727  0.05234  Biso   1.000  N
  N2       1.0000 0.19533  0.20273  0.94766  Biso   1.000  N
  N3       1.0000 0.18710  0.94834  0.14034  Biso   1.000  N
  N4       1.0000 0.81290  0.05166  0.85966  Biso   1.000  N
  O1       1.0000 0.84404  0.26956  0.19051  Biso   1.000  O
  O2       1.0000 0.15596  0.73044  0.80949  Biso   1.000  O
  O3       1.0000 0.04715  0.59914  0.19590  Biso   1.000  O
  O4       1.0000 0.95285  0.40086  0.80410  Biso   1.000  O
  O5       1.0000 0.53390  0.20663  0.12624  Biso   1.000  O
  O6       1.0000 0.46610  0.79337  0.87376  Biso   1.000  O
