data_image0
_cell_length_a       10.084
_cell_length_b       7.682
_cell_length_c       9.126
_cell_angle_alpha    90
_cell_angle_beta     116.43
_cell_angle_gamma    90

_symmetry_space_group_name_H-M    "P 1"
_symmetry_int_tables_number       1

loop_
  _symmetry_equiv_pos_as_xyz
  'x, y, z'

loop_
  _atom_site_label
  _atom_site_occupancy
  _atom_site_fract_x
  _atom_site_fract_y
  _atom_site_fract_z
  _atom_site_thermal_displace_type
  _atom_site_B_iso_or_equiv
  _atom_site_type_symbol
  Cu1      1.0000 0.00000  0.00000  0.00000  Biso   1.000  Cu
  Cu2      1.0000 0.50000  0.50000  0.50000  Biso   1.000  Cu
  S1       1.0000 0.18380  0.43300  0.77450  Biso   1.000  S
  S2       1.0000 0.31620  0.93300  0.72550  Biso   1.000  S
  S3       1.0000 0.81620  0.56700  0.22550  Biso   1.000  S
  S4       1.0000 0.68380  0.06700  0.27450  Biso   1.000  S
  C1       1.0000 0.13010  0.26300  0.84160  Biso   1.000  C
  C2       1.0000 0.36990  0.76300  0.65840  Biso   1.000  C
  C3       1.0000 0.86990  0.73700  0.15840  Biso   1.000  C
  C4       1.0000 0.63010  0.23700  0.34160  Biso   1.000  C
  N1       1.0000 0.09240  0.14360  0.88950  Biso   1.000  N
  N2       1.0000 0.40760  0.64360  0.61050  Biso   1.000  N
  N3       1.0000 0.90760  0.85640  0.11050  Biso   1.000  N
  N4       1.0000 0.59240  0.35640  0.38950  Biso   1.000  N
  N5       1.0000 0.33140  0.77820  0.07030  Biso   1.000  N
  N6       1.0000 0.16860  0.27820  0.42970  Biso   1.000  N
  N7       1.0000 0.66860  0.22180  0.92970  Biso   1.000  N
  N8       1.0000 0.83140  0.72180  0.57030  Biso   1.000  N
  N9       1.0000 0.21300  0.79680  0.10240  Biso   1.000  N
  N10      1.0000 0.28700  0.29680  0.39760  Biso   1.000  N
  N11      1.0000 0.78700  0.20320  0.89760  Biso   1.000  N
  N12      1.0000 0.71300  0.70320  0.60240  Biso   1.000  N
  C5       1.0000 0.25550  0.70910  0.23920  Biso   1.000  C
  C6       1.0000 0.24450  0.20910  0.26080  Biso   1.000  C
  C7       1.0000 0.74450  0.29090  0.76080  Biso   1.000  C
  C8       1.0000 0.75550  0.79090  0.73920  Biso   1.000  C
  N13      1.0000 0.39110  0.63720  0.29430  Biso   1.000  N
  N14      1.0000 0.10890  0.13720  0.20570  Biso   1.000  N
  N15      1.0000 0.60890  0.36280  0.70570  Biso   1.000  N
  N16      1.0000 0.89110  0.86280  0.79430  Biso   1.000  N
  C9       1.0000 0.43400  0.68320  0.18320  Biso   1.000  C
  C10      1.0000 0.06600  0.18320  0.31680  Biso   1.000  C
  C11      1.0000 0.56600  0.31680  0.81680  Biso   1.000  C
  C12      1.0000 0.93400  0.81680  0.68320  Biso   1.000  C
  H1       1.0000 0.33200  0.82800  0.98600  Biso   1.000  H
  H2       1.0000 0.16800  0.32800  0.51400  Biso   1.000  H
  H3       1.0000 0.66800  0.17200  0.01400  Biso   1.000  H
  H4       1.0000 0.83200  0.67200  0.48600  Biso   1.000  H
  H5       1.0000 0.19400  0.70200  0.29100  Biso   1.000  H
  H6       1.0000 0.30600  0.20200  0.20900  Biso   1.000  H
  H7       1.0000 0.80600  0.29800  0.70900  Biso   1.000  H
  H8       1.0000 0.69400  0.79800  0.79100  Biso   1.000  H
  H9       1.0000 0.52100  0.65500  0.18000  Biso   1.000  H
  H10      1.0000 0.97900  0.15500  0.32000  Biso   1.000  H
  H11      1.0000 0.47900  0.34500  0.82000  Biso   1.000  H
  H12      1.0000 0.02100  0.84500  0.68000  Biso   1.000  H
