data_image0
_cell_length_a       9.2293
_cell_length_b       25.483
_cell_length_c       7.7754
_cell_angle_alpha    90
_cell_angle_beta     97.29
_cell_angle_gamma    90

_symmetry_space_group_name_H-M    "P 1"
_symmetry_int_tables_number       1

loop_
  _symmetry_equiv_pos_as_xyz
  'x, y, z'

loop_
  _atom_site_label
  _atom_site_occupancy
  _atom_site_fract_x
  _atom_site_fract_y
  _atom_site_fract_z
  _atom_site_thermal_displace_type
  _atom_site_B_iso_or_equiv
  _atom_site_type_symbol
  H1       1.0000 0.44500  0.60480  0.73100  Biso   1.000  H
  H2       1.0000 0.55500  0.10480  0.76900  Biso   1.000  H
  H3       1.0000 0.55500  0.39520  0.26900  Biso   1.000  H
  H4       1.0000 0.44500  0.89520  0.23100  Biso   1.000  H
  H5       1.0000 0.53600  0.56840  0.67000  Biso   1.000  H
  H6       1.0000 0.46400  0.06840  0.83000  Biso   1.000  H
  H7       1.0000 0.46400  0.43160  0.33000  Biso   1.000  H
  H8       1.0000 0.53600  0.93160  0.17000  Biso   1.000  H
  H9       1.0000 0.51300  0.53950  0.32800  Biso   1.000  H
  H10      1.0000 0.48700  0.03950  0.17200  Biso   1.000  H
  H11      1.0000 0.48700  0.46050  0.67200  Biso   1.000  H
  H12      1.0000 0.51300  0.96050  0.82800  Biso   1.000  H
  H13      1.0000 0.64950  0.56000  0.34300  Biso   1.000  H
  H14      1.0000 0.35050  0.06000  0.15700  Biso   1.000  H
  H15      1.0000 0.35050  0.44000  0.65700  Biso   1.000  H
  H16      1.0000 0.64950  0.94000  0.84300  Biso   1.000  H
  H17      1.0000 0.66000  0.68280  0.11500  Biso   1.000  H
  H18      1.0000 0.34000  0.18280  0.38500  Biso   1.000  H
  H19      1.0000 0.34000  0.31720  0.88500  Biso   1.000  H
  H20      1.0000 0.66000  0.81720  0.61500  Biso   1.000  H
  H21      1.0000 0.53700  0.65100  0.08500  Biso   1.000  H
  H22      1.0000 0.46300  0.15100  0.41500  Biso   1.000  H
  H23      1.0000 0.46300  0.34900  0.91500  Biso   1.000  H
  H24      1.0000 0.53700  0.84900  0.58500  Biso   1.000  H
  Tb1      1.0000 0.48762  0.65072  0.41238  Biso   1.000  Tb
  Tb2      1.0000 0.51238  0.15071  0.08762  Biso   1.000  Tb
  Tb3      1.0000 0.51238  0.34928  0.58762  Biso   1.000  Tb
  Tb4      1.0000 0.48762  0.84928  0.91238  Biso   1.000  Tb
  Cu1      1.0000 0.00000  0.50000  0.50000  Biso   1.000  Cu
  Cu2      1.0000 0.00000  0.00000  0.00000  Biso   1.000  Cu
  O1       1.0000 0.51100  0.70675  0.66310  Biso   1.000  O
  O2       1.0000 0.48900  0.20675  0.83690  Biso   1.000  O
  O3       1.0000 0.48900  0.29325  0.33690  Biso   1.000  O
  O4       1.0000 0.51100  0.79325  0.16310  Biso   1.000  O
  O5       1.0000 0.40950  0.76617  0.81990  Biso   1.000  O
  O6       1.0000 0.59050  0.26617  0.68010  Biso   1.000  O
  O7       1.0000 0.59050  0.23383  0.18010  Biso   1.000  O
  O8       1.0000 0.40950  0.73383  0.31990  Biso   1.000  O
  O9       1.0000 0.73560  0.65659  0.50670  Biso   1.000  O
  O10      1.0000 0.26440  0.15659  0.99330  Biso   1.000  O
  O11      1.0000 0.26440  0.34341  0.49330  Biso   1.000  O
  O12      1.0000 0.73560  0.84341  0.00670  Biso   1.000  O
  O13      1.0000 0.60270  0.66331  0.15430  Biso   1.000  O
  O14      1.0000 0.39730  0.16331  0.34570  Biso   1.000  O
  O15      1.0000 0.39730  0.33669  0.84570  Biso   1.000  O
  O16      1.0000 0.60270  0.83669  0.65430  Biso   1.000  O
  O17      1.0000 0.56170  0.56624  0.32690  Biso   1.000  O
  O18      1.0000 0.43830  0.06624  0.17310  Biso   1.000  O
  O19      1.0000 0.43830  0.43376  0.67310  Biso   1.000  O
  O20      1.0000 0.56170  0.93376  0.82690  Biso   1.000  O
  O21      1.0000 0.29600  0.62355  0.20030  Biso   1.000  O
  O22      1.0000 0.70400  0.12355  0.29970  Biso   1.000  O
  O23      1.0000 0.70400  0.37645  0.79970  Biso   1.000  O
  O24      1.0000 0.29600  0.87645  0.70030  Biso   1.000  O
  O25      1.0000 0.47790  0.59222  0.64720  Biso   1.000  O
  O26      1.0000 0.52210  0.09222  0.85280  Biso   1.000  O
  O27      1.0000 0.52210  0.40778  0.35280  Biso   1.000  O
  O28      1.0000 0.47790  0.90778  0.14720  Biso   1.000  O
  O29      1.0000 0.85750  0.58879  0.41020  Biso   1.000  O
  O30      1.0000 0.14250  0.08879  0.08980  Biso   1.000  O
  O31      1.0000 0.14250  0.41121  0.58980  Biso   1.000  O
  O32      1.0000 0.85750  0.91121  0.91020  Biso   1.000  O
  O33      1.0000 0.80860  0.48357  0.56500  Biso   1.000  O
  O34      1.0000 0.19140  0.98357  0.93500  Biso   1.000  O
  O35      1.0000 0.19140  0.51643  0.43500  Biso   1.000  O
  O36      1.0000 0.80860  0.01643  0.06500  Biso   1.000  O
  O37      1.0000 0.65700  0.50849  0.75210  Biso   1.000  O
  O38      1.0000 0.34300  0.00849  0.74790  Biso   1.000  O
  O39      1.0000 0.34300  0.49151  0.24790  Biso   1.000  O
  O40      1.0000 0.65700  0.99151  0.25210  Biso   1.000  O
  O41      1.0000 0.25370  0.27323  0.06270  Biso   1.000  O
  O42      1.0000 0.74630  0.77323  0.43730  Biso   1.000  O
  O43      1.0000 0.74630  0.72677  0.93730  Biso   1.000  O
  O44      1.0000 0.25370  0.22677  0.56270  Biso   1.000  O
  O45      1.0000 0.38670  0.61779  0.94860  Biso   1.000  O
  O46      1.0000 0.61330  0.11779  0.55140  Biso   1.000  O
  O47      1.0000 0.61330  0.38221  0.05140  Biso   1.000  O
  O48      1.0000 0.38670  0.88221  0.44860  Biso   1.000  O
  N1       1.0000 0.25030  0.66663  0.54370  Biso   1.000  N
  N2       1.0000 0.74970  0.16663  0.95630  Biso   1.000  N
  N3       1.0000 0.74970  0.33337  0.45630  Biso   1.000  N
  N4       1.0000 0.25030  0.83337  0.04370  Biso   1.000  N
  N5       1.0000 0.02980  0.53338  0.73000  Biso   1.000  N
  N6       1.0000 0.97020  0.03338  0.77000  Biso   1.000  N
  N7       1.0000 0.97020  0.46662  0.27000  Biso   1.000  N
  N8       1.0000 0.02980  0.96662  0.23000  Biso   1.000  N
  C1       1.0000 0.12180  0.64364  0.49240  Biso   1.000  C
  C2       1.0000 0.87820  0.14364  0.00760  Biso   1.000  C
  C3       1.0000 0.87820  0.35636  0.50760  Biso   1.000  C
  C4       1.0000 0.12180  0.85636  0.99240  Biso   1.000  C
  H25      1.0000 0.11890  0.61610  0.41350  Biso   1.000  H
  H26      1.0000 0.88110  0.11610  0.08650  Biso   1.000  H
  H27      1.0000 0.88110  0.38390  0.58650  Biso   1.000  H
  H28      1.0000 0.11890  0.88390  0.91350  Biso   1.000  H
  C5       1.0000 0.99250  0.65892  0.55140  Biso   1.000  C
  C6       1.0000 0.00750  0.15892  0.94860  Biso   1.000  C
  C7       1.0000 0.00750  0.34108  0.44860  Biso   1.000  C
  C8       1.0000 0.99250  0.84108  0.05140  Biso   1.000  C
  C9       1.0000 0.99740  0.69927  0.67070  Biso   1.000  C
  C10      1.0000 0.00260  0.19927  0.82930  Biso   1.000  C
  C11      1.0000 0.00260  0.30073  0.32930  Biso   1.000  C
  C12      1.0000 0.99740  0.80073  0.17070  Biso   1.000  C
  H29      1.0000 0.91250  0.71060  0.71220  Biso   1.000  H
  H30      1.0000 0.08750  0.21060  0.78780  Biso   1.000  H
  H31      1.0000 0.08750  0.28940  0.28780  Biso   1.000  H
  H32      1.0000 0.91250  0.78940  0.21220  Biso   1.000  H
  C13      1.0000 0.13100  0.72277  0.72780  Biso   1.000  C
  C14      1.0000 0.86900  0.22277  0.77220  Biso   1.000  C
  C15      1.0000 0.86900  0.27723  0.27220  Biso   1.000  C
  C16      1.0000 0.13100  0.77723  0.22780  Biso   1.000  C
  H33      1.0000 0.13730  0.74950  0.80990  Biso   1.000  H
  H34      1.0000 0.86270  0.24950  0.69010  Biso   1.000  H
  H35      1.0000 0.86270  0.25050  0.19010  Biso   1.000  H
  H36      1.0000 0.13730  0.75050  0.30990  Biso   1.000  H
  C17      1.0000 0.25410  0.70553  0.65990  Biso   1.000  C
  C18      1.0000 0.74590  0.20553  0.84010  Biso   1.000  C
  C19      1.0000 0.74590  0.29447  0.34010  Biso   1.000  C
  C20      1.0000 0.25410  0.79447  0.15990  Biso   1.000  C
  C21      1.0000 0.85160  0.63183  0.48280  Biso   1.000  C
  C22      1.0000 0.14840  0.13183  0.01720  Biso   1.000  C
  C23      1.0000 0.14840  0.36817  0.51720  Biso   1.000  C
  C24      1.0000 0.85160  0.86817  0.98280  Biso   1.000  C
  C25      1.0000 0.14960  0.55705  0.80820  Biso   1.000  C
  C26      1.0000 0.85040  0.05705  0.69180  Biso   1.000  C
  C27      1.0000 0.85040  0.44295  0.19180  Biso   1.000  C
  C28      1.0000 0.14960  0.94295  0.30820  Biso   1.000  C
  H37      1.0000 0.23600  0.55450  0.75890  Biso   1.000  H
  H38      1.0000 0.76400  0.05450  0.74110  Biso   1.000  H
  H39      1.0000 0.76400  0.44550  0.24110  Biso   1.000  H
  H40      1.0000 0.23600  0.94550  0.25890  Biso   1.000  H
  C29      1.0000 0.14920  0.58525  0.95990  Biso   1.000  C
  C30      1.0000 0.85080  0.08525  0.54010  Biso   1.000  C
  C31      1.0000 0.85080  0.41475  0.04010  Biso   1.000  C
  C32      1.0000 0.14920  0.91475  0.45990  Biso   1.000  C
  C33      1.0000 0.28890  0.61074  0.04300  Biso   1.000  C
  C34      1.0000 0.71110  0.11074  0.45700  Biso   1.000  C
  C35      1.0000 0.71110  0.38926  0.95700  Biso   1.000  C
  C36      1.0000 0.28890  0.88926  0.54300  Biso   1.000  C
  C37      1.0000 0.01820  0.58950  0.03070  Biso   1.000  C
  C38      1.0000 0.98180  0.08950  0.46930  Biso   1.000  C
  C39      1.0000 0.98180  0.41050  0.96930  Biso   1.000  C
  C40      1.0000 0.01820  0.91050  0.53070  Biso   1.000  C
  H41      1.0000 0.01420  0.60860  0.13190  Biso   1.000  H
  H42      1.0000 0.98580  0.10860  0.36810  Biso   1.000  H
  H43      1.0000 0.98580  0.39140  0.86810  Biso   1.000  H
  H44      1.0000 0.01420  0.89140  0.63190  Biso   1.000  H
  C41      1.0000 0.89340  0.56492  0.94840  Biso   1.000  C
  C42      1.0000 0.10660  0.06492  0.55160  Biso   1.000  C
  C43      1.0000 0.10660  0.43508  0.05160  Biso   1.000  C
  C44      1.0000 0.89340  0.93508  0.44840  Biso   1.000  C
  H45      1.0000 0.80500  0.56740  0.99350  Biso   1.000  H
  H46      1.0000 0.19500  0.06740  0.50650  Biso   1.000  H
  H47      1.0000 0.19500  0.43260  0.00650  Biso   1.000  H
  H48      1.0000 0.80500  0.93260  0.49350  Biso   1.000  H
  C45      1.0000 0.90340  0.53698  0.79960  Biso   1.000  C
  C46      1.0000 0.09660  0.03698  0.70040  Biso   1.000  C
  C47      1.0000 0.09660  0.46302  0.20040  Biso   1.000  C
  C48      1.0000 0.90340  0.96302  0.29960  Biso   1.000  C
  C49      1.0000 0.77760  0.50760  0.69810  Biso   1.000  C
  C50      1.0000 0.22240  0.00760  0.80190  Biso   1.000  C
  C51      1.0000 0.22240  0.49240  0.30190  Biso   1.000  C
  C52      1.0000 0.77760  0.99240  0.19810  Biso   1.000  C
  C53      1.0000 0.40390  0.72844  0.71750  Biso   1.000  C
  C54      1.0000 0.59610  0.22844  0.78250  Biso   1.000  C
  C55      1.0000 0.59610  0.27156  0.28250  Biso   1.000  C
  C56      1.0000 0.40390  0.77156  0.21750  Biso   1.000  C
  H49      1.0000 0.24700  0.24000  0.05400  Biso   1.000  H
  H50      1.0000 0.75300  0.74000  0.44600  Biso   1.000  H
  H51      1.0000 0.75300  0.76000  0.94600  Biso   1.000  H
  H52      1.0000 0.24700  0.26000  0.55400  Biso   1.000  H
  H53      1.0000 0.33200  0.27700  0.16100  Biso   1.000  H
  H54      1.0000 0.66800  0.77700  0.33900  Biso   1.000  H
  H55      1.0000 0.66800  0.72300  0.83900  Biso   1.000  H
  H56      1.0000 0.33200  0.22300  0.66100  Biso   1.000  H
