data_image0
_cell_length_a       11.6856
_cell_length_b       11.2224
_cell_length_c       13.8171
_cell_angle_alpha    90
_cell_angle_beta     104.29
_cell_angle_gamma    90

_symmetry_space_group_name_H-M    "P 1"
_symmetry_int_tables_number       1

loop_
  _symmetry_equiv_pos_as_xyz
  'x, y, z'

loop_
  _atom_site_label
  _atom_site_occupancy
  _atom_site_fract_x
  _atom_site_fract_y
  _atom_site_fract_z
  _atom_site_thermal_displace_type
  _atom_site_B_iso_or_equiv
  _atom_site_type_symbol
  U1       1.0000 0.26061  0.44505  0.00322  Biso   1.000  U
  U2       1.0000 0.73939  0.94505  0.49678  Biso   1.000  U
  U3       1.0000 0.73939  0.55495  0.99678  Biso   1.000  U
  U4       1.0000 0.26061  0.05495  0.50322  Biso   1.000  U
  Cu1      1.0000 0.25402  0.32242  0.26295  Biso   1.000  Cu
  Cu2      1.0000 0.74598  0.82242  0.23705  Biso   1.000  Cu
  Cu3      1.0000 0.74598  0.67758  0.73705  Biso   1.000  Cu
  Cu4      1.0000 0.25402  0.17758  0.76295  Biso   1.000  Cu
  O1       1.0000 0.18570  0.36590  0.07996  Biso   1.000  O
  O2       1.0000 0.81430  0.86590  0.42004  Biso   1.000  O
  O3       1.0000 0.81430  0.63410  0.92004  Biso   1.000  O
  O4       1.0000 0.18570  0.13410  0.57996  Biso   1.000  O
  O5       1.0000 0.33540  0.52430  0.92733  Biso   1.000  O
  O6       1.0000 0.66460  0.02430  0.57267  Biso   1.000  O
  O7       1.0000 0.66460  0.47570  0.07267  Biso   1.000  O
  O8       1.0000 0.33540  0.97570  0.42733  Biso   1.000  O
  O9       1.0000 0.40100  0.50050  0.15090  Biso   1.000  O
  O10      1.0000 0.59900  0.00050  0.34910  Biso   1.000  O
  O11      1.0000 0.59900  0.49950  0.84910  Biso   1.000  O
  O12      1.0000 0.40100  0.99950  0.65090  Biso   1.000  O
  O13      1.0000 0.41970  0.36620  0.27491  Biso   1.000  O
  O14      1.0000 0.58030  0.86620  0.22509  Biso   1.000  O
  O15      1.0000 0.58030  0.63380  0.72509  Biso   1.000  O
  O16      1.0000 0.41970  0.13380  0.77491  Biso   1.000  O
  O17      1.0000 0.12000  0.38750  0.85782  Biso   1.000  O
  O18      1.0000 0.88000  0.88750  0.64218  Biso   1.000  O
  O19      1.0000 0.88000  0.61250  0.14218  Biso   1.000  O
  O20      1.0000 0.12000  0.11250  0.35782  Biso   1.000  O
  O21      1.0000 0.09200  0.22380  0.76184  Biso   1.000  O
  O22      1.0000 0.90800  0.72380  0.73816  Biso   1.000  O
  O23      1.0000 0.90800  0.77620  0.23816  Biso   1.000  O
  O24      1.0000 0.09200  0.27620  0.26184  Biso   1.000  O
  O25      1.0000 0.22700  0.64450  0.07711  Biso   1.000  O
  O26      1.0000 0.77300  0.14450  0.42289  Biso   1.000  O
  O27      1.0000 0.77300  0.35550  0.92289  Biso   1.000  O
  O28      1.0000 0.22700  0.85550  0.57711  Biso   1.000  O
  O29      1.0000 0.08700  0.58160  0.95542  Biso   1.000  O
  O30      1.0000 0.91300  0.08160  0.54458  Biso   1.000  O
  O31      1.0000 0.91300  0.41840  0.04458  Biso   1.000  O
  O32      1.0000 0.08700  0.91840  0.45542  Biso   1.000  O
  O33      1.0000 0.06820  0.75440  0.02350  Biso   1.000  O
  O34      1.0000 0.93180  0.25440  0.47650  Biso   1.000  O
  O35      1.0000 0.93180  0.24560  0.97650  Biso   1.000  O
  O36      1.0000 0.06820  0.74560  0.52350  Biso   1.000  O
  O37      1.0000 0.30570  0.24480  0.93394  Biso   1.000  O
  O38      1.0000 0.69430  0.74480  0.56606  Biso   1.000  O
  O39      1.0000 0.69430  0.75520  0.06606  Biso   1.000  O
  O40      1.0000 0.30570  0.25520  0.43394  Biso   1.000  O
  O41      1.0000 0.43660  0.30600  0.06156  Biso   1.000  O
  O42      1.0000 0.56340  0.80600  0.43844  Biso   1.000  O
  O43      1.0000 0.56340  0.69400  0.93844  Biso   1.000  O
  O44      1.0000 0.43660  0.19400  0.56156  Biso   1.000  O
  O45      1.0000 0.45540  0.13040  0.00070  Biso   1.000  O
  O46      1.0000 0.54460  0.63040  0.49930  Biso   1.000  O
  O47      1.0000 0.54460  0.86960  0.99930  Biso   1.000  O
  O48      1.0000 0.45540  0.36960  0.50070  Biso   1.000  O
  C1       1.0000 0.45740  0.45100  0.23070  Biso   1.000  C
  C2       1.0000 0.54260  0.95100  0.26930  Biso   1.000  C
  C3       1.0000 0.54260  0.54900  0.76930  Biso   1.000  C
  C4       1.0000 0.45740  0.04900  0.73070  Biso   1.000  C
  C5       1.0000 0.57780  0.49850  0.27830  Biso   1.000  C
  C6       1.0000 0.42220  0.99850  0.22170  Biso   1.000  C
  C7       1.0000 0.42220  0.50150  0.72170  Biso   1.000  C
  C8       1.0000 0.57780  0.00150  0.77830  Biso   1.000  C
  C9       1.0000 0.60760  0.60920  0.24640  Biso   1.000  C
  C10      1.0000 0.39240  0.10920  0.25360  Biso   1.000  C
  C11      1.0000 0.39240  0.39080  0.75360  Biso   1.000  C
  C12      1.0000 0.60760  0.89080  0.74640  Biso   1.000  C
  H1       1.0000 0.55330  0.64860  0.19610  Biso   1.000  H
  H2       1.0000 0.44670  0.14860  0.30390  Biso   1.000  H
  H3       1.0000 0.44670  0.35140  0.80390  Biso   1.000  H
  H4       1.0000 0.55330  0.85140  0.69610  Biso   1.000  H
  C13      1.0000 0.79080  0.60270  0.35940  Biso   1.000  C
  C14      1.0000 0.20920  0.10270  0.14060  Biso   1.000  C
  C15      1.0000 0.20920  0.39730  0.64060  Biso   1.000  C
  C16      1.0000 0.79080  0.89730  0.85940  Biso   1.000  C
  H5       1.0000 0.86330  0.63790  0.38770  Biso   1.000  H
  H6       1.0000 0.13670  0.13790  0.11230  Biso   1.000  H
  H7       1.0000 0.13670  0.36210  0.61230  Biso   1.000  H
  H8       1.0000 0.86330  0.86210  0.88770  Biso   1.000  H
  C17      1.0000 0.76620  0.49240  0.39340  Biso   1.000  C
  C18      1.0000 0.23380  0.99240  0.10660  Biso   1.000  C
  C19      1.0000 0.23380  0.50760  0.60660  Biso   1.000  C
  C20      1.0000 0.76620  0.00760  0.89340  Biso   1.000  C
  H9       1.0000 0.82190  0.45400  0.44340  Biso   1.000  H
  H10      1.0000 0.17810  0.95400  0.05660  Biso   1.000  H
  H11      1.0000 0.17810  0.54600  0.55660  Biso   1.000  H
  H12      1.0000 0.82190  0.04600  0.94340  Biso   1.000  H
  C21      1.0000 0.65900  0.43950  0.35300  Biso   1.000  C
  C22      1.0000 0.34100  0.93950  0.14700  Biso   1.000  C
  C23      1.0000 0.34100  0.56050  0.64700  Biso   1.000  C
  C24      1.0000 0.65900  0.06050  0.85300  Biso   1.000  C
  H13      1.0000 0.64120  0.36530  0.37550  Biso   1.000  H
  H14      1.0000 0.35880  0.86530  0.12450  Biso   1.000  H
  H15      1.0000 0.35880  0.63470  0.62450  Biso   1.000  H
  H16      1.0000 0.64120  0.13470  0.87550  Biso   1.000  H
  C25      1.0000 0.05710  0.31830  0.79480  Biso   1.000  C
  C26      1.0000 0.94290  0.81830  0.70520  Biso   1.000  C
  C27      1.0000 0.94290  0.68170  0.20520  Biso   1.000  C
  C28      1.0000 0.05710  0.18170  0.29480  Biso   1.000  C
  C29      1.0000 0.93140  0.35230  0.75060  Biso   1.000  C
  C30      1.0000 0.06860  0.85230  0.74940  Biso   1.000  C
  C31      1.0000 0.06860  0.64770  0.24940  Biso   1.000  C
  C32      1.0000 0.93140  0.14770  0.25060  Biso   1.000  C
  C33      1.0000 0.89610  0.46910  0.75810  Biso   1.000  C
  C34      1.0000 0.10390  0.96910  0.74190  Biso   1.000  C
  C35      1.0000 0.10390  0.53090  0.24190  Biso   1.000  C
  C36      1.0000 0.89610  0.03090  0.25810  Biso   1.000  C
  H17      1.0000 0.94960  0.52220  0.79660  Biso   1.000  H
  H18      1.0000 0.05040  0.02220  0.70340  Biso   1.000  H
  H19      1.0000 0.05040  0.47780  0.20340  Biso   1.000  H
  H20      1.0000 0.94960  0.97780  0.29660  Biso   1.000  H
  C37      1.0000 0.71010  0.43060  0.65720  Biso   1.000  C
  C38      1.0000 0.28990  0.93060  0.84280  Biso   1.000  C
  C39      1.0000 0.28990  0.56940  0.34280  Biso   1.000  C
  C40      1.0000 0.71010  0.06940  0.15720  Biso   1.000  C
  H21      1.0000 0.63590  0.45780  0.62320  Biso   1.000  H
  H22      1.0000 0.36410  0.95780  0.87680  Biso   1.000  H
  H23      1.0000 0.36410  0.54220  0.37680  Biso   1.000  H
  H24      1.0000 0.63590  0.04220  0.12320  Biso   1.000  H
  C41      1.0000 0.73750  0.31110  0.64980  Biso   1.000  C
  C42      1.0000 0.26250  0.81110  0.85020  Biso   1.000  C
  C43      1.0000 0.26250  0.68890  0.35020  Biso   1.000  C
  C44      1.0000 0.73750  0.18890  0.14980  Biso   1.000  C
  H25      1.0000 0.68130  0.25840  0.61400  Biso   1.000  H
  H26      1.0000 0.31870  0.75840  0.88600  Biso   1.000  H
  H27      1.0000 0.31870  0.74160  0.38600  Biso   1.000  H
  H28      1.0000 0.68130  0.24160  0.11400  Biso   1.000  H
  C45      1.0000 0.84950  0.27190  0.69640  Biso   1.000  C
  C46      1.0000 0.15050  0.77190  0.80360  Biso   1.000  C
  C47      1.0000 0.15050  0.72810  0.30360  Biso   1.000  C
  C48      1.0000 0.84950  0.22810  0.19640  Biso   1.000  C
  H29      1.0000 0.87010  0.19240  0.69170  Biso   1.000  H
  H30      1.0000 0.12990  0.69240  0.80830  Biso   1.000  H
  H31      1.0000 0.12990  0.80760  0.30830  Biso   1.000  H
  H32      1.0000 0.87010  0.30760  0.19170  Biso   1.000  H
  N1       1.0000 0.71260  0.66120  0.28620  Biso   1.000  N
  N2       1.0000 0.28740  0.16120  0.21380  Biso   1.000  N
  N3       1.0000 0.28740  0.33880  0.71380  Biso   1.000  N
  N4       1.0000 0.71260  0.83880  0.78620  Biso   1.000  N
  N5       1.0000 0.78770  0.50890  0.71220  Biso   1.000  N
  N6       1.0000 0.21230  0.00890  0.78780  Biso   1.000  N
  N7       1.0000 0.21230  0.49110  0.28780  Biso   1.000  N
  N8       1.0000 0.78770  0.99110  0.21220  Biso   1.000  N
  N9       1.0000 0.12440  0.66420  0.01930  Biso   1.000  N
  N10      1.0000 0.87560  0.16420  0.48070  Biso   1.000  N
  N11      1.0000 0.87560  0.33580  0.98070  Biso   1.000  N
  N12      1.0000 0.12440  0.83580  0.51930  Biso   1.000  N
  N13      1.0000 0.40260  0.22270  0.99890  Biso   1.000  N
  N14      1.0000 0.59740  0.72270  0.50110  Biso   1.000  N
  N15      1.0000 0.59740  0.77730  0.00110  Biso   1.000  N
  N16      1.0000 0.40260  0.27730  0.49890  Biso   1.000  N
