data_image0
_cell_length_a       12.5087
_cell_length_b       13.6681
_cell_length_c       14.898
_cell_angle_alpha    92.196
_cell_angle_beta     97.046
_cell_angle_gamma    97.751

_symmetry_space_group_name_H-M    "P 1"
_symmetry_int_tables_number       1

loop_
  _symmetry_equiv_pos_as_xyz
  'x, y, z'

loop_
  _atom_site_label
  _atom_site_occupancy
  _atom_site_fract_x
  _atom_site_fract_y
  _atom_site_fract_z
  _atom_site_thermal_displace_type
  _atom_site_B_iso_or_equiv
  _atom_site_type_symbol
  Mo1      1.0000 0.26169  0.13356  0.48045  Biso   1.000  Mo
  Mo2      1.0000 0.73831  0.86644  0.51955  Biso   1.000  Mo
  Mo3      1.0000 0.11553  0.85408  0.66877  Biso   1.000  Mo
  Mo4      1.0000 0.88447  0.14592  0.33123  Biso   1.000  Mo
  Mo5      1.0000 0.04517  0.26239  0.53077  Biso   1.000  Mo
  Mo6      1.0000 0.95483  0.73761  0.46923  Biso   1.000  Mo
  Mo7      1.0000 0.21855  0.87021  0.45790  Biso   1.000  Mo
  Mo8      1.0000 0.78145  0.12979  0.54210  Biso   1.000  Mo
  Mo9      1.0000 0.16763  0.11538  0.69718  Biso   1.000  Mo
  Mo10     1.0000 0.83237  0.88462  0.30282  Biso   1.000  Mo
  Mo11     1.0000 0.09650  0.00688  0.28528  Biso   1.000  Mo
  Mo12     1.0000 0.90350  0.99312  0.71472  Biso   1.000  Mo
  Mo13     1.0000 0.29753  0.50432  0.06952  Biso   1.000  Mo
  Mo14     1.0000 0.70247  0.49568  0.93048  Biso   1.000  Mo
  Mo15     1.0000 0.35703  0.71177  0.97598  Biso   1.000  Mo
  Mo16     1.0000 0.64297  0.28823  0.02402  Biso   1.000  Mo
  Mo17     1.0000 0.42830  0.39823  0.92886  Biso   1.000  Mo
  Mo18     1.0000 0.57170  0.60177  0.07114  Biso   1.000  Mo
  Mo19     1.0000 0.48804  0.60476  0.83585  Biso   1.000  Mo
  Mo20     1.0000 0.51196  0.39524  0.16415  Biso   1.000  Mo
  As1      1.0000 0.00000  0.00000  0.50000  Biso   1.000  As
  Cu1      1.0000 0.24560  0.54197  0.34206  Biso   1.000  Cu
  Cu2      1.0000 0.75440  0.45803  0.65794  Biso   1.000  Cu
  Cu3      1.0000 0.24627  0.92260  0.09218  Biso   1.000  Cu
  Cu4      1.0000 0.75373  0.07740  0.90782  Biso   1.000  Cu
  O1       1.0000 0.31240  0.37360  0.85730  Biso   1.000  O
  O2       1.0000 0.68760  0.62640  0.14270  Biso   1.000  O
  O3       1.0000 0.24620  0.17090  0.78620  Biso   1.000  O
  O4       1.0000 0.75380  0.82910  0.21380  Biso   1.000  O
  O5       1.0000 0.18910  0.98640  0.70850  Biso   1.000  O
  O6       1.0000 0.81090  0.01360  0.29150  Biso   1.000  O
  O7       1.0000 0.17030  0.79000  0.74850  Biso   1.000  O
  O8       1.0000 0.82970  0.21000  0.25150  Biso   1.000  O
  O9       1.0000 0.21520  0.85390  0.58280  Biso   1.000  O
  O10      1.0000 0.78480  0.14610  0.41720  Biso   1.000  O
  O11      1.0000 0.95130  0.09960  0.48480  Biso   1.000  O
  O12      1.0000 0.04870  0.90040  0.51520  Biso   1.000  O
  O13      1.0000 0.02010  0.75910  0.59720  Biso   1.000  O
  O14      1.0000 0.97990  0.24090  0.40280  Biso   1.000  O
  O15      1.0000 0.95690  0.00750  0.38690  Biso   1.000  O
  O16      1.0000 0.04310  0.99250  0.61310  Biso   1.000  O
  O17      1.0000 0.08330  0.10120  0.53620  Biso   1.000  O
  O18      1.0000 0.91670  0.89880  0.46380  Biso   1.000  O
  O19      1.0000 0.20310  0.09910  0.35520  Biso   1.000  O
  O20      1.0000 0.79690  0.90090  0.64480  Biso   1.000  O
  O21      1.0000 0.11720  0.99870  0.44820  Biso   1.000  O
  O22      1.0000 0.88280  0.00130  0.55180  Biso   1.000  O
  O23      1.0000 0.28990  0.99700  0.48300  Biso   1.000  O
  O24      1.0000 0.71010  0.00300  0.51700  Biso   1.000  O
  O25      1.0000 0.38360  0.19260  0.47010  Biso   1.000  O
  O26      1.0000 0.61640  0.80740  0.52990  Biso   1.000  O
  O27      1.0000 0.26500  0.12870  0.60610  Biso   1.000  O
  O28      1.0000 0.73500  0.87130  0.39390  Biso   1.000  O
  O29      1.0000 0.00460  0.10580  0.27730  Biso   1.000  O
  O30      1.0000 0.99540  0.89420  0.72270  Biso   1.000  O
  O31      1.0000 0.96960  0.91100  0.25900  Biso   1.000  O
  O32      1.0000 0.03040  0.08900  0.74100  Biso   1.000  O
  O33      1.0000 0.14110  0.01100  0.18380  Biso   1.000  O
  O34      1.0000 0.85890  0.98900  0.81620  Biso   1.000  O
  O35      1.0000 0.09400  0.76420  0.43880  Biso   1.000  O
  O36      1.0000 0.90600  0.23580  0.56120  Biso   1.000  O
  O37      1.0000 0.16770  0.90520  0.33860  Biso   1.000  O
  O38      1.0000 0.83230  0.09480  0.66140  Biso   1.000  O
  O39      1.0000 0.06920  0.38390  0.53740  Biso   1.000  O
  O40      1.0000 0.93080  0.61610  0.46260  Biso   1.000  O
  O41      1.0000 0.10790  0.22770  0.64030  Biso   1.000  O
  O42      1.0000 0.89210  0.77230  0.35970  Biso   1.000  O
  O43      1.0000 0.32030  0.80910  0.43890  Biso   1.000  O
  O44      1.0000 0.67970  0.19090  0.56110  Biso   1.000  O
  O45      1.0000 0.17570  0.23520  0.47900  Biso   1.000  O
  O46      1.0000 0.82430  0.76480  0.52100  Biso   1.000  O
  O47      1.0000 0.35450  0.83290  0.00940  Biso   1.000  O
  O48      1.0000 0.64550  0.16710  0.99060  Biso   1.000  O
  O49      1.0000 0.31090  0.64340  0.07910  Biso   1.000  O
  O50      1.0000 0.68910  0.35660  0.92090  Biso   1.000  O
  O51      1.0000 0.25220  0.47440  0.17010  Biso   1.000  O
  O52      1.0000 0.74780  0.52560  0.82990  Biso   1.000  O
  O53      1.0000 0.24220  0.67810  0.90280  Biso   1.000  O
  O54      1.0000 0.75780  0.32190  0.09720  Biso   1.000  O
  O55      1.0000 0.18680  0.47580  0.98970  Biso   1.000  O
  O56      1.0000 0.81320  0.52420  0.01030  Biso   1.000  O
  O57      1.0000 0.46300  0.72410  0.89300  Biso   1.000  O
  O58      1.0000 0.53700  0.27590  0.10700  Biso   1.000  O
  O59      1.0000 0.41660  0.55190  0.96670  Biso   1.000  O
  O60      1.0000 0.58340  0.44810  0.03330  Biso   1.000  O
  O61      1.0000 0.37030  0.38560  0.04500  Biso   1.000  O
  O62      1.0000 0.62970  0.61440  0.95500  Biso   1.000  O
  O63      1.0000 0.47510  0.53050  0.14640  Biso   1.000  O
  O64      1.0000 0.52490  0.46950  0.85360  Biso   1.000  O
  O65      1.0000 0.51820  0.71360  0.07060  Biso   1.000  O
  O66      1.0000 0.48180  0.28640  0.92940  Biso   1.000  O
  O67      1.0000 0.57900  0.64930  0.76380  Biso   1.000  O
  O68      1.0000 0.42100  0.35070  0.23620  Biso   1.000  O
  O69      1.0000 0.36870  0.57340  0.76720  Biso   1.000  O
  O70      1.0000 0.63130  0.42660  0.23280  Biso   1.000  O
  O71      1.0000 0.24880  0.02630  0.00730  Biso   1.000  O
  O72      1.0000 0.75120  0.97370  0.99270  Biso   1.000  O
  O73      1.0000 0.22640  0.58660  0.48540  Biso   1.000  O
  O74      1.0000 0.77360  0.41340  0.51460  Biso   1.000  O
  O75      1.0000 0.25530  0.40680  0.38120  Biso   1.000  O
  O76      1.0000 0.74470  0.59320  0.61880  Biso   1.000  O
  O77      1.0000 0.57490  0.32660  0.41740  Biso   1.000  O
  O78      1.0000 0.42510  0.67340  0.58260  Biso   1.000  O
  O79      1.0000 0.79180  0.79410  0.02110  Biso   1.000  O
  O80      1.0000 0.20820  0.20590  0.97890  Biso   1.000  O
  O81      1.0000 0.77330  0.72870  0.73450  Biso   1.000  O
  O82      1.0000 0.22670  0.27130  0.26550  Biso   1.000  O
  O83      1.0000 0.75340  0.79420  0.92050  Biso   1.000  O
  O84      1.0000 0.24660  0.20580  0.07950  Biso   1.000  O
  O85      1.0000 0.59330  0.92890  0.09110  Biso   1.000  O
  O86      1.0000 0.40670  0.07110  0.90890  Biso   1.000  O
  N1       1.0000 0.08900  0.52530  0.29450  Biso   1.000  N
  N2       1.0000 0.91100  0.47470  0.70550  Biso   1.000  N
  N3       1.0000 0.24360  0.66100  0.27310  Biso   1.000  N
  N4       1.0000 0.75640  0.33900  0.72690  Biso   1.000  N
  N5       1.0000 0.40410  0.59040  0.35500  Biso   1.000  N
  N6       1.0000 0.59590  0.40960  0.64500  Biso   1.000  N
  N7       1.0000 0.11420  0.83450  0.02940  Biso   1.000  N
  N8       1.0000 0.88580  0.16550  0.97060  Biso   1.000  N
  N9       1.0000 0.24290  0.81370  0.17320  Biso   1.000  N
  N10      1.0000 0.75710  0.18630  0.82680  Biso   1.000  N
  N11      1.0000 0.37990  0.97160  0.18100  Biso   1.000  N
  N12      1.0000 0.62010  0.02840  0.81900  Biso   1.000  N
  C1       1.0000 0.01190  0.45580  0.31520  Biso   1.000  C
  C2       1.0000 0.98810  0.54420  0.68480  Biso   1.000  C
  H1       1.0000 0.03300  0.40530  0.35290  Biso   1.000  H
  H2       1.0000 0.96700  0.59470  0.64710  Biso   1.000  H
  C3       1.0000 0.90360  0.45360  0.28470  Biso   1.000  C
  C4       1.0000 0.09640  0.54640  0.71530  Biso   1.000  C
  H3       1.0000 0.85150  0.40110  0.29900  Biso   1.000  H
  H4       1.0000 0.14850  0.59890  0.70100  Biso   1.000  H
  C5       1.0000 0.87140  0.52810  0.23340  Biso   1.000  C
  C6       1.0000 0.12860  0.47190  0.76660  Biso   1.000  C
  H5       1.0000 0.79660  0.52860  0.21260  Biso   1.000  H
  H6       1.0000 0.20340  0.47140  0.78740  Biso   1.000  H
  C7       1.0000 0.94990  0.60320  0.21200  Biso   1.000  C
  C8       1.0000 0.05010  0.39680  0.78800  Biso   1.000  C
  H7       1.0000 0.92950  0.65650  0.17780  Biso   1.000  H
  H8       1.0000 0.07050  0.34350  0.82220  Biso   1.000  H
  C9       1.0000 0.05750  0.59820  0.24150  Biso   1.000  C
  C10      1.0000 0.94250  0.40180  0.75850  Biso   1.000  C
  C11      1.0000 0.15130  0.67020  0.22180  Biso   1.000  C
  C12      1.0000 0.84870  0.32980  0.77820  Biso   1.000  C
  C13      1.0000 0.33790  0.72060  0.27410  Biso   1.000  C
  C14      1.0000 0.66210  0.27940  0.72590  Biso   1.000  C
  C15      1.0000 0.43300  0.67610  0.31410  Biso   1.000  C
  C16      1.0000 0.56700  0.32390  0.68590  Biso   1.000  C
  C17      1.0000 0.53990  0.70740  0.30410  Biso   1.000  C
  C18      1.0000 0.46010  0.29260  0.69590  Biso   1.000  C
  H9       1.0000 0.55890  0.76590  0.27370  Biso   1.000  H
  H10      1.0000 0.44110  0.23410  0.72630  Biso   1.000  H
  C19      1.0000 0.61960  0.65290  0.33890  Biso   1.000  C
  C20      1.0000 0.38040  0.34710  0.66110  Biso   1.000  C
  H11      1.0000 0.69350  0.67320  0.33130  Biso   1.000  H
  H12      1.0000 0.30650  0.32680  0.66870  Biso   1.000  H
  C21      1.0000 0.59190  0.57000  0.38430  Biso   1.000  C
  C22      1.0000 0.40810  0.43000  0.61570  Biso   1.000  C
  H13      1.0000 0.64580  0.53390  0.41160  Biso   1.000  H
  H14      1.0000 0.35420  0.46610  0.58840  Biso   1.000  H
  C23      1.0000 0.48210  0.54050  0.38880  Biso   1.000  C
  C24      1.0000 0.51790  0.45950  0.61120  Biso   1.000  C
  H15      1.0000 0.46190  0.48140  0.41780  Biso   1.000  H
  H16      1.0000 0.53810  0.51860  0.58220  Biso   1.000  H
  C25      1.0000 0.06740  0.84390  0.94510  Biso   1.000  C
  C26      1.0000 0.93260  0.15610  0.05490  Biso   1.000  C
  H17      1.0000 0.08170  0.90500  0.91750  Biso   1.000  H
  H18      1.0000 0.91830  0.09500  0.08250  Biso   1.000  H
  C27      1.0000 0.99820  0.76580  0.89680  Biso   1.000  C
  C28      1.0000 0.00180  0.23420  0.10320  Biso   1.000  C
  H19      1.0000 0.96430  0.77460  0.83770  Biso   1.000  H
  H20      1.0000 0.03570  0.22540  0.16230  Biso   1.000  H
  C29      1.0000 0.97930  0.67700  0.93440  Biso   1.000  C
  C30      1.0000 0.02070  0.32300  0.06560  Biso   1.000  C
  H21      1.0000 0.93480  0.62260  0.90090  Biso   1.000  H
  H22      1.0000 0.06520  0.37740  0.09910  Biso   1.000  H
  C31      1.0000 0.02630  0.66720  0.02290  Biso   1.000  C
  C32      1.0000 0.97370  0.33280  0.97710  Biso   1.000  C
  H23      1.0000 0.01380  0.60610  0.05090  Biso   1.000  H
  H24      1.0000 0.98620  0.39390  0.94910  Biso   1.000  H
  C33      1.0000 0.09130  0.74760  0.06920  Biso   1.000  C
  C34      1.0000 0.90870  0.25240  0.93080  Biso   1.000  C
  C35      1.0000 0.15780  0.74210  0.15750  Biso   1.000  C
  C36      1.0000 0.84220  0.25790  0.84250  Biso   1.000  C
  C37      1.0000 0.33110  0.81140  0.23260  Biso   1.000  C
  C38      1.0000 0.66890  0.18860  0.76740  Biso   1.000  C
  C39      1.0000 0.40470  0.90660  0.24430  Biso   1.000  C
  C40      1.0000 0.59530  0.09340  0.75570  Biso   1.000  C
  C41      1.0000 0.48580  0.93230  0.31610  Biso   1.000  C
  C42      1.0000 0.51420  0.06770  0.68390  Biso   1.000  C
  H25      1.0000 0.49940  0.88690  0.36150  Biso   1.000  H
  H26      1.0000 0.50060  0.11310  0.63850  Biso   1.000  H
  C43      1.0000 0.54720  0.02520  0.32110  Biso   1.000  C
  C44      1.0000 0.45280  0.97480  0.67890  Biso   1.000  C
  H27      1.0000 0.60470  0.04410  0.36890  Biso   1.000  H
  H28      1.0000 0.39530  0.95590  0.63110  Biso   1.000  H
  C45      1.0000 0.52320  0.08930  0.25550  Biso   1.000  C
  C46      1.0000 0.47680  0.91070  0.74450  Biso   1.000  C
  H29      1.0000 0.56490  0.15300  0.25740  Biso   1.000  H
  H30      1.0000 0.43510  0.84700  0.74260  Biso   1.000  H
  C47      1.0000 0.43870  0.06210  0.18670  Biso   1.000  C
  C48      1.0000 0.56130  0.93790  0.81330  Biso   1.000  C
  H31      1.0000 0.42180  0.10790  0.14260  Biso   1.000  H
  H32      1.0000 0.57820  0.89210  0.85740  Biso   1.000  H
