data_image0
_cell_length_a       13.5231
_cell_length_b       11.0694
_cell_length_c       16.0659
_cell_angle_alpha    90
_cell_angle_beta     108.101
_cell_angle_gamma    90

_symmetry_space_group_name_H-M    "P 1"
_symmetry_int_tables_number       1

loop_
  _symmetry_equiv_pos_as_xyz
  'x, y, z'

loop_
  _atom_site_label
  _atom_site_occupancy
  _atom_site_fract_x
  _atom_site_fract_y
  _atom_site_fract_z
  _atom_site_thermal_displace_type
  _atom_site_B_iso_or_equiv
  _atom_site_type_symbol
  C1       1.0000 0.07040  0.12040  0.72440  Biso   1.000  C
  C2       1.0000 0.92960  0.12040  0.77560  Biso   1.000  C
  C3       1.0000 0.57040  0.62040  0.72440  Biso   1.000  C
  C4       1.0000 0.42960  0.62040  0.77560  Biso   1.000  C
  C5       1.0000 0.92960  0.87960  0.27560  Biso   1.000  C
  C6       1.0000 0.07040  0.87960  0.22440  Biso   1.000  C
  C7       1.0000 0.42960  0.37960  0.27560  Biso   1.000  C
  C8       1.0000 0.57040  0.37960  0.22440  Biso   1.000  C
  C9       1.0000 0.07350  0.99630  0.72421  Biso   1.000  C
  C10      1.0000 0.92650  0.99630  0.77579  Biso   1.000  C
  C11      1.0000 0.57350  0.49630  0.72421  Biso   1.000  C
  C12      1.0000 0.42650  0.49630  0.77579  Biso   1.000  C
  C13      1.0000 0.92650  0.00370  0.27579  Biso   1.000  C
  C14      1.0000 0.07350  0.00370  0.22421  Biso   1.000  C
  C15      1.0000 0.42650  0.50370  0.27579  Biso   1.000  C
  C16      1.0000 0.57350  0.50370  0.22421  Biso   1.000  C
  C17      1.0000 0.00000  0.93070  0.75000  Biso   1.000  C
  C18      1.0000 0.50000  0.43070  0.75000  Biso   1.000  C
  C19      1.0000 0.00000  0.06930  0.25000  Biso   1.000  C
  C20      1.0000 0.50000  0.56930  0.25000  Biso   1.000  C
  C21      1.0000 0.91750  0.60680  0.75551  Biso   1.000  C
  C22      1.0000 0.08250  0.60680  0.74449  Biso   1.000  C
  C23      1.0000 0.41750  0.10680  0.75551  Biso   1.000  C
  C24      1.0000 0.58250  0.10680  0.74449  Biso   1.000  C
  C25      1.0000 0.08250  0.39320  0.24449  Biso   1.000  C
  C26      1.0000 0.91750  0.39320  0.25551  Biso   1.000  C
  C27      1.0000 0.58250  0.89320  0.24449  Biso   1.000  C
  C28      1.0000 0.41750  0.89320  0.25551  Biso   1.000  C
  C29      1.0000 0.91430  0.73150  0.75450  Biso   1.000  C
  C30      1.0000 0.08570  0.73150  0.74550  Biso   1.000  C
  C31      1.0000 0.41430  0.23150  0.75450  Biso   1.000  C
  C32      1.0000 0.58570  0.23150  0.74550  Biso   1.000  C
  C33      1.0000 0.08570  0.26850  0.24550  Biso   1.000  C
  C34      1.0000 0.91430  0.26850  0.25450  Biso   1.000  C
  C35      1.0000 0.58570  0.76850  0.24550  Biso   1.000  C
  C36      1.0000 0.41430  0.76850  0.25450  Biso   1.000  C
  C37      1.0000 0.00000  0.79710  0.75000  Biso   1.000  C
  C38      1.0000 0.50000  0.29710  0.75000  Biso   1.000  C
  C39      1.0000 0.00000  0.20290  0.25000  Biso   1.000  C
  C40      1.0000 0.50000  0.70290  0.25000  Biso   1.000  C
  C41      1.0000 0.33372  0.50610  0.03817  Biso   1.000  C
  C42      1.0000 0.66628  0.50610  0.46183  Biso   1.000  C
  C43      1.0000 0.83372  0.00610  0.03817  Biso   1.000  C
  C44      1.0000 0.16628  0.00610  0.46183  Biso   1.000  C
  C45      1.0000 0.66628  0.49390  0.96183  Biso   1.000  C
  C46      1.0000 0.33372  0.49390  0.53817  Biso   1.000  C
  C47      1.0000 0.16628  0.99390  0.96183  Biso   1.000  C
  C48      1.0000 0.83372  0.99390  0.53817  Biso   1.000  C
  C49      1.0000 0.39140  0.41390  0.02097  Biso   1.000  C
  C50      1.0000 0.60860  0.41390  0.47903  Biso   1.000  C
  C51      1.0000 0.89140  0.91390  0.02097  Biso   1.000  C
  C52      1.0000 0.10860  0.91390  0.47903  Biso   1.000  C
  C53      1.0000 0.60860  0.58610  0.97903  Biso   1.000  C
  C54      1.0000 0.39140  0.58610  0.52097  Biso   1.000  C
  C55      1.0000 0.10860  0.08610  0.97903  Biso   1.000  C
  C56      1.0000 0.89140  0.08610  0.52097  Biso   1.000  C
  C57      1.0000 0.36500  0.62770  0.03663  Biso   1.000  C
  C58      1.0000 0.63500  0.62770  0.46337  Biso   1.000  C
  C59      1.0000 0.86500  0.12770  0.03663  Biso   1.000  C
  C60      1.0000 0.13500  0.12770  0.46337  Biso   1.000  C
  C61      1.0000 0.63500  0.37230  0.96337  Biso   1.000  C
  C62      1.0000 0.36500  0.37230  0.53663  Biso   1.000  C
  C63      1.0000 0.13500  0.87230  0.96337  Biso   1.000  C
  C64      1.0000 0.86500  0.87230  0.53663  Biso   1.000  C
  C65      1.0000 0.45370  0.65390  0.01777  Biso   1.000  C
  C66      1.0000 0.54630  0.65390  0.48223  Biso   1.000  C
  C67      1.0000 0.95370  0.15390  0.01777  Biso   1.000  C
  C68      1.0000 0.04630  0.15390  0.48223  Biso   1.000  C
  C69      1.0000 0.54630  0.34610  0.98223  Biso   1.000  C
  C70      1.0000 0.45370  0.34610  0.51777  Biso   1.000  C
  C71      1.0000 0.04630  0.84610  0.98223  Biso   1.000  C
  C72      1.0000 0.95370  0.84610  0.51777  Biso   1.000  C
  C73      1.0000 0.48408  0.43910  0.00058  Biso   1.000  C
  C74      1.0000 0.51592  0.43910  0.49942  Biso   1.000  C
  C75      1.0000 0.98408  0.93910  0.00058  Biso   1.000  C
  C76      1.0000 0.01592  0.93910  0.49942  Biso   1.000  C
  C77      1.0000 0.51592  0.56090  0.99942  Biso   1.000  C
  C78      1.0000 0.48408  0.56090  0.50058  Biso   1.000  C
  C79      1.0000 0.01592  0.06090  0.99942  Biso   1.000  C
  C80      1.0000 0.98408  0.06090  0.50058  Biso   1.000  C
  N1       1.0000 0.00000  0.18280  0.75000  Biso   1.000  N
  N2       1.0000 0.50000  0.68280  0.75000  Biso   1.000  N
  N3       1.0000 0.00000  0.81720  0.25000  Biso   1.000  N
  N4       1.0000 0.50000  0.31720  0.25000  Biso   1.000  N
  N5       1.0000 0.00000  0.54440  0.75000  Biso   1.000  N
  N6       1.0000 0.50000  0.04440  0.75000  Biso   1.000  N
  N7       1.0000 0.00000  0.45560  0.25000  Biso   1.000  N
  N8       1.0000 0.50000  0.95560  0.25000  Biso   1.000  N
  O1       1.0000 0.97630  0.36148  0.86708  Biso   1.000  O
  O2       1.0000 0.02370  0.36148  0.63292  Biso   1.000  O
  O3       1.0000 0.47630  0.86148  0.86708  Biso   1.000  O
  O4       1.0000 0.52370  0.86148  0.63292  Biso   1.000  O
  O5       1.0000 0.02370  0.63852  0.13292  Biso   1.000  O
  O6       1.0000 0.97630  0.63852  0.36708  Biso   1.000  O
  O7       1.0000 0.52370  0.13852  0.13292  Biso   1.000  O
  O8       1.0000 0.47630  0.13852  0.36708  Biso   1.000  O
  O9       1.0000 0.81393  0.36080  0.67117  Biso   1.000  O
  O10      1.0000 0.18607  0.36080  0.82883  Biso   1.000  O
  O11      1.0000 0.31393  0.86080  0.67117  Biso   1.000  O
  O12      1.0000 0.68607  0.86080  0.82883  Biso   1.000  O
  O13      1.0000 0.18607  0.63920  0.32883  Biso   1.000  O
  O14      1.0000 0.81393  0.63920  0.17117  Biso   1.000  O
  O15      1.0000 0.68607  0.13920  0.32883  Biso   1.000  O
  O16      1.0000 0.31393  0.13920  0.17117  Biso   1.000  O
  O17      1.0000 0.13571  0.49410  0.97296  Biso   1.000  O
  O18      1.0000 0.86429  0.49410  0.52704  Biso   1.000  O
  O19      1.0000 0.63571  0.99410  0.97296  Biso   1.000  O
  O20      1.0000 0.36429  0.99410  0.52704  Biso   1.000  O
  O21      1.0000 0.86429  0.50590  0.02704  Biso   1.000  O
  O22      1.0000 0.13571  0.50590  0.47296  Biso   1.000  O
  O23      1.0000 0.36429  0.00590  0.02704  Biso   1.000  O
  O24      1.0000 0.63571  0.00590  0.47296  Biso   1.000  O
  O25      1.0000 0.21754  0.35201  0.08758  Biso   1.000  O
  O26      1.0000 0.78246  0.35201  0.41242  Biso   1.000  O
  O27      1.0000 0.71754  0.85201  0.08758  Biso   1.000  O
  O28      1.0000 0.28246  0.85201  0.41242  Biso   1.000  O
  O29      1.0000 0.78246  0.64799  0.91242  Biso   1.000  O
  O30      1.0000 0.21754  0.64799  0.58758  Biso   1.000  O
  O31      1.0000 0.28246  0.14799  0.91242  Biso   1.000  O
  O32      1.0000 0.71754  0.14799  0.58758  Biso   1.000  O
  O33      1.0000 0.20610  0.56390  0.12159  Biso   1.000  O
  O34      1.0000 0.79390  0.56390  0.37841  Biso   1.000  O
  O35      1.0000 0.70610  0.06390  0.12159  Biso   1.000  O
  O36      1.0000 0.29390  0.06390  0.37841  Biso   1.000  O
  O37      1.0000 0.79390  0.43610  0.87841  Biso   1.000  O
  O38      1.0000 0.20610  0.43610  0.62159  Biso   1.000  O
  O39      1.0000 0.29390  0.93610  0.87841  Biso   1.000  O
  O40      1.0000 0.70610  0.93610  0.62159  Biso   1.000  O
  S1       1.0000 0.21431  0.47528  0.05755  Biso   1.000  S
  S2       1.0000 0.78569  0.47528  0.44245  Biso   1.000  S
  S3       1.0000 0.71431  0.97528  0.05755  Biso   1.000  S
  S4       1.0000 0.28569  0.97528  0.44245  Biso   1.000  S
  S5       1.0000 0.78569  0.52472  0.94245  Biso   1.000  S
  S6       1.0000 0.21431  0.52472  0.55755  Biso   1.000  S
  S7       1.0000 0.28569  0.02472  0.94245  Biso   1.000  S
  S8       1.0000 0.71431  0.02472  0.55755  Biso   1.000  S
  Cu1      1.0000 0.00000  0.36344  0.75000  Biso   1.000  Cu
  Cu2      1.0000 0.50000  0.86344  0.75000  Biso   1.000  Cu
  Cu3      1.0000 0.00000  0.63656  0.25000  Biso   1.000  Cu
  Cu4      1.0000 0.50000  0.13656  0.25000  Biso   1.000  Cu
  H1       1.0000 0.01700  0.38900  0.89800  Biso   1.000  H
  H2       1.0000 0.98300  0.38900  0.60200  Biso   1.000  H
  H3       1.0000 0.51700  0.88900  0.89800  Biso   1.000  H
  H4       1.0000 0.48300  0.88900  0.60200  Biso   1.000  H
  H5       1.0000 0.98300  0.61100  0.10200  Biso   1.000  H
  H6       1.0000 0.01700  0.61100  0.39800  Biso   1.000  H
  H7       1.0000 0.48300  0.11100  0.10200  Biso   1.000  H
  H8       1.0000 0.51700  0.11100  0.39800  Biso   1.000  H
  H9       1.0000 0.91700  0.38000  0.87020  Biso   1.000  H
  H10      1.0000 0.08300  0.38000  0.62980  Biso   1.000  H
  H11      1.0000 0.41700  0.88000  0.87020  Biso   1.000  H
  H12      1.0000 0.58300  0.88000  0.62980  Biso   1.000  H
  H13      1.0000 0.08300  0.62000  0.12980  Biso   1.000  H
  H14      1.0000 0.91700  0.62000  0.37020  Biso   1.000  H
  H15      1.0000 0.58300  0.12000  0.12980  Biso   1.000  H
  H16      1.0000 0.41700  0.12000  0.37020  Biso   1.000  H
  H17      1.0000 0.80300  0.40200  0.63300  Biso   1.000  H
  H18      1.0000 0.19700  0.40200  0.86700  Biso   1.000  H
  H19      1.0000 0.30300  0.90200  0.63300  Biso   1.000  H
  H20      1.0000 0.69700  0.90200  0.86700  Biso   1.000  H
  H21      1.0000 0.19700  0.59800  0.36700  Biso   1.000  H
  H22      1.0000 0.80300  0.59800  0.13300  Biso   1.000  H
  H23      1.0000 0.69700  0.09800  0.36700  Biso   1.000  H
  H24      1.0000 0.30300  0.09800  0.13300  Biso   1.000  H
  H25      1.0000 0.78700  0.29800  0.65200  Biso   1.000  H
  H26      1.0000 0.21300  0.29800  0.84800  Biso   1.000  H
  H27      1.0000 0.28700  0.79800  0.65200  Biso   1.000  H
  H28      1.0000 0.71300  0.79800  0.84800  Biso   1.000  H
  H29      1.0000 0.21300  0.70200  0.34800  Biso   1.000  H
  H30      1.0000 0.78700  0.70200  0.15200  Biso   1.000  H
  H31      1.0000 0.71300  0.20200  0.34800  Biso   1.000  H
  H32      1.0000 0.28700  0.20200  0.15200  Biso   1.000  H
  H33      1.0000 0.11830  0.16000  0.70450  Biso   1.000  H
  H34      1.0000 0.88170  0.16000  0.79550  Biso   1.000  H
  H35      1.0000 0.61830  0.66000  0.70450  Biso   1.000  H
  H36      1.0000 0.38170  0.66000  0.79550  Biso   1.000  H
  H37      1.0000 0.88170  0.84000  0.29550  Biso   1.000  H
  H38      1.0000 0.11830  0.84000  0.20450  Biso   1.000  H
  H39      1.0000 0.38170  0.34000  0.29550  Biso   1.000  H
  H40      1.0000 0.61830  0.34000  0.20450  Biso   1.000  H
  H41      1.0000 0.12100  0.95800  0.70420  Biso   1.000  H
  H42      1.0000 0.87900  0.95800  0.79580  Biso   1.000  H
  H43      1.0000 0.62100  0.45800  0.70420  Biso   1.000  H
  H44      1.0000 0.37900  0.45800  0.79580  Biso   1.000  H
  H45      1.0000 0.87900  0.04200  0.29580  Biso   1.000  H
  H46      1.0000 0.12100  0.04200  0.20420  Biso   1.000  H
  H47      1.0000 0.37900  0.54200  0.29580  Biso   1.000  H
  H48      1.0000 0.62100  0.54200  0.20420  Biso   1.000  H
  H49      1.0000 0.85300  0.56300  0.75650  Biso   1.000  H
  H50      1.0000 0.14700  0.56300  0.74350  Biso   1.000  H
  H51      1.0000 0.35300  0.06300  0.75650  Biso   1.000  H
  H52      1.0000 0.64700  0.06300  0.74350  Biso   1.000  H
  H53      1.0000 0.14700  0.43700  0.24350  Biso   1.000  H
  H54      1.0000 0.85300  0.43700  0.25650  Biso   1.000  H
  H55      1.0000 0.64700  0.93700  0.24350  Biso   1.000  H
  H56      1.0000 0.35300  0.93700  0.25650  Biso   1.000  H
  H57      1.0000 0.85200  0.77100  0.75460  Biso   1.000  H
  H58      1.0000 0.14800  0.77100  0.74540  Biso   1.000  H
  H59      1.0000 0.35200  0.27100  0.75460  Biso   1.000  H
  H60      1.0000 0.64800  0.27100  0.74540  Biso   1.000  H
  H61      1.0000 0.14800  0.22900  0.24540  Biso   1.000  H
  H62      1.0000 0.85200  0.22900  0.25460  Biso   1.000  H
  H63      1.0000 0.64800  0.72900  0.24540  Biso   1.000  H
  H64      1.0000 0.35200  0.72900  0.25460  Biso   1.000  H
  H65      1.0000 0.37200  0.34000  0.02130  Biso   1.000  H
  H66      1.0000 0.62800  0.34000  0.47870  Biso   1.000  H
  H67      1.0000 0.87200  0.84000  0.02130  Biso   1.000  H
  H68      1.0000 0.12800  0.84000  0.47870  Biso   1.000  H
  H69      1.0000 0.62800  0.66000  0.97870  Biso   1.000  H
  H70      1.0000 0.37200  0.66000  0.52130  Biso   1.000  H
  H71      1.0000 0.12800  0.16000  0.97870  Biso   1.000  H
  H72      1.0000 0.87200  0.16000  0.52130  Biso   1.000  H
  H73      1.0000 0.32800  0.68600  0.05330  Biso   1.000  H
  H74      1.0000 0.67200  0.68600  0.44670  Biso   1.000  H
  H75      1.0000 0.82800  0.18600  0.05330  Biso   1.000  H
  H76      1.0000 0.17200  0.18600  0.44670  Biso   1.000  H
  H77      1.0000 0.67200  0.31400  0.94670  Biso   1.000  H
  H78      1.0000 0.32800  0.31400  0.55330  Biso   1.000  H
  H79      1.0000 0.17200  0.81400  0.94670  Biso   1.000  H
  H80      1.0000 0.82800  0.81400  0.55330  Biso   1.000  H
  H81      1.0000 0.47500  0.72400  0.01830  Biso   1.000  H
  H82      1.0000 0.52500  0.72400  0.48170  Biso   1.000  H
  H83      1.0000 0.97500  0.22400  0.01830  Biso   1.000  H
  H84      1.0000 0.02500  0.22400  0.48170  Biso   1.000  H
  H85      1.0000 0.52500  0.27600  0.98170  Biso   1.000  H
  H86      1.0000 0.47500  0.27600  0.51830  Biso   1.000  H
  H87      1.0000 0.02500  0.77600  0.98170  Biso   1.000  H
  H88      1.0000 0.97500  0.77600  0.51830  Biso   1.000  H
