data_image0
_cell_length_a       11.634
_cell_length_b       7.492
_cell_length_c       26.57
_cell_angle_alpha    90
_cell_angle_beta     90.65
_cell_angle_gamma    90

_symmetry_space_group_name_H-M    "P 1"
_symmetry_int_tables_number       1

loop_
  _symmetry_equiv_pos_as_xyz
  'x, y, z'

loop_
  _atom_site_label
  _atom_site_occupancy
  _atom_site_fract_x
  _atom_site_fract_y
  _atom_site_fract_z
  _atom_site_thermal_displace_type
  _atom_site_B_iso_or_equiv
  _atom_site_type_symbol
  Cu1      1.0000 0.29440  0.18425  0.07938  Biso   1.000  Cu
  Cu2      1.0000 0.20560  0.68425  0.42062  Biso   1.000  Cu
  Cu3      1.0000 0.70560  0.81575  0.92062  Biso   1.000  Cu
  Cu4      1.0000 0.79440  0.31575  0.57938  Biso   1.000  Cu
  O1       1.0000 0.40422  0.34500  0.10940  Biso   1.000  O
  O2       1.0000 0.09578  0.84500  0.39060  Biso   1.000  O
  O3       1.0000 0.59578  0.65500  0.89060  Biso   1.000  O
  O4       1.0000 0.90422  0.15500  0.60940  Biso   1.000  O
  O5       1.0000 0.30346  0.54314  0.15378  Biso   1.000  O
  O6       1.0000 0.19654  0.04314  0.34622  Biso   1.000  O
  O7       1.0000 0.69654  0.45686  0.84622  Biso   1.000  O
  O8       1.0000 0.80346  0.95686  0.65378  Biso   1.000  O
  O9       1.0000 0.48743  0.79685  0.07818  Biso   1.000  O
  O10      1.0000 0.01257  0.29685  0.42182  Biso   1.000  O
  O11      1.0000 0.51257  0.20315  0.92182  Biso   1.000  O
  O12      1.0000 0.98743  0.70315  0.57818  Biso   1.000  O
  O13      1.0000 0.54039  0.04853  0.04045  Biso   1.000  O
  O14      1.0000 0.95961  0.54853  0.45955  Biso   1.000  O
  O15      1.0000 0.45961  0.95147  0.95955  Biso   1.000  O
  O16      1.0000 0.04039  0.45147  0.54045  Biso   1.000  O
  O17      1.0000 0.31000  0.03478  0.13875  Biso   1.000  O
  O18      1.0000 0.19000  0.53478  0.36125  Biso   1.000  O
  O19      1.0000 0.69000  0.96522  0.86125  Biso   1.000  O
  O20      1.0000 0.81000  0.46522  0.63875  Biso   1.000  O
  O21      1.0000 0.14727  0.08300  0.18055  Biso   1.000  O
  O22      1.0000 0.35273  0.58300  0.31945  Biso   1.000  O
  O23      1.0000 0.85273  0.91700  0.81945  Biso   1.000  O
  O24      1.0000 0.64727  0.41700  0.68055  Biso   1.000  O
  N1       1.0000 0.48528  0.82541  0.18583  Biso   1.000  N
  N2       1.0000 0.01472  0.32541  0.31417  Biso   1.000  N
  N3       1.0000 0.51472  0.17459  0.81417  Biso   1.000  N
  N4       1.0000 0.98528  0.67459  0.68583  Biso   1.000  N
  N5       1.0000 0.29391  0.30764  0.01399  Biso   1.000  N
  N6       1.0000 0.20609  0.80764  0.48601  Biso   1.000  N
  N7       1.0000 0.70609  0.69236  0.98601  Biso   1.000  N
  N8       1.0000 0.79391  0.19236  0.51399  Biso   1.000  N
  N9       1.0000 0.20685  0.00527  0.03988  Biso   1.000  N
  N10      1.0000 0.29315  0.50527  0.46012  Biso   1.000  N
  N11      1.0000 0.79315  0.99473  0.96012  Biso   1.000  N
  N12      1.0000 0.70685  0.49473  0.53988  Biso   1.000  N
  C1       1.0000 0.49545  0.64389  0.21050  Biso   1.000  C
  C2       1.0000 0.00455  0.14389  0.28950  Biso   1.000  C
  C3       1.0000 0.50455  0.35611  0.78950  Biso   1.000  C
  C4       1.0000 0.99545  0.85611  0.71050  Biso   1.000  C
  C5       1.0000 0.50369  0.49528  0.17318  Biso   1.000  C
  C6       1.0000 0.99631  0.99528  0.32682  Biso   1.000  C
  C7       1.0000 0.49631  0.50472  0.82682  Biso   1.000  C
  C8       1.0000 0.00369  0.00472  0.67318  Biso   1.000  C
  C9       1.0000 0.39346  0.46191  0.14347  Biso   1.000  C
  C10      1.0000 0.10654  0.96191  0.35653  Biso   1.000  C
  C11      1.0000 0.60654  0.53809  0.85653  Biso   1.000  C
  C12      1.0000 0.89346  0.03809  0.64347  Biso   1.000  C
  C13      1.0000 0.60265  0.88541  0.16773  Biso   1.000  C
  C14      1.0000 0.89735  0.38541  0.33227  Biso   1.000  C
  C15      1.0000 0.39735  0.11459  0.83227  Biso   1.000  C
  C16      1.0000 0.10265  0.61459  0.66773  Biso   1.000  C
  C17      1.0000 0.59246  0.01563  0.12500  Biso   1.000  C
  C18      1.0000 0.90754  0.51563  0.37500  Biso   1.000  C
  C19      1.0000 0.40754  0.98437  0.87500  Biso   1.000  C
  C20      1.0000 0.09246  0.48437  0.62500  Biso   1.000  C
  C21      1.0000 0.53528  0.94359  0.07794  Biso   1.000  C
  C22      1.0000 0.96472  0.44359  0.42206  Biso   1.000  C
  C23      1.0000 0.46472  0.05641  0.92206  Biso   1.000  C
  C24      1.0000 0.03528  0.55641  0.57794  Biso   1.000  C
  C25      1.0000 0.43580  0.95707  0.22208  Biso   1.000  C
  C26      1.0000 0.06420  0.45707  0.27792  Biso   1.000  C
  C27      1.0000 0.56420  0.04293  0.77792  Biso   1.000  C
  C28      1.0000 0.93580  0.54293  0.72208  Biso   1.000  C
  C29      1.0000 0.30528  0.94360  0.22287  Biso   1.000  C
  C30      1.0000 0.19472  0.44360  0.27713  Biso   1.000  C
  C31      1.0000 0.69472  0.05640  0.77713  Biso   1.000  C
  C32      1.0000 0.80528  0.55640  0.72287  Biso   1.000  C
  C33      1.0000 0.24810  0.02702  0.17796  Biso   1.000  C
  C34      1.0000 0.25190  0.52702  0.32204  Biso   1.000  C
  C35      1.0000 0.75190  0.97298  0.82204  Biso   1.000  C
  C36      1.0000 0.74810  0.47298  0.67796  Biso   1.000  C
  C37      1.0000 0.34508  0.46380  0.00352  Biso   1.000  C
  C38      1.0000 0.15492  0.96380  0.49648  Biso   1.000  C
  C39      1.0000 0.65492  0.53620  0.99648  Biso   1.000  C
  C40      1.0000 0.84508  0.03620  0.50352  Biso   1.000  C
  C41      1.0000 0.32979  0.54970  0.95816  Biso   1.000  C
  C42      1.0000 0.17021  0.04970  0.54184  Biso   1.000  C
  C43      1.0000 0.67021  0.45030  0.04184  Biso   1.000  C
  C44      1.0000 0.82979  0.95030  0.45816  Biso   1.000  C
  C45      1.0000 0.26007  0.47450  0.92284  Biso   1.000  C
  C46      1.0000 0.23993  0.97450  0.57716  Biso   1.000  C
  C47      1.0000 0.73993  0.52550  0.07716  Biso   1.000  C
  C48      1.0000 0.76007  0.02550  0.42284  Biso   1.000  C
  C49      1.0000 0.20875  0.31070  0.93209  Biso   1.000  C
  C50      1.0000 0.29125  0.81070  0.56791  Biso   1.000  C
  C51      1.0000 0.79125  0.68930  0.06791  Biso   1.000  C
  C52      1.0000 0.70875  0.18930  0.43209  Biso   1.000  C
  C53      1.0000 0.22794  0.23006  0.97804  Biso   1.000  C
  C54      1.0000 0.27206  0.73006  0.52196  Biso   1.000  C
  C55      1.0000 0.77206  0.76994  0.02196  Biso   1.000  C
  C56      1.0000 0.72794  0.26994  0.47804  Biso   1.000  C
  C57      1.0000 0.18129  0.05276  0.99224  Biso   1.000  C
  C58      1.0000 0.31871  0.55276  0.50776  Biso   1.000  C
  C59      1.0000 0.81871  0.94724  0.00776  Biso   1.000  C
  C60      1.0000 0.68129  0.44724  0.49224  Biso   1.000  C
  C61      1.0000 0.11853  0.94420  0.96061  Biso   1.000  C
  C62      1.0000 0.38147  0.44420  0.53939  Biso   1.000  C
  C63      1.0000 0.88147  0.05580  0.03939  Biso   1.000  C
  C64      1.0000 0.61853  0.55580  0.46061  Biso   1.000  C
  C65      1.0000 0.07914  0.78270  0.97831  Biso   1.000  C
  C66      1.0000 0.42086  0.28270  0.52169  Biso   1.000  C
  C67      1.0000 0.92086  0.21730  0.02169  Biso   1.000  C
  C68      1.0000 0.57914  0.71730  0.47831  Biso   1.000  C
  C69      1.0000 0.10497  0.73340  0.02684  Biso   1.000  C
  C70      1.0000 0.39503  0.23340  0.47316  Biso   1.000  C
  C71      1.0000 0.89503  0.26660  0.97316  Biso   1.000  C
  C72      1.0000 0.60497  0.76660  0.52684  Biso   1.000  C
  C73      1.0000 0.17012  0.84350  0.05595  Biso   1.000  C
  C74      1.0000 0.32988  0.34350  0.44405  Biso   1.000  C
  C75      1.0000 0.82988  0.15650  0.94405  Biso   1.000  C
  C76      1.0000 0.67012  0.65650  0.55595  Biso   1.000  C
  O25      1.0000 0.79478  0.30947  0.19604  Biso   1.000  O
  O26      1.0000 0.70522  0.80947  0.30396  Biso   1.000  O
  O27      1.0000 0.20522  0.69053  0.80396  Biso   1.000  O
  O28      1.0000 0.29478  0.19053  0.69604  Biso   1.000  O
  O29      1.0000 0.91690  0.98230  0.16554  Biso   1.000  O
  O30      1.0000 0.58310  0.48230  0.33446  Biso   1.000  O
  O31      1.0000 0.08310  0.01770  0.83446  Biso   1.000  O
  O32      1.0000 0.41690  0.51770  0.66554  Biso   1.000  O
  O33      1.0000 0.65490  0.18340  0.28073  Biso   1.000  O
  O34      1.0000 0.84510  0.68340  0.21927  Biso   1.000  O
  O35      1.0000 0.34510  0.81660  0.71927  Biso   1.000  O
  O36      1.0000 0.15490  0.31660  0.78073  Biso   1.000  O
  O37      1.0000 0.12799  0.35627  0.10747  Biso   1.000  O
  O38      1.0000 0.37201  0.85627  0.39253  Biso   1.000  O
  O39      1.0000 0.87201  0.64373  0.89253  Biso   1.000  O
  O40      1.0000 0.62799  0.14373  0.60747  Biso   1.000  O
  H1       1.0000 0.42900  0.82100  0.15470  Biso   1.000  H
  H2       1.0000 0.07100  0.32100  0.34530  Biso   1.000  H
  H3       1.0000 0.57100  0.17900  0.84530  Biso   1.000  H
  H4       1.0000 0.92900  0.67900  0.65470  Biso   1.000  H
  H5       1.0000 0.50000  0.00000  0.00000  Biso   1.000  H
  H6       1.0000 0.00000  0.50000  0.50000  Biso   1.000  H
  H7       1.0000 0.56670  0.64900  0.23220  Biso   1.000  H
  H8       1.0000 0.93330  0.14900  0.26780  Biso   1.000  H
  H9       1.0000 0.43330  0.35100  0.76780  Biso   1.000  H
  H10      1.0000 0.06670  0.85100  0.73220  Biso   1.000  H
  H11      1.0000 0.42560  0.63970  0.23310  Biso   1.000  H
  H12      1.0000 0.07440  0.13970  0.26690  Biso   1.000  H
  H13      1.0000 0.57440  0.36030  0.76690  Biso   1.000  H
  H14      1.0000 0.92560  0.86030  0.73310  Biso   1.000  H
  H15      1.0000 0.52840  0.37140  0.18990  Biso   1.000  H
  H16      1.0000 0.97160  0.87140  0.31010  Biso   1.000  H
  H17      1.0000 0.47160  0.62860  0.81010  Biso   1.000  H
  H18      1.0000 0.02840  0.12860  0.68990  Biso   1.000  H
  H19      1.0000 0.56170  0.50500  0.15010  Biso   1.000  H
  H20      1.0000 0.93830  0.00500  0.34990  Biso   1.000  H
  H21      1.0000 0.43830  0.49500  0.84990  Biso   1.000  H
  H22      1.0000 0.06170  0.99500  0.65010  Biso   1.000  H
  H23      1.0000 0.65510  0.92950  0.19970  Biso   1.000  H
  H24      1.0000 0.84490  0.42950  0.30030  Biso   1.000  H
  H25      1.0000 0.34490  0.07050  0.80030  Biso   1.000  H
  H26      1.0000 0.15510  0.57050  0.69970  Biso   1.000  H
  H27      1.0000 0.64140  0.78000  0.15760  Biso   1.000  H
  H28      1.0000 0.85860  0.28000  0.34240  Biso   1.000  H
  H29      1.0000 0.35860  0.22000  0.84240  Biso   1.000  H
  H30      1.0000 0.14140  0.72000  0.65760  Biso   1.000  H
  H31      1.0000 0.54450  0.13250  0.13500  Biso   1.000  H
  H32      1.0000 0.95550  0.63250  0.36500  Biso   1.000  H
  H33      1.0000 0.45550  0.86750  0.86500  Biso   1.000  H
  H34      1.0000 0.04450  0.36750  0.63500  Biso   1.000  H
  H35      1.0000 0.66360  0.05930  0.11790  Biso   1.000  H
  H36      1.0000 0.83640  0.55930  0.38210  Biso   1.000  H
  H37      1.0000 0.33640  0.94070  0.88210  Biso   1.000  H
  H38      1.0000 0.16360  0.44070  0.61790  Biso   1.000  H
  H39      1.0000 0.45950  0.08090  0.20910  Biso   1.000  H
  H40      1.0000 0.04050  0.58090  0.29090  Biso   1.000  H
  H41      1.0000 0.54050  0.91910  0.79090  Biso   1.000  H
  H42      1.0000 0.95950  0.41910  0.70910  Biso   1.000  H
  H43      1.0000 0.47370  0.92950  0.25890  Biso   1.000  H
  H44      1.0000 0.02630  0.42950  0.24110  Biso   1.000  H
  H45      1.0000 0.52630  0.07050  0.74110  Biso   1.000  H
  H46      1.0000 0.97370  0.57050  0.75890  Biso   1.000  H
  H47      1.0000 0.27060  0.81830  0.22520  Biso   1.000  H
  H48      1.0000 0.22940  0.31830  0.27480  Biso   1.000  H
  H49      1.0000 0.72940  0.18170  0.77480  Biso   1.000  H
  H50      1.0000 0.77060  0.68170  0.72520  Biso   1.000  H
  H51      1.0000 0.27760  0.98910  0.25450  Biso   1.000  H
  H52      1.0000 0.22240  0.48910  0.24550  Biso   1.000  H
  H53      1.0000 0.72240  0.01090  0.74550  Biso   1.000  H
  H54      1.0000 0.77760  0.51090  0.75450  Biso   1.000  H
  H55      1.0000 0.38870  0.50200  0.03020  Biso   1.000  H
  H56      1.0000 0.11130  0.00200  0.46980  Biso   1.000  H
  H57      1.0000 0.61130  0.49800  0.96980  Biso   1.000  H
  H58      1.0000 0.88870  0.99800  0.53020  Biso   1.000  H
  H59      1.0000 0.36830  0.66600  0.95220  Biso   1.000  H
  H60      1.0000 0.13170  0.16600  0.54780  Biso   1.000  H
  H61      1.0000 0.63170  0.33400  0.04780  Biso   1.000  H
  H62      1.0000 0.86830  0.83400  0.45220  Biso   1.000  H
  H63      1.0000 0.23820  0.53200  0.89040  Biso   1.000  H
  H64      1.0000 0.26180  0.03200  0.60960  Biso   1.000  H
  H65      1.0000 0.76180  0.46800  0.10960  Biso   1.000  H
  H66      1.0000 0.73820  0.96800  0.39040  Biso   1.000  H
  H67      1.0000 0.16020  0.24530  0.90760  Biso   1.000  H
  H68      1.0000 0.33980  0.74530  0.59240  Biso   1.000  H
  H69      1.0000 0.83980  0.75470  0.09240  Biso   1.000  H
  H70      1.0000 0.66020  0.25470  0.40760  Biso   1.000  H
  H71      1.0000 0.09980  0.98440  0.92980  Biso   1.000  H
  H72      1.0000 0.40020  0.48440  0.57020  Biso   1.000  H
  H73      1.0000 0.90020  0.01560  0.07020  Biso   1.000  H
  H74      1.0000 0.59980  0.51560  0.42980  Biso   1.000  H
  H75      1.0000 0.03120  0.71800  0.96220  Biso   1.000  H
  H76      1.0000 0.46880  0.21800  0.53780  Biso   1.000  H
  H77      1.0000 0.96880  0.28200  0.03780  Biso   1.000  H
  H78      1.0000 0.53120  0.78200  0.46220  Biso   1.000  H
  H79      1.0000 0.08090  0.62570  0.04230  Biso   1.000  H
  H80      1.0000 0.41910  0.12570  0.45770  Biso   1.000  H
  H81      1.0000 0.91910  0.37430  0.95770  Biso   1.000  H
  H82      1.0000 0.58090  0.87430  0.54230  Biso   1.000  H
  H83      1.0000 0.18940  0.82560  0.08520  Biso   1.000  H
  H84      1.0000 0.31060  0.32560  0.41480  Biso   1.000  H
  H85      1.0000 0.81060  0.17440  0.91480  Biso   1.000  H
  H86      1.0000 0.68940  0.67440  0.58520  Biso   1.000  H
  H87      1.0000 0.79319  0.42214  0.19848  Biso   1.000  H
  H88      1.0000 0.70681  0.92214  0.30152  Biso   1.000  H
  H89      1.0000 0.20681  0.57786  0.80152  Biso   1.000  H
  H90      1.0000 0.29319  0.07786  0.69848  Biso   1.000  H
  H91      1.0000 0.86204  0.29461  0.18482  Biso   1.000  H
  H92      1.0000 0.63796  0.79461  0.31518  Biso   1.000  H
  H93      1.0000 0.13796  0.70539  0.81518  Biso   1.000  H
  H94      1.0000 0.36204  0.20539  0.68482  Biso   1.000  H
  H95      1.0000 0.99165  0.00396  0.16715  Biso   1.000  H
  H96      1.0000 0.50835  0.50396  0.33285  Biso   1.000  H
  H97      1.0000 0.00835  0.99604  0.83285  Biso   1.000  H
  H98      1.0000 0.49165  0.49604  0.66715  Biso   1.000  H
  H99      1.0000 0.91066  0.90987  0.14131  Biso   1.000  H
  H100     1.0000 0.58934  0.40987  0.35869  Biso   1.000  H
  H101     1.0000 0.08934  0.09013  0.85869  Biso   1.000  H
  H102     1.0000 0.41066  0.59013  0.64131  Biso   1.000  H
  H103     1.0000 0.66290  0.19956  0.24972  Biso   1.000  H
  H104     1.0000 0.83710  0.69956  0.25028  Biso   1.000  H
  H105     1.0000 0.33710  0.80044  0.75028  Biso   1.000  H
  H106     1.0000 0.16290  0.30044  0.74972  Biso   1.000  H
  H107     1.0000 0.58020  0.25370  0.30090  Biso   1.000  H
  H108     1.0000 0.91980  0.75370  0.19910  Biso   1.000  H
  H109     1.0000 0.41980  0.74630  0.69910  Biso   1.000  H
  H110     1.0000 0.08020  0.24630  0.80090  Biso   1.000  H
  H111     1.0000 0.17583  0.42369  0.12269  Biso   1.000  H
  H112     1.0000 0.32417  0.92369  0.37731  Biso   1.000  H
  H113     1.0000 0.82417  0.57631  0.87731  Biso   1.000  H
  H114     1.0000 0.67583  0.07631  0.62269  Biso   1.000  H
  H115     1.0000 0.11360  0.27714  0.13301  Biso   1.000  H
  H116     1.0000 0.38640  0.77714  0.36699  Biso   1.000  H
  H117     1.0000 0.88640  0.72286  0.86699  Biso   1.000  H
  H118     1.0000 0.61360  0.22286  0.63301  Biso   1.000  H
