data_image0
_cell_length_a       10.613
_cell_length_b       15.402
_cell_length_c       12.928
_cell_angle_alpha    90
_cell_angle_beta     93.35
_cell_angle_gamma    90

_symmetry_space_group_name_H-M    "P 1"
_symmetry_int_tables_number       1

loop_
  _symmetry_equiv_pos_as_xyz
  'x, y, z'

loop_
  _atom_site_label
  _atom_site_occupancy
  _atom_site_fract_x
  _atom_site_fract_y
  _atom_site_fract_z
  _atom_site_thermal_displace_type
  _atom_site_B_iso_or_equiv
  _atom_site_type_symbol
  O1       1.0000 0.41380  0.30353  0.04860  Biso   1.000  O
  O2       1.0000 0.91380  0.80353  0.04860  Biso   1.000  O
  O3       1.0000 0.58620  0.30353  0.45140  Biso   1.000  O
  O4       1.0000 0.08620  0.80353  0.45140  Biso   1.000  O
  O5       1.0000 0.58620  0.69647  0.95140  Biso   1.000  O
  O6       1.0000 0.08620  0.19647  0.95140  Biso   1.000  O
  O7       1.0000 0.41380  0.69647  0.54860  Biso   1.000  O
  O8       1.0000 0.91380  0.19647  0.54860  Biso   1.000  O
  O9       1.0000 0.15990  0.07150  0.89340  Biso   1.000  O
  O10      1.0000 0.65990  0.57150  0.89340  Biso   1.000  O
  O11      1.0000 0.84010  0.07150  0.60660  Biso   1.000  O
  O12      1.0000 0.34010  0.57150  0.60660  Biso   1.000  O
  O13      1.0000 0.84010  0.92850  0.10660  Biso   1.000  O
  O14      1.0000 0.34010  0.42850  0.10660  Biso   1.000  O
  O15      1.0000 0.15990  0.92850  0.39340  Biso   1.000  O
  O16      1.0000 0.65990  0.42850  0.39340  Biso   1.000  O
  O17      1.0000 0.37360  0.13310  0.91820  Biso   1.000  O
  O18      1.0000 0.87360  0.63310  0.91820  Biso   1.000  O
  O19      1.0000 0.62640  0.13310  0.58180  Biso   1.000  O
  O20      1.0000 0.12640  0.63310  0.58180  Biso   1.000  O
  O21      1.0000 0.62640  0.86690  0.08180  Biso   1.000  O
  O22      1.0000 0.12640  0.36690  0.08180  Biso   1.000  O
  O23      1.0000 0.37360  0.86690  0.41820  Biso   1.000  O
  O24      1.0000 0.87360  0.36690  0.41820  Biso   1.000  O
  O25      1.0000 0.46740  0.01283  0.87210  Biso   1.000  O
  O26      1.0000 0.96740  0.51283  0.87210  Biso   1.000  O
  O27      1.0000 0.53260  0.01283  0.62790  Biso   1.000  O
  O28      1.0000 0.03260  0.51283  0.62790  Biso   1.000  O
  O29      1.0000 0.53260  0.98717  0.12790  Biso   1.000  O
  O30      1.0000 0.03260  0.48717  0.12790  Biso   1.000  O
  O31      1.0000 0.46740  0.98717  0.37210  Biso   1.000  O
  O32      1.0000 0.96740  0.48717  0.37210  Biso   1.000  O
  N1       1.0000 0.24660  0.18386  0.12970  Biso   1.000  N
  N2       1.0000 0.74660  0.68386  0.12970  Biso   1.000  N
  N3       1.0000 0.75340  0.18386  0.37030  Biso   1.000  N
  N4       1.0000 0.25340  0.68386  0.37030  Biso   1.000  N
  N5       1.0000 0.75340  0.81614  0.87030  Biso   1.000  N
  N6       1.0000 0.25340  0.31614  0.87030  Biso   1.000  N
  N7       1.0000 0.24660  0.81614  0.62970  Biso   1.000  N
  N8       1.0000 0.74660  0.31614  0.62970  Biso   1.000  N
  N9       1.0000 0.30280  0.09780  0.25750  Biso   1.000  N
  N10      1.0000 0.80280  0.59780  0.25750  Biso   1.000  N
  N11      1.0000 0.69720  0.09780  0.24250  Biso   1.000  N
  N12      1.0000 0.19720  0.59780  0.24250  Biso   1.000  N
  N13      1.0000 0.69720  0.90220  0.74250  Biso   1.000  N
  N14      1.0000 0.19720  0.40220  0.74250  Biso   1.000  N
  N15      1.0000 0.30280  0.90220  0.75750  Biso   1.000  N
  N16      1.0000 0.80280  0.40220  0.75750  Biso   1.000  N
  C1       1.0000 0.42770  0.37790  0.08620  Biso   1.000  C
  C2       1.0000 0.92770  0.87790  0.08620  Biso   1.000  C
  C3       1.0000 0.57230  0.37790  0.41380  Biso   1.000  C
  C4       1.0000 0.07230  0.87790  0.41380  Biso   1.000  C
  C5       1.0000 0.57230  0.62210  0.91380  Biso   1.000  C
  C6       1.0000 0.07230  0.12210  0.91380  Biso   1.000  C
  C7       1.0000 0.42770  0.62210  0.58620  Biso   1.000  C
  C8       1.0000 0.92770  0.12210  0.58620  Biso   1.000  C
  C9       1.0000 0.93960  0.08700  0.89430  Biso   1.000  C
  C10      1.0000 0.43960  0.58700  0.89430  Biso   1.000  C
  C11      1.0000 0.06040  0.08700  0.60570  Biso   1.000  C
  C12      1.0000 0.56040  0.58700  0.60570  Biso   1.000  C
  C13      1.0000 0.06040  0.91300  0.10570  Biso   1.000  C
  C14      1.0000 0.56040  0.41300  0.10570  Biso   1.000  C
  C15      1.0000 0.93960  0.91300  0.39430  Biso   1.000  C
  C16      1.0000 0.43960  0.41300  0.39430  Biso   1.000  C
  C17      1.0000 0.83150  0.14090  0.91700  Biso   1.000  C
  C18      1.0000 0.33150  0.64090  0.91700  Biso   1.000  C
  C19      1.0000 0.16850  0.14090  0.58300  Biso   1.000  C
  C20      1.0000 0.66850  0.64090  0.58300  Biso   1.000  C
  C21      1.0000 0.16850  0.85910  0.08300  Biso   1.000  C
  C22      1.0000 0.66850  0.35910  0.08300  Biso   1.000  C
  C23      1.0000 0.83150  0.85910  0.41700  Biso   1.000  C
  C24      1.0000 0.33150  0.35910  0.41700  Biso   1.000  C
  C25      1.0000 0.70820  0.09120  0.89700  Biso   1.000  C
  C26      1.0000 0.20820  0.59120  0.89700  Biso   1.000  C
  C27      1.0000 0.29180  0.09120  0.60300  Biso   1.000  C
  C28      1.0000 0.79180  0.59120  0.60300  Biso   1.000  C
  C29      1.0000 0.29180  0.90880  0.10300  Biso   1.000  C
  C30      1.0000 0.79180  0.40880  0.10300  Biso   1.000  C
  C31      1.0000 0.70820  0.90880  0.39700  Biso   1.000  C
  C32      1.0000 0.20820  0.40880  0.39700  Biso   1.000  C
  C33      1.0000 0.59370  0.13640  0.92350  Biso   1.000  C
  C34      1.0000 0.09370  0.63640  0.92350  Biso   1.000  C
  C35      1.0000 0.40630  0.13640  0.57650  Biso   1.000  C
  C36      1.0000 0.90630  0.63640  0.57650  Biso   1.000  C
  C37      1.0000 0.40630  0.86360  0.07650  Biso   1.000  C
  C38      1.0000 0.90630  0.36360  0.07650  Biso   1.000  C
  C39      1.0000 0.59370  0.86360  0.42350  Biso   1.000  C
  C40      1.0000 0.09370  0.36360  0.42350  Biso   1.000  C
  C41      1.0000 0.47270  0.08740  0.90210  Biso   1.000  C
  C42      1.0000 0.97270  0.58740  0.90210  Biso   1.000  C
  C43      1.0000 0.52730  0.08740  0.59790  Biso   1.000  C
  C44      1.0000 0.02730  0.58740  0.59790  Biso   1.000  C
  C45      1.0000 0.52730  0.91260  0.09790  Biso   1.000  C
  C46      1.0000 0.02730  0.41260  0.09790  Biso   1.000  C
  C47      1.0000 0.47270  0.91260  0.40210  Biso   1.000  C
  C48      1.0000 0.97270  0.41260  0.40210  Biso   1.000  C
  C49      1.0000 0.14440  0.16520  0.18560  Biso   1.000  C
  C50      1.0000 0.64440  0.66520  0.18560  Biso   1.000  C
  C51      1.0000 0.85560  0.16520  0.31440  Biso   1.000  C
  C52      1.0000 0.35560  0.66520  0.31440  Biso   1.000  C
  C53      1.0000 0.85560  0.83480  0.81440  Biso   1.000  C
  C54      1.0000 0.35560  0.33480  0.81440  Biso   1.000  C
  C55      1.0000 0.14440  0.83480  0.68560  Biso   1.000  C
  C56      1.0000 0.64440  0.33480  0.68560  Biso   1.000  C
  Cu1      1.0000 0.25000  0.25000  0.00000  Biso   1.000  Cu
  Cu2      1.0000 0.75000  0.75000  0.00000  Biso   1.000  Cu
  Cu3      1.0000 0.75000  0.25000  0.50000  Biso   1.000  Cu
  Cu4      1.0000 0.25000  0.75000  0.50000  Biso   1.000  Cu
  C57      1.0000 0.17900  0.11180  0.26410  Biso   1.000  C
  C58      1.0000 0.67900  0.61180  0.26410  Biso   1.000  C
  C59      1.0000 0.82100  0.11180  0.23590  Biso   1.000  C
  C60      1.0000 0.32100  0.61180  0.23590  Biso   1.000  C
  C61      1.0000 0.82100  0.88820  0.73590  Biso   1.000  C
  C62      1.0000 0.32100  0.38820  0.73590  Biso   1.000  C
  C63      1.0000 0.17900  0.88820  0.76410  Biso   1.000  C
  C64      1.0000 0.67900  0.38820  0.76410  Biso   1.000  C
  C65      1.0000 0.34010  0.14110  0.17600  Biso   1.000  C
  C66      1.0000 0.84010  0.64110  0.17600  Biso   1.000  C
  C67      1.0000 0.65990  0.14110  0.32400  Biso   1.000  C
  C68      1.0000 0.15990  0.64110  0.32400  Biso   1.000  C
  C69      1.0000 0.65990  0.85890  0.82400  Biso   1.000  C
  C70      1.0000 0.15990  0.35890  0.82400  Biso   1.000  C
  C71      1.0000 0.34010  0.85890  0.67600  Biso   1.000  C
  C72      1.0000 0.84010  0.35890  0.67600  Biso   1.000  C
  H1       1.0000 0.28910  0.10510  0.90180  Biso   1.000  H
  H2       1.0000 0.78910  0.60510  0.90180  Biso   1.000  H
  H3       1.0000 0.71090  0.10510  0.59820  Biso   1.000  H
  H4       1.0000 0.21090  0.60510  0.59820  Biso   1.000  H
  H5       1.0000 0.71090  0.89490  0.09820  Biso   1.000  H
  H6       1.0000 0.21090  0.39490  0.09820  Biso   1.000  H
  H7       1.0000 0.28910  0.89490  0.40180  Biso   1.000  H
  H8       1.0000 0.78910  0.39490  0.40180  Biso   1.000  H
  H9       1.0000 0.33800  0.06740  0.29130  Biso   1.000  H
  H10      1.0000 0.83800  0.56740  0.29130  Biso   1.000  H
  H11      1.0000 0.66200  0.06740  0.20870  Biso   1.000  H
  H12      1.0000 0.16200  0.56740  0.20870  Biso   1.000  H
  H13      1.0000 0.66200  0.93260  0.70870  Biso   1.000  H
  H14      1.0000 0.16200  0.43260  0.70870  Biso   1.000  H
  H15      1.0000 0.33800  0.93260  0.79130  Biso   1.000  H
  H16      1.0000 0.83800  0.43260  0.79130  Biso   1.000  H
  H17      1.0000 0.93760  0.03270  0.91950  Biso   1.000  H
  H18      1.0000 0.43760  0.53270  0.91950  Biso   1.000  H
  H19      1.0000 0.06240  0.03270  0.58050  Biso   1.000  H
  H20      1.0000 0.56240  0.53270  0.58050  Biso   1.000  H
  H21      1.0000 0.06240  0.96730  0.08050  Biso   1.000  H
  H22      1.0000 0.56240  0.46730  0.08050  Biso   1.000  H
  H23      1.0000 0.93760  0.96730  0.41950  Biso   1.000  H
  H24      1.0000 0.43760  0.46730  0.41950  Biso   1.000  H
  H25      1.0000 0.93280  0.07730  0.82410  Biso   1.000  H
  H26      1.0000 0.43280  0.57730  0.82410  Biso   1.000  H
  H27      1.0000 0.06720  0.07730  0.67590  Biso   1.000  H
  H28      1.0000 0.56720  0.57730  0.67590  Biso   1.000  H
  H29      1.0000 0.06720  0.92270  0.17590  Biso   1.000  H
  H30      1.0000 0.56720  0.42270  0.17590  Biso   1.000  H
  H31      1.0000 0.93280  0.92270  0.32410  Biso   1.000  H
  H32      1.0000 0.43280  0.42270  0.32410  Biso   1.000  H
  H33      1.0000 0.84060  0.16730  0.98900  Biso   1.000  H
  H34      1.0000 0.34060  0.66730  0.98900  Biso   1.000  H
  H35      1.0000 0.15940  0.16730  0.51100  Biso   1.000  H
  H36      1.0000 0.65940  0.66730  0.51100  Biso   1.000  H
  H37      1.0000 0.15940  0.83270  0.01100  Biso   1.000  H
  H38      1.0000 0.65940  0.33270  0.01100  Biso   1.000  H
  H39      1.0000 0.84060  0.83270  0.48900  Biso   1.000  H
  H40      1.0000 0.34060  0.33270  0.48900  Biso   1.000  H
  H41      1.0000 0.83050  0.19060  0.87280  Biso   1.000  H
  H42      1.0000 0.33050  0.69060  0.87280  Biso   1.000  H
  H43      1.0000 0.16950  0.19060  0.62720  Biso   1.000  H
  H44      1.0000 0.66950  0.69060  0.62720  Biso   1.000  H
  H45      1.0000 0.16950  0.80940  0.12720  Biso   1.000  H
  H46      1.0000 0.66950  0.30940  0.12720  Biso   1.000  H
  H47      1.0000 0.83050  0.80940  0.37280  Biso   1.000  H
  H48      1.0000 0.33050  0.30940  0.37280  Biso   1.000  H
  H49      1.0000 0.70210  0.08590  0.81750  Biso   1.000  H
  H50      1.0000 0.20210  0.58590  0.81750  Biso   1.000  H
  H51      1.0000 0.29790  0.08590  0.68250  Biso   1.000  H
  H52      1.0000 0.79790  0.58590  0.68250  Biso   1.000  H
  H53      1.0000 0.29790  0.91410  0.18250  Biso   1.000  H
  H54      1.0000 0.79790  0.41410  0.18250  Biso   1.000  H
  H55      1.0000 0.70210  0.91410  0.31750  Biso   1.000  H
  H56      1.0000 0.20210  0.41410  0.31750  Biso   1.000  H
  H57      1.0000 0.70260  0.03480  0.93940  Biso   1.000  H
  H58      1.0000 0.20260  0.53480  0.93940  Biso   1.000  H
  H59      1.0000 0.29740  0.03480  0.56060  Biso   1.000  H
  H60      1.0000 0.79740  0.53480  0.56060  Biso   1.000  H
  H61      1.0000 0.29740  0.96520  0.06060  Biso   1.000  H
  H62      1.0000 0.79740  0.46520  0.06060  Biso   1.000  H
  H63      1.0000 0.70260  0.96520  0.43940  Biso   1.000  H
  H64      1.0000 0.20260  0.46520  0.43940  Biso   1.000  H
  H65      1.0000 0.59740  0.15860  0.99310  Biso   1.000  H
  H66      1.0000 0.09740  0.65860  0.99310  Biso   1.000  H
  H67      1.0000 0.40260  0.15860  0.50690  Biso   1.000  H
  H68      1.0000 0.90260  0.65860  0.50690  Biso   1.000  H
  H69      1.0000 0.40260  0.84140  0.00690  Biso   1.000  H
  H70      1.0000 0.90260  0.34140  0.00690  Biso   1.000  H
  H71      1.0000 0.59740  0.84140  0.49310  Biso   1.000  H
  H72      1.0000 0.09740  0.34140  0.49310  Biso   1.000  H
  H73      1.0000 0.60470  0.19010  0.87410  Biso   1.000  H
  H74      1.0000 0.10470  0.69010  0.87410  Biso   1.000  H
  H75      1.0000 0.39530  0.19010  0.62590  Biso   1.000  H
  H76      1.0000 0.89530  0.69010  0.62590  Biso   1.000  H
  H77      1.0000 0.39530  0.80990  0.12590  Biso   1.000  H
  H78      1.0000 0.89530  0.30990  0.12590  Biso   1.000  H
  H79      1.0000 0.60470  0.80990  0.37410  Biso   1.000  H
  H80      1.0000 0.10470  0.30990  0.37410  Biso   1.000  H
  H81      1.0000 0.07110  0.18530  0.16570  Biso   1.000  H
  H82      1.0000 0.57110  0.68530  0.16570  Biso   1.000  H
  H83      1.0000 0.92890  0.18530  0.33430  Biso   1.000  H
  H84      1.0000 0.42890  0.68530  0.33430  Biso   1.000  H
  H85      1.0000 0.92890  0.81470  0.83430  Biso   1.000  H
  H86      1.0000 0.42890  0.31470  0.83430  Biso   1.000  H
  H87      1.0000 0.07110  0.81470  0.66570  Biso   1.000  H
  H88      1.0000 0.57110  0.31470  0.66570  Biso   1.000  H
  H89      1.0000 0.13480  0.08680  0.32090  Biso   1.000  H
  H90      1.0000 0.63480  0.58680  0.32090  Biso   1.000  H
  H91      1.0000 0.86520  0.08680  0.17910  Biso   1.000  H
  H92      1.0000 0.36520  0.58680  0.17910  Biso   1.000  H
  H93      1.0000 0.86520  0.91320  0.67910  Biso   1.000  H
  H94      1.0000 0.36520  0.41320  0.67910  Biso   1.000  H
  H95      1.0000 0.13480  0.91320  0.82090  Biso   1.000  H
  H96      1.0000 0.63480  0.41320  0.82090  Biso   1.000  H
  H97      1.0000 0.40960  0.14120  0.15600  Biso   1.000  H
  H98      1.0000 0.90960  0.64120  0.15600  Biso   1.000  H
  H99      1.0000 0.59040  0.14120  0.34400  Biso   1.000  H
  H100     1.0000 0.09040  0.64120  0.34400  Biso   1.000  H
  H101     1.0000 0.59040  0.85880  0.84400  Biso   1.000  H
  H102     1.0000 0.09040  0.35880  0.84400  Biso   1.000  H
  H103     1.0000 0.40960  0.85880  0.65600  Biso   1.000  H
  H104     1.0000 0.90960  0.35880  0.65600  Biso   1.000  H
