data_image0
_cell_length_a       10.59
_cell_length_b       15.391
_cell_length_c       12.93
_cell_angle_alpha    90
_cell_angle_beta     93.34
_cell_angle_gamma    90

_symmetry_space_group_name_H-M    "P 1"
_symmetry_int_tables_number       1

loop_
  _symmetry_equiv_pos_as_xyz
  'x, y, z'

loop_
  _atom_site_label
  _atom_site_occupancy
  _atom_site_fract_x
  _atom_site_fract_y
  _atom_site_fract_z
  _atom_site_thermal_displace_type
  _atom_site_B_iso_or_equiv
  _atom_site_type_symbol
  Cu1      1.0000 0.75000  0.25000  0.50000  Biso   1.000  Cu
  Cu2      1.0000 0.25000  0.75000  0.50000  Biso   1.000  Cu
  Cu3      1.0000 0.75000  0.75000  0.00000  Biso   1.000  Cu
  Cu4      1.0000 0.25000  0.25000  0.00000  Biso   1.000  Cu
  O1       1.0000 0.58620  0.30359  0.45126  Biso   1.000  O
  O2       1.0000 0.08620  0.80359  0.45126  Biso   1.000  O
  O3       1.0000 0.58620  0.69641  0.95126  Biso   1.000  O
  O4       1.0000 0.08620  0.19641  0.95126  Biso   1.000  O
  O5       1.0000 0.41380  0.69641  0.54874  Biso   1.000  O
  O6       1.0000 0.91380  0.19641  0.54874  Biso   1.000  O
  O7       1.0000 0.41380  0.30359  0.04874  Biso   1.000  O
  O8       1.0000 0.91380  0.80359  0.04874  Biso   1.000  O
  O9       1.0000 0.65999  0.42850  0.39330  Biso   1.000  O
  O10      1.0000 0.15999  0.92850  0.39330  Biso   1.000  O
  O11      1.0000 0.65999  0.57150  0.89330  Biso   1.000  O
  O12      1.0000 0.15999  0.07150  0.89330  Biso   1.000  O
  O13      1.0000 0.34001  0.57150  0.60670  Biso   1.000  O
  O14      1.0000 0.84001  0.07150  0.60670  Biso   1.000  O
  O15      1.0000 0.34001  0.42850  0.10670  Biso   1.000  O
  O16      1.0000 0.84001  0.92850  0.10670  Biso   1.000  O
  C1       1.0000 0.57230  0.37817  0.41420  Biso   1.000  C
  C2       1.0000 0.07230  0.87817  0.41420  Biso   1.000  C
  C3       1.0000 0.57230  0.62183  0.91420  Biso   1.000  C
  C4       1.0000 0.07230  0.12183  0.91420  Biso   1.000  C
  C5       1.0000 0.42770  0.62183  0.58580  Biso   1.000  C
  C6       1.0000 0.92770  0.12183  0.58580  Biso   1.000  C
  C7       1.0000 0.42770  0.37817  0.08580  Biso   1.000  C
  C8       1.0000 0.92770  0.87817  0.08580  Biso   1.000  C
  C9       1.0000 0.43990  0.41310  0.39370  Biso   1.000  C
  C10      1.0000 0.93990  0.91310  0.39370  Biso   1.000  C
  C11      1.0000 0.43990  0.58690  0.89370  Biso   1.000  C
  C12      1.0000 0.93990  0.08690  0.89370  Biso   1.000  C
  C13      1.0000 0.56010  0.58690  0.60630  Biso   1.000  C
  C14      1.0000 0.06010  0.08690  0.60630  Biso   1.000  C
  C15      1.0000 0.56010  0.41310  0.10630  Biso   1.000  C
  C16      1.0000 0.06010  0.91310  0.10630  Biso   1.000  C
  H1       1.0000 0.43390  0.46670  0.43260  Biso   1.000  H
  H2       1.0000 0.93390  0.96670  0.43260  Biso   1.000  H
  H3       1.0000 0.43390  0.53330  0.93260  Biso   1.000  H
  H4       1.0000 0.93390  0.03330  0.93260  Biso   1.000  H
  H5       1.0000 0.56610  0.53330  0.56740  Biso   1.000  H
  H6       1.0000 0.06610  0.03330  0.56740  Biso   1.000  H
  H7       1.0000 0.56610  0.46670  0.06740  Biso   1.000  H
  H8       1.0000 0.06610  0.96670  0.06740  Biso   1.000  H
  H9       1.0000 0.43030  0.42840  0.32080  Biso   1.000  H
  H10      1.0000 0.93030  0.92840  0.32080  Biso   1.000  H
  H11      1.0000 0.43030  0.57160  0.82080  Biso   1.000  H
  H12      1.0000 0.93030  0.07160  0.82080  Biso   1.000  H
  H13      1.0000 0.56970  0.57160  0.67920  Biso   1.000  H
  H14      1.0000 0.06970  0.07160  0.67920  Biso   1.000  H
  H15      1.0000 0.56970  0.42840  0.17920  Biso   1.000  H
  H16      1.0000 0.06970  0.92840  0.17920  Biso   1.000  H
  C17      1.0000 0.33130  0.35910  0.41710  Biso   1.000  C
  C18      1.0000 0.83130  0.85910  0.41710  Biso   1.000  C
  C19      1.0000 0.33130  0.64090  0.91710  Biso   1.000  C
  C20      1.0000 0.83130  0.14090  0.91710  Biso   1.000  C
  C21      1.0000 0.66870  0.64090  0.58290  Biso   1.000  C
  C22      1.0000 0.16870  0.14090  0.58290  Biso   1.000  C
  C23      1.0000 0.66870  0.35910  0.08290  Biso   1.000  C
  C24      1.0000 0.16870  0.85910  0.08290  Biso   1.000  C
  H17      1.0000 0.33930  0.34140  0.48920  Biso   1.000  H
  H18      1.0000 0.83930  0.84140  0.48920  Biso   1.000  H
  H19      1.0000 0.33930  0.65860  0.98920  Biso   1.000  H
  H20      1.0000 0.83930  0.15860  0.98920  Biso   1.000  H
  H21      1.0000 0.66070  0.65860  0.51080  Biso   1.000  H
  H22      1.0000 0.16070  0.15860  0.51080  Biso   1.000  H
  H23      1.0000 0.66070  0.34140  0.01080  Biso   1.000  H
  H24      1.0000 0.16070  0.84140  0.01080  Biso   1.000  H
  H25      1.0000 0.33050  0.30710  0.37460  Biso   1.000  H
  H26      1.0000 0.83050  0.80710  0.37460  Biso   1.000  H
  H27      1.0000 0.33050  0.69290  0.87460  Biso   1.000  H
  H28      1.0000 0.83050  0.19290  0.87460  Biso   1.000  H
  H29      1.0000 0.66950  0.69290  0.62540  Biso   1.000  H
  H30      1.0000 0.16950  0.19290  0.62540  Biso   1.000  H
  H31      1.0000 0.66950  0.30710  0.12540  Biso   1.000  H
  H32      1.0000 0.16950  0.80710  0.12540  Biso   1.000  H
  C25      1.0000 0.20800  0.40840  0.39660  Biso   1.000  C
  C26      1.0000 0.70800  0.90840  0.39660  Biso   1.000  C
  C27      1.0000 0.20800  0.59160  0.89660  Biso   1.000  C
  C28      1.0000 0.70800  0.09160  0.89660  Biso   1.000  C
  C29      1.0000 0.79200  0.59160  0.60340  Biso   1.000  C
  C30      1.0000 0.29200  0.09160  0.60340  Biso   1.000  C
  C31      1.0000 0.79200  0.40840  0.10340  Biso   1.000  C
  C32      1.0000 0.29200  0.90840  0.10340  Biso   1.000  C
  H33      1.0000 0.21360  0.46260  0.43480  Biso   1.000  H
  H34      1.0000 0.71360  0.96260  0.43480  Biso   1.000  H
  H35      1.0000 0.21360  0.53740  0.93480  Biso   1.000  H
  H36      1.0000 0.71360  0.03740  0.93480  Biso   1.000  H
  H37      1.0000 0.78640  0.53740  0.56520  Biso   1.000  H
  H38      1.0000 0.28640  0.03740  0.56520  Biso   1.000  H
  H39      1.0000 0.78640  0.46260  0.06520  Biso   1.000  H
  H40      1.0000 0.28640  0.96260  0.06520  Biso   1.000  H
  H41      1.0000 0.19950  0.42280  0.32350  Biso   1.000  H
  H42      1.0000 0.69950  0.92280  0.32350  Biso   1.000  H
  H43      1.0000 0.19950  0.57720  0.82350  Biso   1.000  H
  H44      1.0000 0.69950  0.07720  0.82350  Biso   1.000  H
  H45      1.0000 0.80050  0.57720  0.67650  Biso   1.000  H
  H46      1.0000 0.30050  0.07720  0.67650  Biso   1.000  H
  H47      1.0000 0.80050  0.42280  0.17650  Biso   1.000  H
  H48      1.0000 0.30050  0.92280  0.17650  Biso   1.000  H
  C33      1.0000 0.09430  0.36350  0.42380  Biso   1.000  C
  C34      1.0000 0.59430  0.86350  0.42380  Biso   1.000  C
  C35      1.0000 0.09430  0.63650  0.92380  Biso   1.000  C
  C36      1.0000 0.59430  0.13650  0.92380  Biso   1.000  C
  C37      1.0000 0.90570  0.63650  0.57620  Biso   1.000  C
  C38      1.0000 0.40570  0.13650  0.57620  Biso   1.000  C
  C39      1.0000 0.90570  0.36350  0.07620  Biso   1.000  C
  C40      1.0000 0.40570  0.86350  0.07620  Biso   1.000  C
  H49      1.0000 0.10220  0.34970  0.49710  Biso   1.000  H
  H50      1.0000 0.60220  0.84970  0.49710  Biso   1.000  H
  H51      1.0000 0.10220  0.65030  0.99710  Biso   1.000  H
  H52      1.0000 0.60220  0.15030  0.99710  Biso   1.000  H
  H53      1.0000 0.89780  0.65030  0.50290  Biso   1.000  H
  H54      1.0000 0.39780  0.15030  0.50290  Biso   1.000  H
  H55      1.0000 0.89780  0.34970  0.00290  Biso   1.000  H
  H56      1.0000 0.39780  0.84970  0.00290  Biso   1.000  H
  H57      1.0000 0.08900  0.30890  0.38620  Biso   1.000  H
  H58      1.0000 0.58900  0.80890  0.38620  Biso   1.000  H
  H59      1.0000 0.08900  0.69110  0.88620  Biso   1.000  H
  H60      1.0000 0.58900  0.19110  0.88620  Biso   1.000  H
  H61      1.0000 0.91100  0.69110  0.61380  Biso   1.000  H
  H62      1.0000 0.41100  0.19110  0.61380  Biso   1.000  H
  H63      1.0000 0.91100  0.30890  0.11380  Biso   1.000  H
  H64      1.0000 0.41100  0.80890  0.11380  Biso   1.000  H
  C41      1.0000 0.97240  0.41227  0.40210  Biso   1.000  C
  C42      1.0000 0.47240  0.91227  0.40210  Biso   1.000  C
  C43      1.0000 0.97240  0.58773  0.90210  Biso   1.000  C
  C44      1.0000 0.47240  0.08773  0.90210  Biso   1.000  C
  C45      1.0000 0.02760  0.58773  0.59790  Biso   1.000  C
  C46      1.0000 0.52760  0.08773  0.59790  Biso   1.000  C
  C47      1.0000 0.02760  0.41227  0.09790  Biso   1.000  C
  C48      1.0000 0.52760  0.91227  0.09790  Biso   1.000  C
  O17      1.0000 0.87380  0.36687  0.41840  Biso   1.000  O
  O18      1.0000 0.37380  0.86687  0.41840  Biso   1.000  O
  O19      1.0000 0.87380  0.63313  0.91840  Biso   1.000  O
  O20      1.0000 0.37380  0.13313  0.91840  Biso   1.000  O
  O21      1.0000 0.12620  0.63313  0.58160  Biso   1.000  O
  O22      1.0000 0.62620  0.13313  0.58160  Biso   1.000  O
  O23      1.0000 0.12620  0.36687  0.08160  Biso   1.000  O
  O24      1.0000 0.62620  0.86687  0.08160  Biso   1.000  O
  O25      1.0000 0.96763  0.48714  0.37250  Biso   1.000  O
  O26      1.0000 0.46763  0.98714  0.37250  Biso   1.000  O
  O27      1.0000 0.96763  0.51286  0.87250  Biso   1.000  O
  O28      1.0000 0.46763  0.01286  0.87250  Biso   1.000  O
  O29      1.0000 0.03237  0.51286  0.62750  Biso   1.000  O
  O30      1.0000 0.53237  0.01286  0.62750  Biso   1.000  O
  O31      1.0000 0.03237  0.48714  0.12750  Biso   1.000  O
  O32      1.0000 0.53237  0.98714  0.12750  Biso   1.000  O
  N1       1.0000 0.75322  0.18388  0.37026  Biso   1.000  N
  N2       1.0000 0.25322  0.68388  0.37026  Biso   1.000  N
  N3       1.0000 0.75322  0.81612  0.87026  Biso   1.000  N
  N4       1.0000 0.25322  0.31612  0.87026  Biso   1.000  N
  N5       1.0000 0.24678  0.81612  0.62974  Biso   1.000  N
  N6       1.0000 0.74678  0.31612  0.62974  Biso   1.000  N
  N7       1.0000 0.24678  0.18388  0.12974  Biso   1.000  N
  N8       1.0000 0.74678  0.68388  0.12974  Biso   1.000  N
  C49      1.0000 0.65900  0.14120  0.32410  Biso   1.000  C
  C50      1.0000 0.15900  0.64120  0.32410  Biso   1.000  C
  C51      1.0000 0.65900  0.85880  0.82410  Biso   1.000  C
  C52      1.0000 0.15900  0.35880  0.82410  Biso   1.000  C
  C53      1.0000 0.34100  0.85880  0.67590  Biso   1.000  C
  C54      1.0000 0.84100  0.35880  0.67590  Biso   1.000  C
  C55      1.0000 0.34100  0.14120  0.17590  Biso   1.000  C
  C56      1.0000 0.84100  0.64120  0.17590  Biso   1.000  C
  H65      1.0000 0.58500  0.14100  0.34500  Biso   1.000  H
  H66      1.0000 0.08500  0.64100  0.34500  Biso   1.000  H
  H67      1.0000 0.58500  0.85900  0.84500  Biso   1.000  H
  H68      1.0000 0.08500  0.35900  0.84500  Biso   1.000  H
  H69      1.0000 0.41500  0.85900  0.65500  Biso   1.000  H
  H70      1.0000 0.91500  0.35900  0.65500  Biso   1.000  H
  H71      1.0000 0.41500  0.14100  0.15500  Biso   1.000  H
  H72      1.0000 0.91500  0.64100  0.15500  Biso   1.000  H
  N9       1.0000 0.69680  0.09771  0.24240  Biso   1.000  N
  N10      1.0000 0.19680  0.59771  0.24240  Biso   1.000  N
  N11      1.0000 0.69680  0.90229  0.74240  Biso   1.000  N
  N12      1.0000 0.19680  0.40229  0.74240  Biso   1.000  N
  N13      1.0000 0.30320  0.90229  0.75760  Biso   1.000  N
  N14      1.0000 0.80320  0.40229  0.75760  Biso   1.000  N
  N15      1.0000 0.30320  0.09771  0.25760  Biso   1.000  N
  N16      1.0000 0.80320  0.59771  0.25760  Biso   1.000  N
  H73      1.0000 0.66400  0.06800  0.21100  Biso   1.000  H
  H74      1.0000 0.16400  0.56800  0.21100  Biso   1.000  H
  H75      1.0000 0.66400  0.93200  0.71100  Biso   1.000  H
  H76      1.0000 0.16400  0.43200  0.71100  Biso   1.000  H
  H77      1.0000 0.33600  0.93200  0.78900  Biso   1.000  H
  H78      1.0000 0.83600  0.43200  0.78900  Biso   1.000  H
  H79      1.0000 0.33600  0.06800  0.28900  Biso   1.000  H
  H80      1.0000 0.83600  0.56800  0.28900  Biso   1.000  H
  C57      1.0000 0.82110  0.11180  0.23600  Biso   1.000  C
  C58      1.0000 0.32110  0.61180  0.23600  Biso   1.000  C
  C59      1.0000 0.82110  0.88820  0.73600  Biso   1.000  C
  C60      1.0000 0.32110  0.38820  0.73600  Biso   1.000  C
  C61      1.0000 0.17890  0.88820  0.76400  Biso   1.000  C
  C62      1.0000 0.67890  0.38820  0.76400  Biso   1.000  C
  C63      1.0000 0.17890  0.11180  0.26400  Biso   1.000  C
  C64      1.0000 0.67890  0.61180  0.26400  Biso   1.000  C
  H81      1.0000 0.86600  0.08700  0.17800  Biso   1.000  H
  H82      1.0000 0.36600  0.58700  0.17800  Biso   1.000  H
  H83      1.0000 0.86600  0.91300  0.67800  Biso   1.000  H
  H84      1.0000 0.36600  0.41300  0.67800  Biso   1.000  H
  H85      1.0000 0.13400  0.91300  0.82200  Biso   1.000  H
  H86      1.0000 0.63400  0.41300  0.82200  Biso   1.000  H
  H87      1.0000 0.13400  0.08700  0.32200  Biso   1.000  H
  H88      1.0000 0.63400  0.58700  0.32200  Biso   1.000  H
  C65      1.0000 0.85610  0.16520  0.31500  Biso   1.000  C
  C66      1.0000 0.35610  0.66520  0.31500  Biso   1.000  C
  C67      1.0000 0.85610  0.83480  0.81500  Biso   1.000  C
  C68      1.0000 0.35610  0.33480  0.81500  Biso   1.000  C
  C69      1.0000 0.14390  0.83480  0.68500  Biso   1.000  C
  C70      1.0000 0.64390  0.33480  0.68500  Biso   1.000  C
  C71      1.0000 0.14390  0.16520  0.18500  Biso   1.000  C
  C72      1.0000 0.64390  0.66520  0.18500  Biso   1.000  C
  H89      1.0000 0.93900  0.19000  0.33400  Biso   1.000  H
  H90      1.0000 0.43900  0.69000  0.33400  Biso   1.000  H
  H91      1.0000 0.93900  0.81000  0.83400  Biso   1.000  H
  H92      1.0000 0.43900  0.31000  0.83400  Biso   1.000  H
  H93      1.0000 0.06100  0.81000  0.66600  Biso   1.000  H
  H94      1.0000 0.56100  0.31000  0.66600  Biso   1.000  H
  H95      1.0000 0.06100  0.19000  0.16600  Biso   1.000  H
  H96      1.0000 0.56100  0.69000  0.16600  Biso   1.000  H
  H97      1.0000 0.80000  0.39300  0.40100  Biso   1.000  H
  H98      1.0000 0.30000  0.89300  0.40100  Biso   1.000  H
  H99      1.0000 0.80000  0.60700  0.90100  Biso   1.000  H
  H100     1.0000 0.30000  0.10700  0.90100  Biso   1.000  H
  H101     1.0000 0.20000  0.60700  0.59900  Biso   1.000  H
  H102     1.0000 0.70000  0.10700  0.59900  Biso   1.000  H
  H103     1.0000 0.20000  0.39300  0.09900  Biso   1.000  H
  H104     1.0000 0.70000  0.89300  0.09900  Biso   1.000  H
