data_image0
_cell_length_a       11.559
_cell_length_b       15.852
_cell_length_c       30.32
_cell_angle_alpha    90
_cell_angle_beta     90
_cell_angle_gamma    90

_symmetry_space_group_name_H-M    "P 1"
_symmetry_int_tables_number       1

loop_
  _symmetry_equiv_pos_as_xyz
  'x, y, z'

loop_
  _atom_site_label
  _atom_site_occupancy
  _atom_site_fract_x
  _atom_site_fract_y
  _atom_site_fract_z
  _atom_site_thermal_displace_type
  _atom_site_B_iso_or_equiv
  _atom_site_type_symbol
  Cu1      1.0000 0.26044  0.52806  0.81906  Biso   1.000  Cu
  Cu2      1.0000 0.23956  0.47194  0.31906  Biso   1.000  Cu
  Cu3      1.0000 0.73956  0.02806  0.68094  Biso   1.000  Cu
  Cu4      1.0000 0.76044  0.97194  0.18094  Biso   1.000  Cu
  N1       1.0000 0.89960  0.53347  0.02128  Biso   1.000  N
  N2       1.0000 0.60040  0.46653  0.52128  Biso   1.000  N
  N3       1.0000 0.10040  0.03347  0.47872  Biso   1.000  N
  N4       1.0000 0.39960  0.96653  0.97872  Biso   1.000  N
  N5       1.0000 0.83490  0.40260  0.01985  Biso   1.000  N
  N6       1.0000 0.66510  0.59740  0.51985  Biso   1.000  N
  N7       1.0000 0.16510  0.90260  0.48015  Biso   1.000  N
  N8       1.0000 0.33490  0.09740  0.98015  Biso   1.000  N
  N9       1.0000 0.95920  0.65902  0.98190  Biso   1.000  N
  N10      1.0000 0.54080  0.34098  0.48190  Biso   1.000  N
  N11      1.0000 0.04080  0.15902  0.51810  Biso   1.000  N
  N12      1.0000 0.45920  0.84098  0.01810  Biso   1.000  N
  N13      1.0000 0.98450  0.72617  0.91856  Biso   1.000  N
  N14      1.0000 0.51550  0.27383  0.41856  Biso   1.000  N
  N15      1.0000 0.01550  0.22617  0.58144  Biso   1.000  N
  N16      1.0000 0.48450  0.77383  0.08144  Biso   1.000  N
  N17      1.0000 0.77090  0.28489  0.97523  Biso   1.000  N
  N18      1.0000 0.72910  0.71511  0.47523  Biso   1.000  N
  N19      1.0000 0.22910  0.78489  0.52477  Biso   1.000  N
  N20      1.0000 0.27090  0.21511  0.02477  Biso   1.000  N
  N21      1.0000 0.73600  0.24408  0.90657  Biso   1.000  N
  N22      1.0000 0.76400  0.75592  0.40657  Biso   1.000  N
  N23      1.0000 0.26400  0.74408  0.59343  Biso   1.000  N
  N24      1.0000 0.23600  0.25592  0.09343  Biso   1.000  N
  N25      1.0000 0.72900  0.24940  0.82675  Biso   1.000  N
  N26      1.0000 0.77100  0.75060  0.32675  Biso   1.000  N
  N27      1.0000 0.27100  0.74940  0.67325  Biso   1.000  N
  N28      1.0000 0.22900  0.25060  0.17325  Biso   1.000  N
  N29      1.0000 0.74940  0.30671  0.76107  Biso   1.000  N
  N30      1.0000 0.75060  0.69329  0.26107  Biso   1.000  N
  N31      1.0000 0.25060  0.80671  0.73893  Biso   1.000  N
  N32      1.0000 0.24940  0.19329  0.23893  Biso   1.000  N
  N33      1.0000 0.80850  0.43188  0.72156  Biso   1.000  N
  N34      1.0000 0.69150  0.56812  0.22156  Biso   1.000  N
  N35      1.0000 0.19150  0.93188  0.77844  Biso   1.000  N
  N36      1.0000 0.30850  0.06812  0.27844  Biso   1.000  N
  N37      1.0000 0.87750  0.56160  0.72822  Biso   1.000  N
  N38      1.0000 0.62250  0.43840  0.22822  Biso   1.000  N
  N39      1.0000 0.12250  0.06160  0.77178  Biso   1.000  N
  N40      1.0000 0.37750  0.93840  0.27178  Biso   1.000  N
  N41      1.0000 0.98020  0.73420  0.83850  Biso   1.000  N
  N42      1.0000 0.51980  0.26580  0.33850  Biso   1.000  N
  N43      1.0000 0.01980  0.23420  0.66150  Biso   1.000  N
  N44      1.0000 0.48020  0.76580  0.16150  Biso   1.000  N
  N45      1.0000 0.94400  0.67673  0.77365  Biso   1.000  N
  N46      1.0000 0.55600  0.32327  0.27365  Biso   1.000  N
  N47      1.0000 0.05600  0.17673  0.72635  Biso   1.000  N
  N48      1.0000 0.44400  0.82327  0.22635  Biso   1.000  N
  N49      1.0000 0.70310  0.58603  0.02688  Biso   1.000  N
  N50      1.0000 0.79690  0.41397  0.52688  Biso   1.000  N
  N51      1.0000 0.29690  0.08603  0.47312  Biso   1.000  N
  N52      1.0000 0.20310  0.91397  0.97312  Biso   1.000  N
  N53      1.0000 0.63630  0.45547  0.02399  Biso   1.000  N
  N54      1.0000 0.86370  0.54453  0.52399  Biso   1.000  N
  N55      1.0000 0.36370  0.95547  0.47601  Biso   1.000  N
  N56      1.0000 0.13630  0.04453  0.97601  Biso   1.000  N
  N57      1.0000 0.57220  0.33930  0.97861  Biso   1.000  N
  N58      1.0000 0.92780  0.66070  0.47861  Biso   1.000  N
  N59      1.0000 0.42780  0.83930  0.52139  Biso   1.000  N
  N60      1.0000 0.07220  0.16070  0.02139  Biso   1.000  N
  N61      1.0000 0.53450  0.28837  0.91236  Biso   1.000  N
  N62      1.0000 0.96550  0.71163  0.41236  Biso   1.000  N
  N63      1.0000 0.46550  0.78837  0.58764  Biso   1.000  N
  N64      1.0000 0.03450  0.21163  0.08764  Biso   1.000  N
  N65      1.0000 0.53160  0.30115  0.83229  Biso   1.000  N
  N66      1.0000 0.96840  0.69885  0.33229  Biso   1.000  N
  N67      1.0000 0.46840  0.80115  0.66771  Biso   1.000  N
  N68      1.0000 0.03160  0.19885  0.16771  Biso   1.000  N
  N69      1.0000 0.55680  0.36833  0.76876  Biso   1.000  N
  N70      1.0000 0.94320  0.63167  0.26876  Biso   1.000  N
  N71      1.0000 0.44320  0.86833  0.73124  Biso   1.000  N
  N72      1.0000 0.05680  0.13167  0.23124  Biso   1.000  N
  N73      1.0000 0.68240  0.62173  0.72597  Biso   1.000  N
  N74      1.0000 0.81760  0.37827  0.22597  Biso   1.000  N
  N75      1.0000 0.31760  0.12173  0.77403  Biso   1.000  N
  N76      1.0000 0.18240  0.87827  0.27403  Biso   1.000  N
  N77      1.0000 0.61350  0.49153  0.72762  Biso   1.000  N
  N78      1.0000 0.88650  0.50847  0.22762  Biso   1.000  N
  N79      1.0000 0.38650  0.99153  0.77238  Biso   1.000  N
  N80      1.0000 0.11350  0.00847  0.27238  Biso   1.000  N
  N81      1.0000 0.78210  0.76883  0.92079  Biso   1.000  N
  N82      1.0000 0.71790  0.23117  0.42079  Biso   1.000  N
  N83      1.0000 0.21790  0.26883  0.57921  Biso   1.000  N
  N84      1.0000 0.28210  0.73117  0.07921  Biso   1.000  N
  N85      1.0000 0.75960  0.70980  0.98595  Biso   1.000  N
  N86      1.0000 0.74040  0.29020  0.48595  Biso   1.000  N
  N87      1.0000 0.24040  0.20980  0.51405  Biso   1.000  N
  N88      1.0000 0.25960  0.79020  0.01405  Biso   1.000  N
  N89      1.0000 0.77710  0.77778  0.84119  Biso   1.000  N
  N90      1.0000 0.72290  0.22222  0.34119  Biso   1.000  N
  N91      1.0000 0.22290  0.27778  0.65881  Biso   1.000  N
  N92      1.0000 0.27710  0.72222  0.15881  Biso   1.000  N
  N93      1.0000 0.74930  0.73633  0.77202  Biso   1.000  N
  N94      1.0000 0.75070  0.26367  0.27202  Biso   1.000  N
  N95      1.0000 0.25070  0.23633  0.72798  Biso   1.000  N
  N96      1.0000 0.24930  0.76367  0.22798  Biso   1.000  N
  O1       1.0000 0.01490  0.42948  0.99115  Biso   1.000  O
  O2       1.0000 0.48510  0.57052  0.49115  Biso   1.000  O
  O3       1.0000 0.98510  0.92948  0.50885  Biso   1.000  O
  O4       1.0000 0.51490  0.07052  0.00885  Biso   1.000  O
  O5       1.0000 0.09890  0.61182  0.93398  Biso   1.000  O
  O6       1.0000 0.40110  0.38818  0.43398  Biso   1.000  O
  O7       1.0000 0.90110  0.11182  0.56602  Biso   1.000  O
  O8       1.0000 0.59890  0.88818  0.06602  Biso   1.000  O
  O9       1.0000 0.92400  0.27608  0.92703  Biso   1.000  O
  O10      1.0000 0.57600  0.72392  0.42703  Biso   1.000  O
  O11      1.0000 0.07600  0.77608  0.57297  Biso   1.000  O
  O12      1.0000 0.42400  0.22392  0.07297  Biso   1.000  O
  O13      1.0000 0.91290  0.28656  0.80332  Biso   1.000  O
  O14      1.0000 0.58710  0.71344  0.30332  Biso   1.000  O
  O15      1.0000 0.08710  0.78656  0.69668  Biso   1.000  O
  O16      1.0000 0.41290  0.21344  0.19668  Biso   1.000  O
  O17      1.0000 0.99400  0.44943  0.74717  Biso   1.000  O
  O18      1.0000 0.50600  0.55057  0.24717  Biso   1.000  O
  O19      1.0000 0.00600  0.94943  0.75283  Biso   1.000  O
  O20      1.0000 0.49400  0.05057  0.25283  Biso   1.000  O
  O21      1.0000 0.08450  0.61601  0.81792  Biso   1.000  O
  O22      1.0000 0.41550  0.38399  0.31792  Biso   1.000  O
  O23      1.0000 0.91550  0.11601  0.68208  Biso   1.000  O
  O24      1.0000 0.58450  0.88399  0.18208  Biso   1.000  O
  O25      1.0000 0.51850  0.56419  0.00016  Biso   1.000  O
  O26      1.0000 0.98150  0.43581  0.50016  Biso   1.000  O
  O27      1.0000 0.48150  0.06419  0.49984  Biso   1.000  O
  O28      1.0000 0.01850  0.93581  0.99984  Biso   1.000  O
  O29      1.0000 0.43160  0.40389  0.93728  Biso   1.000  O
  O30      1.0000 0.06840  0.59611  0.43728  Biso   1.000  O
  O31      1.0000 0.56840  0.90389  0.56272  Biso   1.000  O
  O32      1.0000 0.93160  0.09611  0.06272  Biso   1.000  O
  O33      1.0000 0.42620  0.42272  0.81906  Biso   1.000  O
  O34      1.0000 0.07380  0.57728  0.31906  Biso   1.000  O
  O35      1.0000 0.57380  0.92272  0.68094  Biso   1.000  O
  O36      1.0000 0.92620  0.07728  0.18094  Biso   1.000  O
  O37      1.0000 0.50480  0.59998  0.75734  Biso   1.000  O
  O38      1.0000 0.99520  0.40002  0.25734  Biso   1.000  O
  O39      1.0000 0.49520  0.09998  0.74266  Biso   1.000  O
  O40      1.0000 0.00480  0.90002  0.24266  Biso   1.000  O
  O41      1.0000 0.59018  0.75185  0.81783  Biso   1.000  O
  O42      1.0000 0.90982  0.24815  0.31783  Biso   1.000  O
  O43      1.0000 0.40982  0.25185  0.68217  Biso   1.000  O
  O44      1.0000 0.09018  0.74815  0.18217  Biso   1.000  O
  O45      1.0000 0.59930  0.72769  0.94230  Biso   1.000  O
  O46      1.0000 0.90070  0.27231  0.44230  Biso   1.000  O
  O47      1.0000 0.40070  0.22769  0.55770  Biso   1.000  O
  O48      1.0000 0.09930  0.77231  0.05770  Biso   1.000  O
  O49      1.0000 0.16590  0.43160  0.80287  Biso   1.000  O
  O50      1.0000 0.33410  0.56840  0.30287  Biso   1.000  O
  O51      1.0000 0.83410  0.93160  0.69713  Biso   1.000  O
  O52      1.0000 0.66590  0.06840  0.19713  Biso   1.000  O
  O53      1.0000 0.27860  0.56120  0.75745  Biso   1.000  O
  O54      1.0000 0.22140  0.43880  0.25745  Biso   1.000  O
  O55      1.0000 0.72140  0.06120  0.74255  Biso   1.000  O
  O56      1.0000 0.77860  0.93880  0.24255  Biso   1.000  O
  O57      1.0000 0.23030  0.51550  0.88138  Biso   1.000  O
  O58      1.0000 0.26970  0.48450  0.38138  Biso   1.000  O
  O59      1.0000 0.76970  0.01550  0.61862  Biso   1.000  O
  O60      1.0000 0.73030  0.98450  0.11862  Biso   1.000  O
  O61      1.0000 0.37950  0.61235  0.83521  Biso   1.000  O
  O62      1.0000 0.12050  0.38765  0.33521  Biso   1.000  O
  O63      1.0000 0.62050  0.11235  0.66479  Biso   1.000  O
  O64      1.0000 0.87950  0.88765  0.16479  Biso   1.000  O
  C1       1.0000 0.76450  0.20220  0.86575  Biso   1.000  C
  C2       1.0000 0.73550  0.79780  0.36575  Biso   1.000  C
  C3       1.0000 0.23550  0.70220  0.63425  Biso   1.000  C
  C4       1.0000 0.26450  0.29780  0.13425  Biso   1.000  C
  H1       1.0000 0.72750  0.14730  0.86530  Biso   1.000  H
  H2       1.0000 0.77250  0.85270  0.36530  Biso   1.000  H
  H3       1.0000 0.27250  0.64730  0.63470  Biso   1.000  H
  H4       1.0000 0.22750  0.35270  0.13470  Biso   1.000  H
  H5       1.0000 0.84750  0.19320  0.86460  Biso   1.000  H
  H6       1.0000 0.65250  0.80680  0.36460  Biso   1.000  H
  H7       1.0000 0.15250  0.69320  0.63540  Biso   1.000  H
  H8       1.0000 0.34750  0.30680  0.13540  Biso   1.000  H
  C5       1.0000 0.62690  0.29259  0.76409  Biso   1.000  C
  C6       1.0000 0.87310  0.70741  0.26409  Biso   1.000  C
  C7       1.0000 0.37310  0.79259  0.73591  Biso   1.000  C
  C8       1.0000 0.12690  0.20741  0.23591  Biso   1.000  C
  H9       1.0000 0.59890  0.25670  0.74000  Biso   1.000  H
  H10      1.0000 0.90110  0.74330  0.24000  Biso   1.000  H
  H11      1.0000 0.40110  0.75670  0.76000  Biso   1.000  H
  H12      1.0000 0.09890  0.24330  0.26000  Biso   1.000  H
  C9       1.0000 0.83610  0.31294  0.01301  Biso   1.000  C
  C10      1.0000 0.66390  0.68706  0.51301  Biso   1.000  C
  C11      1.0000 0.16390  0.81294  0.48699  Biso   1.000  C
  C12      1.0000 0.33610  0.18706  0.98699  Biso   1.000  C
  H13      1.0000 0.80520  0.28570  0.03910  Biso   1.000  H
  H14      1.0000 0.69480  0.71430  0.53910  Biso   1.000  H
  H15      1.0000 0.19480  0.78570  0.46090  Biso   1.000  H
  H16      1.0000 0.30520  0.21430  0.96090  Biso   1.000  H
  H17      1.0000 0.91560  0.29470  0.00960  Biso   1.000  H
  H18      1.0000 0.58440  0.70530  0.50960  Biso   1.000  H
  H19      1.0000 0.08440  0.79470  0.49040  Biso   1.000  H
  H20      1.0000 0.41560  0.20530  0.99040  Biso   1.000  H
  C13      1.0000 0.61380  0.24878  0.80946  Biso   1.000  C
  C14      1.0000 0.88620  0.75122  0.30946  Biso   1.000  C
  C15      1.0000 0.38620  0.74878  0.69054  Biso   1.000  C
  C16      1.0000 0.11380  0.25122  0.19054  Biso   1.000  C
  H21      1.0000 0.58480  0.19100  0.80620  Biso   1.000  H
  H22      1.0000 0.91520  0.80900  0.30620  Biso   1.000  H
  H23      1.0000 0.41520  0.69100  0.69380  Biso   1.000  H
  H24      1.0000 0.08480  0.30900  0.19380  Biso   1.000  H
  C17      1.0000 0.55490  0.38810  0.01871  Biso   1.000  C
  C18      1.0000 0.94510  0.61190  0.51871  Biso   1.000  C
  C19      1.0000 0.44510  0.88810  0.48129  Biso   1.000  C
  C20      1.0000 0.05490  0.11190  0.98129  Biso   1.000  C
  H25      1.0000 0.47740  0.41150  0.01840  Biso   1.000  H
  H26      1.0000 0.02260  0.58850  0.51840  Biso   1.000  H
  H27      1.0000 0.52260  0.91150  0.48160  Biso   1.000  H
  H28      1.0000 0.97740  0.08850  0.98160  Biso   1.000  H
  H29      1.0000 0.56070  0.35070  0.04390  Biso   1.000  H
  H30      1.0000 0.93930  0.64930  0.54390  Biso   1.000  H
  H31      1.0000 0.43930  0.85070  0.45610  Biso   1.000  H
  H32      1.0000 0.06070  0.14930  0.95610  Biso   1.000  H
  C21      1.0000 0.02090  0.65950  0.94356  Biso   1.000  C
  C22      1.0000 0.47910  0.34050  0.44356  Biso   1.000  C
  C23      1.0000 0.97910  0.15950  0.55644  Biso   1.000  C
  C24      1.0000 0.52090  0.84050  0.05644  Biso   1.000  C
  C25      1.0000 0.80700  0.34170  0.72315  Biso   1.000  C
  C26      1.0000 0.69300  0.65830  0.22315  Biso   1.000  C
  C27      1.0000 0.19300  0.84170  0.77685  Biso   1.000  C
  C28      1.0000 0.30700  0.15830  0.27685  Biso   1.000  C
  H33      1.0000 0.88620  0.32150  0.72280  Biso   1.000  H
  H34      1.0000 0.61380  0.67850  0.22280  Biso   1.000  H
  H35      1.0000 0.11380  0.82150  0.77720  Biso   1.000  H
  H36      1.0000 0.38620  0.17850  0.27720  Biso   1.000  H
  H37      1.0000 0.76920  0.32080  0.69680  Biso   1.000  H
  H38      1.0000 0.73080  0.67920  0.19680  Biso   1.000  H
  H39      1.0000 0.23080  0.82080  0.80320  Biso   1.000  H
  H40      1.0000 0.26920  0.17920  0.30320  Biso   1.000  H
  C29      1.0000 0.92620  0.45290  0.00838  Biso   1.000  C
  C30      1.0000 0.57380  0.54710  0.50838  Biso   1.000  C
  C31      1.0000 0.07380  0.95290  0.49162  Biso   1.000  C
  C32      1.0000 0.42620  0.04710  0.99162  Biso   1.000  C
  C33      1.0000 0.64840  0.26658  0.97563  Biso   1.000  C
  C34      1.0000 0.85160  0.73342  0.47563  Biso   1.000  C
  C35      1.0000 0.35160  0.76658  0.52437  Biso   1.000  C
  C36      1.0000 0.14840  0.23342  0.02437  Biso   1.000  C
  H41      1.0000 0.62920  0.22400  0.99790  Biso   1.000  H
  H42      1.0000 0.87080  0.77600  0.49790  Biso   1.000  H
  H43      1.0000 0.37080  0.72400  0.50210  Biso   1.000  H
  H44      1.0000 0.12920  0.27600  0.00210  Biso   1.000  H
  C37      1.0000 0.68700  0.71160  0.73308  Biso   1.000  C
  C38      1.0000 0.81300  0.28840  0.23308  Biso   1.000  C
  C39      1.0000 0.31300  0.21160  0.76692  Biso   1.000  C
  C40      1.0000 0.18700  0.78840  0.26692  Biso   1.000  C
  H45      1.0000 0.72310  0.73780  0.70760  Biso   1.000  H
  H46      1.0000 0.77690  0.26220  0.20760  Biso   1.000  H
  H47      1.0000 0.27690  0.23780  0.79240  Biso   1.000  H
  H48      1.0000 0.22310  0.76220  0.29240  Biso   1.000  H
  H49      1.0000 0.60860  0.73300  0.73510  Biso   1.000  H
  H50      1.0000 0.89140  0.26700  0.23510  Biso   1.000  H
  H51      1.0000 0.39140  0.23300  0.76490  Biso   1.000  H
  H52      1.0000 0.10860  0.76700  0.26490  Biso   1.000  H
  C41      1.0000 0.04280  0.75290  0.87855  Biso   1.000  C
  C42      1.0000 0.45720  0.24710  0.37855  Biso   1.000  C
  C43      1.0000 0.95720  0.25290  0.62145  Biso   1.000  C
  C44      1.0000 0.54280  0.74710  0.12145  Biso   1.000  C
  H53      1.0000 0.05580  0.81330  0.88010  Biso   1.000  H
  H54      1.0000 0.44420  0.18670  0.38010  Biso   1.000  H
  H55      1.0000 0.94420  0.31330  0.61990  Biso   1.000  H
  H56      1.0000 0.55580  0.68670  0.11990  Biso   1.000  H
  H57      1.0000 0.11780  0.72570  0.87720  Biso   1.000  H
  H58      1.0000 0.38220  0.27430  0.37720  Biso   1.000  H
  H59      1.0000 0.88220  0.22570  0.62280  Biso   1.000  H
  H60      1.0000 0.61780  0.77430  0.12280  Biso   1.000  H
  C45      1.0000 0.62600  0.23352  0.92835  Biso   1.000  C
  C46      1.0000 0.87400  0.76648  0.42835  Biso   1.000  C
  C47      1.0000 0.37400  0.73352  0.57165  Biso   1.000  C
  C48      1.0000 0.12600  0.26648  0.07165  Biso   1.000  C
  H61      1.0000 0.60160  0.17430  0.92850  Biso   1.000  H
  H62      1.0000 0.89840  0.82570  0.42850  Biso   1.000  H
  H63      1.0000 0.39840  0.67430  0.57150  Biso   1.000  H
  H64      1.0000 0.10160  0.32570  0.07150  Biso   1.000  H
  C49      1.0000 0.80880  0.28180  0.79827  Biso   1.000  C
  C50      1.0000 0.69120  0.71820  0.29827  Biso   1.000  C
  C51      1.0000 0.19120  0.78180  0.70173  Biso   1.000  C
  C52      1.0000 0.30880  0.21820  0.20173  Biso   1.000  C
  C53      1.0000 0.47100  0.27550  0.87200  Biso   1.000  C
  C54      1.0000 0.02900  0.72450  0.37200  Biso   1.000  C
  C55      1.0000 0.52900  0.77550  0.62800  Biso   1.000  C
  C56      1.0000 0.97100  0.22450  0.12800  Biso   1.000  C
  H65      1.0000 0.39880  0.30650  0.87380  Biso   1.000  H
  H66      1.0000 0.10120  0.69350  0.37380  Biso   1.000  H
  H67      1.0000 0.60120  0.80650  0.62620  Biso   1.000  H
  H68      1.0000 0.89880  0.19350  0.12620  Biso   1.000  H
  H69      1.0000 0.45190  0.21610  0.86950  Biso   1.000  H
  H70      1.0000 0.04810  0.78390  0.36950  Biso   1.000  H
  H71      1.0000 0.54810  0.71610  0.63050  Biso   1.000  H
  H72      1.0000 0.95190  0.28390  0.13050  Biso   1.000  H
  C57      1.0000 0.74680  0.81770  0.88248  Biso   1.000  C
  C58      1.0000 0.75320  0.18230  0.38248  Biso   1.000  C
  C59      1.0000 0.25320  0.31770  0.61752  Biso   1.000  C
  C60      1.0000 0.24680  0.68230  0.11752  Biso   1.000  C
  H73      1.0000 0.66360  0.82590  0.88340  Biso   1.000  H
  H74      1.0000 0.83640  0.17410  0.38340  Biso   1.000  H
  H75      1.0000 0.33640  0.32590  0.61660  Biso   1.000  H
  H76      1.0000 0.16360  0.67410  0.11660  Biso   1.000  H
  H77      1.0000 0.78300  0.87280  0.88380  Biso   1.000  H
  H78      1.0000 0.71700  0.12720  0.38380  Biso   1.000  H
  H79      1.0000 0.21700  0.37280  0.61620  Biso   1.000  H
  H80      1.0000 0.28300  0.62720  0.11620  Biso   1.000  H
  C61      1.0000 0.88190  0.73058  0.98532  Biso   1.000  C
  C62      1.0000 0.61810  0.26942  0.48532  Biso   1.000  C
  C63      1.0000 0.11810  0.23058  0.51468  Biso   1.000  C
  C64      1.0000 0.38190  0.76942  0.01468  Biso   1.000  C
  H81      1.0000 0.90320  0.76760  0.00990  Biso   1.000  H
  H82      1.0000 0.59680  0.23240  0.50990  Biso   1.000  H
  H83      1.0000 0.09680  0.26760  0.49010  Biso   1.000  H
  H84      1.0000 0.40320  0.73240  0.99010  Biso   1.000  H
  C65      1.0000 0.87220  0.75189  0.77385  Biso   1.000  C
  C66      1.0000 0.62780  0.24811  0.27385  Biso   1.000  C
  C67      1.0000 0.12780  0.25189  0.72615  Biso   1.000  C
  C68      1.0000 0.37220  0.74811  0.22615  Biso   1.000  C
  H85      1.0000 0.89650  0.79210  0.75110  Biso   1.000  H
  H86      1.0000 0.60350  0.20790  0.25110  Biso   1.000  H
  H87      1.0000 0.10350  0.29210  0.74890  Biso   1.000  H
  H88      1.0000 0.39650  0.70790  0.24890  Biso   1.000  H
  C69      1.0000 0.82140  0.26938  0.93520  Biso   1.000  C
  C70      1.0000 0.67860  0.73062  0.43520  Biso   1.000  C
  C71      1.0000 0.17860  0.76938  0.56480  Biso   1.000  C
  C72      1.0000 0.32140  0.23062  0.06480  Biso   1.000  C
  C73      1.0000 0.96390  0.62680  0.73452  Biso   1.000  C
  C74      1.0000 0.53610  0.37320  0.23452  Biso   1.000  C
  C75      1.0000 0.03610  0.12680  0.76548  Biso   1.000  C
  C76      1.0000 0.46390  0.87320  0.26548  Biso   1.000  C
  H89      1.0000 0.03960  0.60070  0.73650  Biso   1.000  H
  H90      1.0000 0.46040  0.39930  0.23650  Biso   1.000  H
  H91      1.0000 0.96040  0.10070  0.76350  Biso   1.000  H
  H92      1.0000 0.53960  0.89930  0.26350  Biso   1.000  H
  H93      1.0000 0.96400  0.66360  0.70900  Biso   1.000  H
  H94      1.0000 0.53600  0.33640  0.20900  Biso   1.000  H
  H95      1.0000 0.03600  0.16360  0.79100  Biso   1.000  H
  H96      1.0000 0.46400  0.83640  0.29100  Biso   1.000  H
  C77      1.0000 0.00900  0.67016  0.81099  Biso   1.000  C
  C78      1.0000 0.49100  0.32984  0.31099  Biso   1.000  C
  C79      1.0000 0.99100  0.17016  0.68901  Biso   1.000  C
  C80      1.0000 0.50900  0.82984  0.18901  Biso   1.000  C
  C81      1.0000 0.50680  0.35010  0.94174  Biso   1.000  C
  C82      1.0000 0.99320  0.64990  0.44174  Biso   1.000  C
  C83      1.0000 0.49320  0.85010  0.55826  Biso   1.000  C
  C84      1.0000 0.00680  0.14990  0.05826  Biso   1.000  C
  C85      1.0000 0.71970  0.48373  0.70172  Biso   1.000  C
  C86      1.0000 0.78030  0.51627  0.20172  Biso   1.000  C
  C87      1.0000 0.28030  0.98373  0.79828  Biso   1.000  C
  C88      1.0000 0.21970  0.01627  0.29828  Biso   1.000  C
  H97      1.0000 0.70350  0.46640  0.67130  Biso   1.000  H
  H98      1.0000 0.79650  0.53360  0.17130  Biso   1.000  H
  H99      1.0000 0.29650  0.96640  0.82870  Biso   1.000  H
  H100     1.0000 0.20350  0.03360  0.32870  Biso   1.000  H
  C89      1.0000 0.89000  0.78813  0.82075  Biso   1.000  C
  C90      1.0000 0.61000  0.21187  0.32075  Biso   1.000  C
  C91      1.0000 0.11000  0.28813  0.67925  Biso   1.000  C
  C92      1.0000 0.39000  0.71187  0.17925  Biso   1.000  C
  H101     1.0000 0.91390  0.84740  0.82000  Biso   1.000  H
  H102     1.0000 0.58610  0.15260  0.32000  Biso   1.000  H
  H103     1.0000 0.08610  0.34740  0.68000  Biso   1.000  H
  H104     1.0000 0.41390  0.65260  0.18000  Biso   1.000  H
  C93      1.0000 0.79440  0.53770  0.04705  Biso   1.000  C
  C94      1.0000 0.70560  0.46230  0.54705  Biso   1.000  C
  C95      1.0000 0.20560  0.03770  0.45295  Biso   1.000  C
  C96      1.0000 0.29440  0.96230  0.95295  Biso   1.000  C
  H105     1.0000 0.80940  0.55600  0.07740  Biso   1.000  H
  H106     1.0000 0.69060  0.44400  0.57740  Biso   1.000  H
  H107     1.0000 0.19060  0.05600  0.42260  Biso   1.000  H
  H108     1.0000 0.30940  0.94400  0.92260  Biso   1.000  H
  C97      1.0000 0.98190  0.60290  0.01798  Biso   1.000  C
  C98      1.0000 0.51810  0.39710  0.51798  Biso   1.000  C
  C99      1.0000 0.01810  0.10290  0.48202  Biso   1.000  C
  C100     1.0000 0.48190  0.89710  0.98202  Biso   1.000  C
  H109     1.0000 0.98030  0.63480  0.04530  Biso   1.000  H
  H110     1.0000 0.51970  0.36520  0.54530  Biso   1.000  H
  H111     1.0000 0.01970  0.13480  0.45470  Biso   1.000  H
  H112     1.0000 0.48030  0.86520  0.95470  Biso   1.000  H
  H113     1.0000 0.05910  0.57980  0.01460  Biso   1.000  H
  H114     1.0000 0.44090  0.42020  0.51460  Biso   1.000  H
  H115     1.0000 0.94090  0.07980  0.48540  Biso   1.000  H
  H116     1.0000 0.55910  0.92020  0.98540  Biso   1.000  H
  C101     1.0000 0.49840  0.37048  0.80809  Biso   1.000  C
  C102     1.0000 0.00160  0.62952  0.30809  Biso   1.000  C
  C103     1.0000 0.50160  0.87048  0.69191  Biso   1.000  C
  C104     1.0000 0.99840  0.12952  0.19191  Biso   1.000  C
  C105     1.0000 0.59380  0.57310  0.73911  Biso   1.000  C
  C106     1.0000 0.90620  0.42690  0.23911  Biso   1.000  C
  C107     1.0000 0.40620  0.07310  0.76089  Biso   1.000  C
  C108     1.0000 0.09380  0.92690  0.26089  Biso   1.000  C
  C109     1.0000 0.69460  0.75481  0.81133  Biso   1.000  C
  C110     1.0000 0.80540  0.24519  0.31133  Biso   1.000  C
  C111     1.0000 0.30540  0.25481  0.68867  Biso   1.000  C
  C112     1.0000 0.19460  0.74519  0.18867  Biso   1.000  C
  C113     1.0000 0.77240  0.57334  0.70356  Biso   1.000  C
  C114     1.0000 0.72760  0.42666  0.20356  Biso   1.000  C
  C115     1.0000 0.22760  0.07334  0.79644  Biso   1.000  C
  C116     1.0000 0.27240  0.92666  0.29644  Biso   1.000  C
  H117     1.0000 0.78790  0.59550  0.67400  Biso   1.000  H
  H118     1.0000 0.71210  0.40450  0.17400  Biso   1.000  H
  H119     1.0000 0.21210  0.09550  0.82600  Biso   1.000  H
  H120     1.0000 0.28790  0.90450  0.32600  Biso   1.000  H
  C117     1.0000 0.74830  0.44665  0.04534  Biso   1.000  C
  C118     1.0000 0.75170  0.55335  0.54534  Biso   1.000  C
  C119     1.0000 0.25170  0.94665  0.45466  Biso   1.000  C
  C120     1.0000 0.24830  0.05335  0.95466  Biso   1.000  C
  H121     1.0000 0.74070  0.42260  0.07500  Biso   1.000  H
  H122     1.0000 0.75930  0.57740  0.57500  Biso   1.000  H
  H123     1.0000 0.25930  0.92260  0.42500  Biso   1.000  H
  H124     1.0000 0.24070  0.07740  0.92500  Biso   1.000  H
  C121     1.0000 0.61030  0.53790  0.01519  Biso   1.000  C
  C122     1.0000 0.88970  0.46210  0.51519  Biso   1.000  C
  C123     1.0000 0.38970  0.03790  0.48481  Biso   1.000  C
  C124     1.0000 0.11030  0.96210  0.98481  Biso   1.000  C
  C125     1.0000 0.70070  0.67620  0.02407  Biso   1.000  C
  C126     1.0000 0.79930  0.32380  0.52407  Biso   1.000  C
  C127     1.0000 0.29930  0.17620  0.47593  Biso   1.000  C
  C128     1.0000 0.20070  0.82380  0.97593  Biso   1.000  C
  H125     1.0000 0.73600  0.69940  0.05040  Biso   1.000  H
  H126     1.0000 0.76400  0.30060  0.55040  Biso   1.000  H
  H127     1.0000 0.26400  0.19940  0.44960  Biso   1.000  H
  H128     1.0000 0.23600  0.80060  0.94960  Biso   1.000  H
  H129     1.0000 0.62070  0.69470  0.02340  Biso   1.000  H
  H130     1.0000 0.87930  0.30530  0.52340  Biso   1.000  H
  H131     1.0000 0.37930  0.19470  0.47660  Biso   1.000  H
  H132     1.0000 0.12070  0.80530  0.97660  Biso   1.000  H
  C129     1.0000 0.89510  0.77587  0.94001  Biso   1.000  C
  C130     1.0000 0.60490  0.22413  0.44001  Biso   1.000  C
  C131     1.0000 0.10490  0.27587  0.55999  Biso   1.000  C
  C132     1.0000 0.39510  0.72413  0.05999  Biso   1.000  C
  H133     1.0000 0.91850  0.83490  0.94360  Biso   1.000  H
  H134     1.0000 0.58150  0.16510  0.44360  Biso   1.000  H
  H135     1.0000 0.08150  0.33490  0.55640  Biso   1.000  H
  H136     1.0000 0.41850  0.66510  0.05640  Biso   1.000  H
  C133     1.0000 0.90180  0.47800  0.73435  Biso   1.000  C
  C134     1.0000 0.59820  0.52200  0.23435  Biso   1.000  C
  C135     1.0000 0.09820  0.97800  0.76565  Biso   1.000  C
  C136     1.0000 0.40180  0.02200  0.26565  Biso   1.000  C
  C137     1.0000 0.70260  0.73430  0.94880  Biso   1.000  C
  C138     1.0000 0.79740  0.26570  0.44880  Biso   1.000  C
  C139     1.0000 0.29740  0.23430  0.55120  Biso   1.000  C
  C140     1.0000 0.20260  0.76570  0.05120  Biso   1.000  C
  C141     1.0000 0.52970  0.42440  0.73340  Biso   1.000  C
  C142     1.0000 0.97030  0.57560  0.23340  Biso   1.000  C
  C143     1.0000 0.47030  0.92440  0.76660  Biso   1.000  C
  C144     1.0000 0.02970  0.07560  0.26660  Biso   1.000  C
  H137     1.0000 0.45430  0.44910  0.73880  Biso   1.000  H
  H138     1.0000 0.04570  0.55090  0.23880  Biso   1.000  H
  H139     1.0000 0.54570  0.94910  0.76120  Biso   1.000  H
  H140     1.0000 0.95430  0.05090  0.26120  Biso   1.000  H
  H141     1.0000 0.52480  0.39220  0.70630  Biso   1.000  H
  H142     1.0000 0.97520  0.60780  0.20630  Biso   1.000  H
  H143     1.0000 0.47520  0.89220  0.79370  Biso   1.000  H
  H144     1.0000 0.02480  0.10780  0.29370  Biso   1.000  H
  N97      1.0000 0.50600  0.02060  0.86889  Biso   1.000  N
  N98      1.0000 0.99400  0.97940  0.36889  Biso   1.000  N
  N99      1.0000 0.49400  0.52060  0.63111  Biso   1.000  N
  N100     1.0000 0.00600  0.47940  0.13111  Biso   1.000  N
  O65      1.0000 0.57470  0.05350  0.84208  Biso   1.000  O
  O66      1.0000 0.92530  0.94650  0.34208  Biso   1.000  O
  O67      1.0000 0.42530  0.55350  0.65792  Biso   1.000  O
  O68      1.0000 0.07470  0.44650  0.15792  Biso   1.000  O
  O69      1.0000 0.42740  0.06440  0.88282  Biso   1.000  O
  O70      1.0000 0.07260  0.93560  0.38282  Biso   1.000  O
  O71      1.0000 0.57260  0.56440  0.61718  Biso   1.000  O
  O72      1.0000 0.92740  0.43560  0.11718  Biso   1.000  O
  O73      1.0000 0.50680  0.94420  0.87604  Biso   1.000  O
  O74      1.0000 0.99320  0.05580  0.37604  Biso   1.000  O
  O75      1.0000 0.49320  0.44420  0.62396  Biso   1.000  O
  O76      1.0000 0.00680  0.55580  0.12396  Biso   1.000  O
  N101     1.0000 0.01990  0.00880  0.87651  Biso   1.000  N
  N102     1.0000 0.48010  0.99120  0.37651  Biso   1.000  N
  N103     1.0000 0.98010  0.50880  0.62349  Biso   1.000  N
  N104     1.0000 0.51990  0.49120  0.12349  Biso   1.000  N
  O77      1.0000 0.93440  0.97310  0.88830  Biso   1.000  O
  O78      1.0000 0.56560  0.02690  0.38830  Biso   1.000  O
  O79      1.0000 0.06560  0.47310  0.61170  Biso   1.000  O
  O80      1.0000 0.43440  0.52690  0.11170  Biso   1.000  O
  O81      1.0000 0.02530  0.08580  0.87224  Biso   1.000  O
  O82      1.0000 0.47470  0.91420  0.37224  Biso   1.000  O
  O83      1.0000 0.97470  0.58580  0.62776  Biso   1.000  O
  O84      1.0000 0.52530  0.41420  0.12776  Biso   1.000  O
  O85      1.0000 0.11190  0.97180  0.87508  Biso   1.000  O
  O86      1.0000 0.38810  0.02820  0.37508  Biso   1.000  O
  O87      1.0000 0.88810  0.47180  0.62492  Biso   1.000  O
  O88      1.0000 0.61190  0.52820  0.12492  Biso   1.000  O
  O89      1.0000 0.23070  0.47590  0.68690  Biso   1.000  O
  O90      1.0000 0.26930  0.52410  0.18690  Biso   1.000  O
  O91      1.0000 0.76930  0.97590  0.81310  Biso   1.000  O
  O92      1.0000 0.73070  0.02410  0.31310  Biso   1.000  O
  O93      1.0000 0.50060  0.57460  0.90352  Biso   1.000  O
  O94      1.0000 0.99940  0.42540  0.40352  Biso   1.000  O
  O95      1.0000 0.49940  0.07460  0.59648  Biso   1.000  O
  O96      1.0000 0.00060  0.92540  0.09648  Biso   1.000  O
  O97      1.0000 0.76490  0.06860  0.94420  Biso   1.000  O
  O98      1.0000 0.73510  0.93140  0.44420  Biso   1.000  O
  O99      1.0000 0.23510  0.56860  0.55580  Biso   1.000  O
  O100     1.0000 0.26490  0.43140  0.05580  Biso   1.000  O
  O101     1.0000 0.12640  0.29930  0.85420  Biso   1.000  O
  O102     1.0000 0.37360  0.70070  0.35420  Biso   1.000  O
  O103     1.0000 0.87360  0.79930  0.64580  Biso   1.000  O
  O104     1.0000 0.62640  0.20070  0.14580  Biso   1.000  O
  O105     1.0000 0.35720  0.79360  0.87204  Biso   1.000  O
  O106     1.0000 0.14280  0.20640  0.37204  Biso   1.000  O
  O107     1.0000 0.64280  0.29360  0.62796  Biso   1.000  O
  O108     1.0000 0.85720  0.70640  0.12796  Biso   1.000  O
  O109     1.0000 0.27600  0.57540  0.99959  Biso   1.000  O
  O110     1.0000 0.22400  0.42460  0.49959  Biso   1.000  O
  O111     1.0000 0.72400  0.07540  0.50041  Biso   1.000  O
  O112     1.0000 0.77600  0.92460  0.00041  Biso   1.000  O
  O113     1.0000 0.96270  0.43910  0.87380  Biso   1.000  O
  O114     1.0000 0.53730  0.56090  0.37380  Biso   1.000  O
  O115     1.0000 0.03730  0.93910  0.62620  Biso   1.000  O
  O116     1.0000 0.46270  0.06090  0.12620  Biso   1.000  O
  O117     1.0000 0.19470  0.38000  0.93612  Biso   1.000  O
  O118     1.0000 0.30530  0.62000  0.43612  Biso   1.000  O
  O119     1.0000 0.80530  0.88000  0.56388  Biso   1.000  O
  O120     1.0000 0.69470  0.12000  0.06388  Biso   1.000  O
  O121     1.0000 0.17140  0.22980  0.88030  Biso   1.000  O
  O122     1.0000 0.32860  0.77020  0.38030  Biso   1.000  O
  O123     1.0000 0.82860  0.72980  0.61970  Biso   1.000  O
  O124     1.0000 0.67140  0.27020  0.11970  Biso   1.000  O
