data_image0
_cell_length_a       19.5216
_cell_length_b       19.5216
_cell_length_c       10.5282
_cell_angle_alpha    90
_cell_angle_beta     90
_cell_angle_gamma    120

_symmetry_space_group_name_H-M    "P 1"
_symmetry_int_tables_number       1

loop_
  _symmetry_equiv_pos_as_xyz
  'x, y, z'

loop_
  _atom_site_label
  _atom_site_occupancy
  _atom_site_fract_x
  _atom_site_fract_y
  _atom_site_fract_z
  _atom_site_thermal_displace_type
  _atom_site_B_iso_or_equiv
  _atom_site_type_symbol
  O1       1.0000 0.33330  0.66670  0.58150  Biso   1.000  O
  O2       1.0000 0.66670  0.33330  0.08150  Biso   1.000  O
  O3       1.0000 0.66670  0.33330  0.41850  Biso   1.000  O
  O4       1.0000 0.33330  0.66670  0.91850  Biso   1.000  O
  O5       1.0000 0.12150  0.87180  0.51600  Biso   1.000  O
  O6       1.0000 0.12820  0.24970  0.51600  Biso   1.000  O
  O7       1.0000 0.75030  0.87850  0.51600  Biso   1.000  O
  O8       1.0000 0.87850  0.12820  0.01600  Biso   1.000  O
  O9       1.0000 0.87180  0.75030  0.01600  Biso   1.000  O
  O10      1.0000 0.24970  0.12150  0.01600  Biso   1.000  O
  O11      1.0000 0.87850  0.12820  0.48400  Biso   1.000  O
  O12      1.0000 0.87180  0.75030  0.48400  Biso   1.000  O
  O13      1.0000 0.24970  0.12150  0.48400  Biso   1.000  O
  O14      1.0000 0.12150  0.87180  0.98400  Biso   1.000  O
  O15      1.0000 0.12820  0.24970  0.98400  Biso   1.000  O
  O16      1.0000 0.75030  0.87850  0.98400  Biso   1.000  O
  O17      1.0000 0.33330  0.66670  0.25000  Biso   1.000  O
  O18      1.0000 0.66670  0.33330  0.75000  Biso   1.000  O
  Cu1      1.0000 0.23321  0.79332  0.75000  Biso   1.000  Cu
  Cu2      1.0000 0.20668  0.43989  0.75000  Biso   1.000  Cu
  Cu3      1.0000 0.56011  0.76679  0.75000  Biso   1.000  Cu
  Cu4      1.0000 0.76679  0.20668  0.25000  Biso   1.000  Cu
  Cu5      1.0000 0.79332  0.56011  0.25000  Biso   1.000  Cu
  Cu6      1.0000 0.43989  0.23321  0.25000  Biso   1.000  Cu
  Cl1      1.0000 0.09882  0.73491  0.75000  Biso   1.000  Cl
  Cl2      1.0000 0.26509  0.36391  0.75000  Biso   1.000  Cl
  Cl3      1.0000 0.63609  0.90118  0.75000  Biso   1.000  Cl
  Cl4      1.0000 0.90118  0.26509  0.25000  Biso   1.000  Cl
  Cl5      1.0000 0.73491  0.63609  0.25000  Biso   1.000  Cl
  Cl6      1.0000 0.36391  0.09882  0.25000  Biso   1.000  Cl
  Cl7      1.0000 0.24776  0.91573  0.75000  Biso   1.000  Cl
  Cl8      1.0000 0.08427  0.33203  0.75000  Biso   1.000  Cl
  Cl9      1.0000 0.66797  0.75224  0.75000  Biso   1.000  Cl
  Cl10     1.0000 0.75224  0.08427  0.25000  Biso   1.000  Cl
  Cl11     1.0000 0.91573  0.66797  0.25000  Biso   1.000  Cl
  Cl12     1.0000 0.33203  0.24776  0.25000  Biso   1.000  Cl
  O19      1.0000 0.12690  0.57740  0.95850  Biso   1.000  O
  O20      1.0000 0.42260  0.54950  0.95850  Biso   1.000  O
  O21      1.0000 0.45050  0.87310  0.95850  Biso   1.000  O
  O22      1.0000 0.87310  0.42260  0.45850  Biso   1.000  O
  O23      1.0000 0.57740  0.45050  0.45850  Biso   1.000  O
  O24      1.0000 0.54950  0.12690  0.45850  Biso   1.000  O
  O25      1.0000 0.87310  0.42260  0.04150  Biso   1.000  O
  O26      1.0000 0.57740  0.45050  0.04150  Biso   1.000  O
  O27      1.0000 0.54950  0.12690  0.04150  Biso   1.000  O
  O28      1.0000 0.12690  0.57740  0.54150  Biso   1.000  O
  O29      1.0000 0.42260  0.54950  0.54150  Biso   1.000  O
  O30      1.0000 0.45050  0.87310  0.54150  Biso   1.000  O
  O31      1.0000 0.25239  0.78203  0.96680  Biso   1.000  O
  O32      1.0000 0.21797  0.47036  0.96680  Biso   1.000  O
  O33      1.0000 0.52964  0.74761  0.96680  Biso   1.000  O
  O34      1.0000 0.74761  0.21797  0.46680  Biso   1.000  O
  O35      1.0000 0.78203  0.52964  0.46680  Biso   1.000  O
  O36      1.0000 0.47036  0.25239  0.46680  Biso   1.000  O
  O37      1.0000 0.74761  0.21797  0.03320  Biso   1.000  O
  O38      1.0000 0.78203  0.52964  0.03320  Biso   1.000  O
  O39      1.0000 0.47036  0.25239  0.03320  Biso   1.000  O
  O40      1.0000 0.25239  0.78203  0.53320  Biso   1.000  O
  O41      1.0000 0.21797  0.47036  0.53320  Biso   1.000  O
  O42      1.0000 0.52964  0.74761  0.53320  Biso   1.000  O
  C1       1.0000 0.09860  0.56570  0.06560  Biso   1.000  C
  C2       1.0000 0.43430  0.53290  0.06560  Biso   1.000  C
  C3       1.0000 0.46710  0.90140  0.06560  Biso   1.000  C
  C4       1.0000 0.90140  0.43430  0.56560  Biso   1.000  C
  C5       1.0000 0.56570  0.46710  0.56560  Biso   1.000  C
  C6       1.0000 0.53290  0.09860  0.56560  Biso   1.000  C
  C7       1.0000 0.90140  0.43430  0.93440  Biso   1.000  C
  C8       1.0000 0.56570  0.46710  0.93440  Biso   1.000  C
  C9       1.0000 0.53290  0.09860  0.93440  Biso   1.000  C
  C10      1.0000 0.09860  0.56570  0.43440  Biso   1.000  C
  C11      1.0000 0.43430  0.53290  0.43440  Biso   1.000  C
  C12      1.0000 0.46710  0.90140  0.43440  Biso   1.000  C
  C13      1.0000 0.03190  0.49870  0.25000  Biso   1.000  C
  C14      1.0000 0.50130  0.53320  0.25000  Biso   1.000  C
  C15      1.0000 0.46680  0.96810  0.25000  Biso   1.000  C
  C16      1.0000 0.96810  0.50130  0.75000  Biso   1.000  C
  C17      1.0000 0.49870  0.46680  0.75000  Biso   1.000  C
  C18      1.0000 0.53320  0.03190  0.75000  Biso   1.000  C
  H1       1.0000 0.97480  0.45690  0.25000  Biso   1.000  H
  H2       1.0000 0.54310  0.51790  0.25000  Biso   1.000  H
  H3       1.0000 0.48210  0.02520  0.25000  Biso   1.000  H
  H4       1.0000 0.02520  0.54310  0.75000  Biso   1.000  H
  H5       1.0000 0.45690  0.48210  0.75000  Biso   1.000  H
  H6       1.0000 0.51790  0.97480  0.75000  Biso   1.000  H
  C19      1.0000 0.04190  0.58240  0.25000  Biso   1.000  C
  C20      1.0000 0.41760  0.45950  0.25000  Biso   1.000  C
  C21      1.0000 0.54050  0.95810  0.25000  Biso   1.000  C
  C22      1.0000 0.95810  0.41760  0.75000  Biso   1.000  C
  C23      1.0000 0.58240  0.54050  0.75000  Biso   1.000  C
  C24      1.0000 0.45950  0.04190  0.75000  Biso   1.000  C
  H7       1.0000 0.98950  0.58000  0.25000  Biso   1.000  H
  H8       1.0000 0.42000  0.40950  0.25000  Biso   1.000  H
  H9       1.0000 0.59050  0.01050  0.25000  Biso   1.000  H
  H10      1.0000 0.01050  0.42000  0.75000  Biso   1.000  H
  H11      1.0000 0.58000  0.59050  0.75000  Biso   1.000  H
  H12      1.0000 0.40950  0.98950  0.75000  Biso   1.000  H
  C25      1.0000 0.09920  0.69150  0.08270  Biso   1.000  C
  C26      1.0000 0.30850  0.40770  0.08270  Biso   1.000  C
  C27      1.0000 0.59230  0.90080  0.08270  Biso   1.000  C
  C28      1.0000 0.90080  0.30850  0.58270  Biso   1.000  C
  C29      1.0000 0.69150  0.59230  0.58270  Biso   1.000  C
  C30      1.0000 0.40770  0.09920  0.58270  Biso   1.000  C
  C31      1.0000 0.90080  0.30850  0.91730  Biso   1.000  C
  C32      1.0000 0.69150  0.59230  0.91730  Biso   1.000  C
  C33      1.0000 0.40770  0.09920  0.91730  Biso   1.000  C
  C34      1.0000 0.09920  0.69150  0.41730  Biso   1.000  C
  C35      1.0000 0.30850  0.40770  0.41730  Biso   1.000  C
  C36      1.0000 0.59230  0.90080  0.41730  Biso   1.000  C
  H13      1.0000 0.05230  0.69700  0.09950  Biso   1.000  H
  H14      1.0000 0.30300  0.35530  0.09950  Biso   1.000  H
  H15      1.0000 0.64470  0.94770  0.09950  Biso   1.000  H
  H16      1.0000 0.94770  0.30300  0.59950  Biso   1.000  H
  H17      1.0000 0.69700  0.64470  0.59950  Biso   1.000  H
  H18      1.0000 0.35530  0.05230  0.59950  Biso   1.000  H
  H19      1.0000 0.94770  0.30300  0.90050  Biso   1.000  H
  H20      1.0000 0.69700  0.64470  0.90050  Biso   1.000  H
  H21      1.0000 0.35530  0.05230  0.90050  Biso   1.000  H
  H22      1.0000 0.05230  0.69700  0.40050  Biso   1.000  H
  H23      1.0000 0.30300  0.35530  0.40050  Biso   1.000  H
  H24      1.0000 0.64470  0.94770  0.40050  Biso   1.000  H
  H25      1.0000 0.10560  0.69120  0.98950  Biso   1.000  H
  H26      1.0000 0.30880  0.41440  0.98950  Biso   1.000  H
  H27      1.0000 0.58560  0.89440  0.98950  Biso   1.000  H
  H28      1.0000 0.89440  0.30880  0.48950  Biso   1.000  H
  H29      1.0000 0.69120  0.58560  0.48950  Biso   1.000  H
  H30      1.0000 0.41440  0.10560  0.48950  Biso   1.000  H
  H31      1.0000 0.89440  0.30880  0.01050  Biso   1.000  H
  H32      1.0000 0.69120  0.58560  0.01050  Biso   1.000  H
  H33      1.0000 0.41440  0.10560  0.01050  Biso   1.000  H
  H34      1.0000 0.10560  0.69120  0.51050  Biso   1.000  H
  H35      1.0000 0.30880  0.41440  0.51050  Biso   1.000  H
  H36      1.0000 0.58560  0.89440  0.51050  Biso   1.000  H
  C37      1.0000 0.23650  0.80120  0.06920  Biso   1.000  C
  C38      1.0000 0.19880  0.43530  0.06920  Biso   1.000  C
  C39      1.0000 0.56470  0.76350  0.06920  Biso   1.000  C
  C40      1.0000 0.76350  0.19880  0.56920  Biso   1.000  C
  C41      1.0000 0.80120  0.56470  0.56920  Biso   1.000  C
  C42      1.0000 0.43530  0.23650  0.56920  Biso   1.000  C
  C43      1.0000 0.76350  0.19880  0.93080  Biso   1.000  C
  C44      1.0000 0.80120  0.56470  0.93080  Biso   1.000  C
  C45      1.0000 0.43530  0.23650  0.93080  Biso   1.000  C
  C46      1.0000 0.23650  0.80120  0.43080  Biso   1.000  C
  C47      1.0000 0.19880  0.43530  0.43080  Biso   1.000  C
  C48      1.0000 0.56470  0.76350  0.43080  Biso   1.000  C
  C49      1.0000 0.16670  0.79890  0.25000  Biso   1.000  C
  C50      1.0000 0.20110  0.36780  0.25000  Biso   1.000  C
  C51      1.0000 0.63220  0.83330  0.25000  Biso   1.000  C
  C52      1.0000 0.83330  0.20110  0.75000  Biso   1.000  C
  C53      1.0000 0.79890  0.63220  0.75000  Biso   1.000  C
  C54      1.0000 0.36780  0.16670  0.75000  Biso   1.000  C
  H37      1.0000 0.12230  0.81060  0.25000  Biso   1.000  H
  H38      1.0000 0.18940  0.31170  0.25000  Biso   1.000  H
  H39      1.0000 0.68830  0.87770  0.25000  Biso   1.000  H
  H40      1.0000 0.87770  0.18940  0.75000  Biso   1.000  H
  H41      1.0000 0.81060  0.68830  0.75000  Biso   1.000  H
  H42      1.0000 0.31170  0.12230  0.75000  Biso   1.000  H
  C55      1.0000 0.24870  0.87540  0.25000  Biso   1.000  C
  C56      1.0000 0.12460  0.37330  0.25000  Biso   1.000  C
  C57      1.0000 0.62670  0.75130  0.25000  Biso   1.000  C
  C58      1.0000 0.75130  0.12460  0.75000  Biso   1.000  C
  C59      1.0000 0.87540  0.62670  0.75000  Biso   1.000  C
  C60      1.0000 0.37330  0.24870  0.75000  Biso   1.000  C
  H43      1.0000 0.24390  0.92410  0.25000  Biso   1.000  H
  H44      1.0000 0.07590  0.31980  0.25000  Biso   1.000  H
  H45      1.0000 0.68020  0.75610  0.25000  Biso   1.000  H
  H46      1.0000 0.75610  0.07590  0.75000  Biso   1.000  H
  H47      1.0000 0.92410  0.68020  0.75000  Biso   1.000  H
  H48      1.0000 0.31980  0.24390  0.75000  Biso   1.000  H
  C61      1.0000 0.06980  0.42780  0.08530  Biso   1.000  C
  C62      1.0000 0.57220  0.64200  0.08530  Biso   1.000  C
  C63      1.0000 0.35800  0.93020  0.08530  Biso   1.000  C
  C64      1.0000 0.93020  0.57220  0.58530  Biso   1.000  C
  C65      1.0000 0.42780  0.35800  0.58530  Biso   1.000  C
  C66      1.0000 0.64200  0.06980  0.58530  Biso   1.000  C
  C67      1.0000 0.93020  0.57220  0.91470  Biso   1.000  C
  C68      1.0000 0.42780  0.35800  0.91470  Biso   1.000  C
  C69      1.0000 0.64200  0.06980  0.91470  Biso   1.000  C
  C70      1.0000 0.06980  0.42780  0.41470  Biso   1.000  C
  C71      1.0000 0.57220  0.64200  0.41470  Biso   1.000  C
  C72      1.0000 0.35800  0.93020  0.41470  Biso   1.000  C
  H49      1.0000 0.07430  0.43170  0.99160  Biso   1.000  H
  H50      1.0000 0.56830  0.64260  0.99160  Biso   1.000  H
  H51      1.0000 0.35740  0.92570  0.99160  Biso   1.000  H
  H52      1.0000 0.92570  0.56830  0.49160  Biso   1.000  H
  H53      1.0000 0.43170  0.35740  0.49160  Biso   1.000  H
  H54      1.0000 0.64260  0.07430  0.49160  Biso   1.000  H
  H55      1.0000 0.92570  0.56830  0.00840  Biso   1.000  H
  H56      1.0000 0.43170  0.35740  0.00840  Biso   1.000  H
  H57      1.0000 0.64260  0.07430  0.00840  Biso   1.000  H
  H58      1.0000 0.07430  0.43170  0.50840  Biso   1.000  H
  H59      1.0000 0.56830  0.64260  0.50840  Biso   1.000  H
  H60      1.0000 0.35740  0.92570  0.50840  Biso   1.000  H
  H61      1.0000 0.01830  0.38090  0.10620  Biso   1.000  H
  H62      1.0000 0.61910  0.63740  0.10620  Biso   1.000  H
  H63      1.0000 0.36260  0.98170  0.10620  Biso   1.000  H
  H64      1.0000 0.98170  0.61910  0.60620  Biso   1.000  H
  H65      1.0000 0.38090  0.36260  0.60620  Biso   1.000  H
  H66      1.0000 0.63740  0.01830  0.60620  Biso   1.000  H
  H67      1.0000 0.98170  0.61910  0.89380  Biso   1.000  H
  H68      1.0000 0.38090  0.36260  0.89380  Biso   1.000  H
  H69      1.0000 0.63740  0.01830  0.89380  Biso   1.000  H
  H70      1.0000 0.01830  0.38090  0.39380  Biso   1.000  H
  H71      1.0000 0.61910  0.63740  0.39380  Biso   1.000  H
  H72      1.0000 0.36260  0.98170  0.39380  Biso   1.000  H
  N1       1.0000 0.07060  0.49730  0.13350  Biso   1.000  N
  N2       1.0000 0.50270  0.57330  0.13350  Biso   1.000  N
  N3       1.0000 0.42670  0.92940  0.13350  Biso   1.000  N
  N4       1.0000 0.92940  0.50270  0.63350  Biso   1.000  N
  N5       1.0000 0.49730  0.42670  0.63350  Biso   1.000  N
  N6       1.0000 0.57330  0.07060  0.63350  Biso   1.000  N
  N7       1.0000 0.92940  0.50270  0.86650  Biso   1.000  N
  N8       1.0000 0.49730  0.42670  0.86650  Biso   1.000  N
  N9       1.0000 0.57330  0.07060  0.86650  Biso   1.000  N
  N10      1.0000 0.07060  0.49730  0.36650  Biso   1.000  N
  N11      1.0000 0.50270  0.57330  0.36650  Biso   1.000  N
  N12      1.0000 0.42670  0.92940  0.36650  Biso   1.000  N
  N13      1.0000 0.08520  0.61720  0.13340  Biso   1.000  N
  N14      1.0000 0.38280  0.46800  0.13340  Biso   1.000  N
  N15      1.0000 0.53200  0.91480  0.13340  Biso   1.000  N
  N16      1.0000 0.91480  0.38280  0.63340  Biso   1.000  N
  N17      1.0000 0.61720  0.53200  0.63340  Biso   1.000  N
  N18      1.0000 0.46800  0.08520  0.63340  Biso   1.000  N
  N19      1.0000 0.91480  0.38280  0.86660  Biso   1.000  N
  N20      1.0000 0.61720  0.53200  0.86660  Biso   1.000  N
  N21      1.0000 0.46800  0.08520  0.86660  Biso   1.000  N
  N22      1.0000 0.08520  0.61720  0.36660  Biso   1.000  N
  N23      1.0000 0.38280  0.46800  0.36660  Biso   1.000  N
  N24      1.0000 0.53200  0.91480  0.36660  Biso   1.000  N
  N25      1.0000 0.16830  0.75930  0.13530  Biso   1.000  N
  N26      1.0000 0.24070  0.40900  0.13530  Biso   1.000  N
  N27      1.0000 0.59100  0.83170  0.13530  Biso   1.000  N
  N28      1.0000 0.83170  0.24070  0.63530  Biso   1.000  N
  N29      1.0000 0.75930  0.59100  0.63530  Biso   1.000  N
  N30      1.0000 0.40900  0.16830  0.63530  Biso   1.000  N
  N31      1.0000 0.83170  0.24070  0.86470  Biso   1.000  N
  N32      1.0000 0.75930  0.59100  0.86470  Biso   1.000  N
  N33      1.0000 0.40900  0.16830  0.86470  Biso   1.000  N
  N34      1.0000 0.16830  0.75930  0.36470  Biso   1.000  N
  N35      1.0000 0.24070  0.40900  0.36470  Biso   1.000  N
  N36      1.0000 0.59100  0.83170  0.36470  Biso   1.000  N
  N37      1.0000 0.13210  0.41620  0.13450  Biso   1.000  N
  N38      1.0000 0.58380  0.71590  0.13450  Biso   1.000  N
  N39      1.0000 0.28410  0.86790  0.13450  Biso   1.000  N
  N40      1.0000 0.86790  0.58380  0.63450  Biso   1.000  N
  N41      1.0000 0.41620  0.28410  0.63450  Biso   1.000  N
  N42      1.0000 0.71590  0.13210  0.63450  Biso   1.000  N
  N43      1.0000 0.86790  0.58380  0.86550  Biso   1.000  N
  N44      1.0000 0.41620  0.28410  0.86550  Biso   1.000  N
  N45      1.0000 0.71590  0.13210  0.86550  Biso   1.000  N
  N46      1.0000 0.13210  0.41620  0.36550  Biso   1.000  N
  N47      1.0000 0.58380  0.71590  0.36550  Biso   1.000  N
  N48      1.0000 0.28410  0.86790  0.36550  Biso   1.000  N
  O43      1.0000 0.35100  0.84250  0.75000  Biso   1.000  O
  O44      1.0000 0.15750  0.50850  0.75000  Biso   1.000  O
  O45      1.0000 0.49150  0.64900  0.75000  Biso   1.000  O
  O46      1.0000 0.64900  0.15750  0.25000  Biso   1.000  O
  O47      1.0000 0.84250  0.49150  0.25000  Biso   1.000  O
  O48      1.0000 0.50850  0.35100  0.25000  Biso   1.000  O
  O49      1.0000 0.22390  0.68720  0.75000  Biso   1.000  O
  O50      1.0000 0.31280  0.53670  0.75000  Biso   1.000  O
  O51      1.0000 0.46330  0.77610  0.75000  Biso   1.000  O
  O52      1.0000 0.77610  0.31280  0.25000  Biso   1.000  O
  O53      1.0000 0.68720  0.46330  0.25000  Biso   1.000  O
  O54      1.0000 0.53670  0.22390  0.25000  Biso   1.000  O
  Cl13     1.0000 0.17190  0.88090  0.75000  Biso   1.000  Cl
  Cl14     1.0000 0.11910  0.29100  0.75000  Biso   1.000  Cl
  Cl15     1.0000 0.70900  0.82810  0.75000  Biso   1.000  Cl
  Cl16     1.0000 0.82810  0.11910  0.25000  Biso   1.000  Cl
  Cl17     1.0000 0.88090  0.70900  0.25000  Biso   1.000  Cl
  Cl18     1.0000 0.29100  0.17190  0.25000  Biso   1.000  Cl
  O55      1.0000 0.20290  0.94170  0.53350  Biso   1.000  O
  O56      1.0000 0.05830  0.26120  0.53350  Biso   1.000  O
  O57      1.0000 0.73880  0.79710  0.53350  Biso   1.000  O
  O58      1.0000 0.79710  0.05830  0.03350  Biso   1.000  O
  O59      1.0000 0.94170  0.73880  0.03350  Biso   1.000  O
  O60      1.0000 0.26120  0.20290  0.03350  Biso   1.000  O
  O61      1.0000 0.79710  0.05830  0.46650  Biso   1.000  O
  O62      1.0000 0.94170  0.73880  0.46650  Biso   1.000  O
  O63      1.0000 0.26120  0.20290  0.46650  Biso   1.000  O
  O64      1.0000 0.20290  0.94170  0.96650  Biso   1.000  O
  O65      1.0000 0.05830  0.26120  0.96650  Biso   1.000  O
  O66      1.0000 0.73880  0.79710  0.96650  Biso   1.000  O
