data_image0
_cell_length_a       10.719
_cell_length_b       10.238
_cell_length_c       18.17
_cell_angle_alpha    90
_cell_angle_beta     91.23
_cell_angle_gamma    90

_symmetry_space_group_name_H-M    "P 1"
_symmetry_int_tables_number       1

loop_
  _symmetry_equiv_pos_as_xyz
  'x, y, z'

loop_
  _atom_site_label
  _atom_site_occupancy
  _atom_site_fract_x
  _atom_site_fract_y
  _atom_site_fract_z
  _atom_site_thermal_displace_type
  _atom_site_B_iso_or_equiv
  _atom_site_type_symbol
  Cu1      1.0000 0.37195  0.12965  0.16994  Biso   1.000  Cu
  Cu2      1.0000 0.12805  0.62965  0.33006  Biso   1.000  Cu
  Cu3      1.0000 0.62805  0.87035  0.83006  Biso   1.000  Cu
  Cu4      1.0000 0.87195  0.37035  0.66994  Biso   1.000  Cu
  C1       1.0000 0.41890  0.73140  0.32200  Biso   1.000  C
  C2       1.0000 0.08110  0.23140  0.17800  Biso   1.000  C
  C3       1.0000 0.58110  0.26860  0.67800  Biso   1.000  C
  C4       1.0000 0.91890  0.76860  0.82200  Biso   1.000  C
  H1       1.0000 0.39020  0.80430  0.34710  Biso   1.000  H
  H2       1.0000 0.10980  0.30430  0.15290  Biso   1.000  H
  H3       1.0000 0.60980  0.19570  0.65290  Biso   1.000  H
  H4       1.0000 0.89020  0.69570  0.84710  Biso   1.000  H
  C5       1.0000 0.54250  0.72450  0.30660  Biso   1.000  C
  C6       1.0000 0.95750  0.22450  0.19340  Biso   1.000  C
  C7       1.0000 0.45750  0.27550  0.69340  Biso   1.000  C
  C8       1.0000 0.04250  0.77550  0.80660  Biso   1.000  C
  H5       1.0000 0.59580  0.79290  0.31940  Biso   1.000  H
  H6       1.0000 0.90420  0.29290  0.18060  Biso   1.000  H
  H7       1.0000 0.40420  0.20710  0.68060  Biso   1.000  H
  H8       1.0000 0.09580  0.70710  0.81940  Biso   1.000  H
  C9       1.0000 0.58750  0.61650  0.27210  Biso   1.000  C
  C10      1.0000 0.91250  0.11650  0.22790  Biso   1.000  C
  C11      1.0000 0.41250  0.38350  0.72790  Biso   1.000  C
  C12      1.0000 0.08750  0.88350  0.77210  Biso   1.000  C
  H9       1.0000 0.67180  0.60920  0.26160  Biso   1.000  H
  H10      1.0000 0.82820  0.10920  0.23840  Biso   1.000  H
  H11      1.0000 0.32820  0.39080  0.73840  Biso   1.000  H
  H12      1.0000 0.17180  0.89080  0.76160  Biso   1.000  H
  C13      1.0000 0.50430  0.51790  0.25290  Biso   1.000  C
  C14      1.0000 0.99570  0.01790  0.24710  Biso   1.000  C
  C15      1.0000 0.49570  0.48210  0.74710  Biso   1.000  C
  C16      1.0000 0.00430  0.98210  0.75290  Biso   1.000  C
  C17      1.0000 0.38140  0.53380  0.26900  Biso   1.000  C
  C18      1.0000 0.11860  0.03380  0.23100  Biso   1.000  C
  C19      1.0000 0.61860  0.46620  0.73100  Biso   1.000  C
  C20      1.0000 0.88140  0.96620  0.76900  Biso   1.000  C
  H13      1.0000 0.32570  0.46790  0.25550  Biso   1.000  H
  H14      1.0000 0.17430  0.96790  0.24450  Biso   1.000  H
  H15      1.0000 0.67430  0.53210  0.74450  Biso   1.000  H
  H16      1.0000 0.82570  0.03210  0.75550  Biso   1.000  H
  C21      1.0000 0.46330  0.22780  0.30570  Biso   1.000  C
  C22      1.0000 0.03670  0.72780  0.19430  Biso   1.000  C
  C23      1.0000 0.53670  0.77220  0.69430  Biso   1.000  C
  C24      1.0000 0.96330  0.27220  0.80570  Biso   1.000  C
  H17      1.0000 0.40640  0.28140  0.33350  Biso   1.000  H
  H18      1.0000 0.09360  0.78140  0.16650  Biso   1.000  H
  H19      1.0000 0.59360  0.71860  0.66650  Biso   1.000  H
  H20      1.0000 0.90640  0.21860  0.83350  Biso   1.000  H
  H21      1.0000 0.54710  0.24260  0.32520  Biso   1.000  H
  H22      1.0000 0.95290  0.74260  0.17480  Biso   1.000  H
  H23      1.0000 0.45290  0.75740  0.67480  Biso   1.000  H
  H24      1.0000 0.04710  0.25740  0.82520  Biso   1.000  H
  C25      1.0000 0.42970  0.08600  0.31500  Biso   1.000  C
  C26      1.0000 0.07030  0.58600  0.18500  Biso   1.000  C
  C27      1.0000 0.57030  0.91400  0.68500  Biso   1.000  C
  C28      1.0000 0.92970  0.41400  0.81500  Biso   1.000  C
  C29      1.0000 0.31460  0.33030  0.05100  Biso   1.000  C
  C30      1.0000 0.18540  0.83030  0.44900  Biso   1.000  C
  C31      1.0000 0.68540  0.66970  0.94900  Biso   1.000  C
  C32      1.0000 0.81460  0.16970  0.55100  Biso   1.000  C
  H25      1.0000 0.31320  0.39340  0.08780  Biso   1.000  H
  H26      1.0000 0.18680  0.89340  0.41220  Biso   1.000  H
  H27      1.0000 0.68680  0.60660  0.91220  Biso   1.000  H
  H28      1.0000 0.81320  0.10660  0.58780  Biso   1.000  H
  C33      1.0000 0.29190  0.36880  0.97860  Biso   1.000  C
  C34      1.0000 0.20810  0.86880  0.52140  Biso   1.000  C
  C35      1.0000 0.70810  0.63120  0.02140  Biso   1.000  C
  C36      1.0000 0.79190  0.13120  0.47860  Biso   1.000  C
  H29      1.0000 0.27520  0.45590  0.96760  Biso   1.000  H
  H30      1.0000 0.22480  0.95590  0.53240  Biso   1.000  H
  H31      1.0000 0.72480  0.54410  0.03240  Biso   1.000  H
  H32      1.0000 0.77520  0.04410  0.46760  Biso   1.000  H
  C37      1.0000 0.29440  0.27970  0.92490  Biso   1.000  C
  C38      1.0000 0.20560  0.77970  0.57510  Biso   1.000  C
  C39      1.0000 0.70560  0.72030  0.07510  Biso   1.000  C
  C40      1.0000 0.79440  0.22030  0.42490  Biso   1.000  C
  H33      1.0000 0.28180  0.30500  0.87610  Biso   1.000  H
  H34      1.0000 0.21820  0.80500  0.62390  Biso   1.000  H
  H35      1.0000 0.71820  0.69500  0.12390  Biso   1.000  H
  H36      1.0000 0.78180  0.19500  0.37610  Biso   1.000  H
  C41      1.0000 0.31600  0.14830  0.94200  Biso   1.000  C
  C42      1.0000 0.18400  0.64830  0.55800  Biso   1.000  C
  C43      1.0000 0.68400  0.85170  0.05800  Biso   1.000  C
  C44      1.0000 0.81600  0.35170  0.44200  Biso   1.000  C
  C45      1.0000 0.33530  0.11760  0.01600  Biso   1.000  C
  C46      1.0000 0.16470  0.61760  0.48400  Biso   1.000  C
  C47      1.0000 0.66470  0.88240  0.98400  Biso   1.000  C
  C48      1.0000 0.83530  0.38240  0.51600  Biso   1.000  C
  C49      1.0000 0.35130  0.98580  0.03700  Biso   1.000  C
  C50      1.0000 0.14870  0.48580  0.46300  Biso   1.000  C
  C51      1.0000 0.64870  0.01420  0.96300  Biso   1.000  C
  C52      1.0000 0.85130  0.51420  0.53700  Biso   1.000  C
  C53      1.0000 0.34730  0.88510  0.98560  Biso   1.000  C
  C54      1.0000 0.15270  0.38510  0.51440  Biso   1.000  C
  C55      1.0000 0.65270  0.11490  0.01440  Biso   1.000  C
  C56      1.0000 0.84730  0.61490  0.48560  Biso   1.000  C
  C57      1.0000 0.36060  0.75750  0.01070  Biso   1.000  C
  C58      1.0000 0.13940  0.25750  0.48930  Biso   1.000  C
  C59      1.0000 0.63940  0.24250  0.98930  Biso   1.000  C
  C60      1.0000 0.86060  0.74250  0.51070  Biso   1.000  C
  H37      1.0000 0.35950  0.68800  0.97770  Biso   1.000  H
  H38      1.0000 0.14050  0.18800  0.52230  Biso   1.000  H
  H39      1.0000 0.64050  0.31200  0.02230  Biso   1.000  H
  H40      1.0000 0.85950  0.81200  0.47770  Biso   1.000  H
  C61      1.0000 0.37490  0.73570  0.08380  Biso   1.000  C
  C62      1.0000 0.12510  0.23570  0.41620  Biso   1.000  C
  C63      1.0000 0.62510  0.26430  0.91620  Biso   1.000  C
  C64      1.0000 0.87490  0.76430  0.58380  Biso   1.000  C
  H41      1.0000 0.38380  0.65090  0.10140  Biso   1.000  H
  H42      1.0000 0.11620  0.15090  0.39860  Biso   1.000  H
  H43      1.0000 0.61620  0.34910  0.89860  Biso   1.000  H
  H44      1.0000 0.88380  0.84910  0.60140  Biso   1.000  H
  C65      1.0000 0.37630  0.83990  0.13240  Biso   1.000  C
  C66      1.0000 0.12370  0.33990  0.36760  Biso   1.000  C
  C67      1.0000 0.62370  0.16010  0.86760  Biso   1.000  C
  C68      1.0000 0.87630  0.66010  0.63240  Biso   1.000  C
  H45      1.0000 0.38590  0.82300  0.18250  Biso   1.000  H
  H46      1.0000 0.11410  0.32300  0.31750  Biso   1.000  H
  H47      1.0000 0.61410  0.17700  0.81750  Biso   1.000  H
  H48      1.0000 0.88590  0.67700  0.68250  Biso   1.000  H
  C69      1.0000 0.33110  0.91970  0.91060  Biso   1.000  C
  C70      1.0000 0.16890  0.41970  0.58940  Biso   1.000  C
  C71      1.0000 0.66890  0.08030  0.08940  Biso   1.000  C
  C72      1.0000 0.83110  0.58030  0.41060  Biso   1.000  C
  H49      1.0000 0.33140  0.85450  0.87490  Biso   1.000  H
  H50      1.0000 0.16860  0.35450  0.62510  Biso   1.000  H
  H51      1.0000 0.66860  0.14550  0.12510  Biso   1.000  H
  H52      1.0000 0.83140  0.64550  0.37490  Biso   1.000  H
  C73      1.0000 0.31560  0.04310  0.88990  Biso   1.000  C
  C74      1.0000 0.18440  0.54310  0.61010  Biso   1.000  C
  C75      1.0000 0.68440  0.95690  0.11010  Biso   1.000  C
  C76      1.0000 0.81560  0.45690  0.38990  Biso   1.000  C
  H53      1.0000 0.30420  0.06180  0.84010  Biso   1.000  H
  H54      1.0000 0.19580  0.56180  0.65990  Biso   1.000  H
  H55      1.0000 0.69580  0.93820  0.15990  Biso   1.000  H
  H56      1.0000 0.80420  0.43820  0.34010  Biso   1.000  H
  N1       1.0000 0.33710  0.63880  0.30300  Biso   1.000  N
  N2       1.0000 0.16290  0.13880  0.19700  Biso   1.000  N
  N3       1.0000 0.66290  0.36120  0.69700  Biso   1.000  N
  N4       1.0000 0.83710  0.86120  0.80300  Biso   1.000  N
  N5       1.0000 0.45710  0.26630  0.22840  Biso   1.000  N
  N6       1.0000 0.04290  0.76630  0.27160  Biso   1.000  N
  N7       1.0000 0.54290  0.73370  0.77160  Biso   1.000  N
  N8       1.0000 0.95710  0.23370  0.72840  Biso   1.000  N
  N9       1.0000 0.33800  0.20820  0.06990  Biso   1.000  N
  N10      1.0000 0.16200  0.70820  0.43010  Biso   1.000  N
  N11      1.0000 0.66200  0.79180  0.93010  Biso   1.000  N
  N12      1.0000 0.83800  0.29180  0.56990  Biso   1.000  N
  N13      1.0000 0.36470  0.96230  0.11040  Biso   1.000  N
  N14      1.0000 0.13530  0.46230  0.38960  Biso   1.000  N
  N15      1.0000 0.63530  0.03770  0.88960  Biso   1.000  N
  N16      1.0000 0.86470  0.53770  0.61040  Biso   1.000  N
  O1       1.0000 0.67690  0.34980  0.23520  Biso   1.000  O
  O2       1.0000 0.82310  0.84980  0.26480  Biso   1.000  O
  O3       1.0000 0.32310  0.65020  0.76480  Biso   1.000  O
  O4       1.0000 0.17690  0.15020  0.73520  Biso   1.000  O
  O5       1.0000 0.54150  0.40150  0.13010  Biso   1.000  O
  O6       1.0000 0.95850  0.90150  0.36990  Biso   1.000  O
  O7       1.0000 0.45850  0.59850  0.86990  Biso   1.000  O
  O8       1.0000 0.04150  0.09850  0.63010  Biso   1.000  O
  O9       1.0000 0.40070  0.02540  0.25720  Biso   1.000  O
  O10      1.0000 0.09930  0.52540  0.24280  Biso   1.000  O
  O11      1.0000 0.59930  0.97460  0.74280  Biso   1.000  O
  O12      1.0000 0.90070  0.47460  0.75720  Biso   1.000  O
  O13      1.0000 0.43220  0.03880  0.37660  Biso   1.000  O
  O14      1.0000 0.06780  0.53880  0.12340  Biso   1.000  O
  O15      1.0000 0.56780  0.96120  0.62340  Biso   1.000  O
  O16      1.0000 0.93220  0.46120  0.87660  Biso   1.000  O
  S1       1.0000 0.55274  0.37457  0.20714  Biso   1.000  S
  S2       1.0000 0.94726  0.87457  0.29286  Biso   1.000  S
  S3       1.0000 0.44726  0.62543  0.79286  Biso   1.000  S
  S4       1.0000 0.05274  0.12543  0.70714  Biso   1.000  S
  O17      1.0000 0.42430  0.13330  0.52320  Biso   1.000  O
  O18      1.0000 0.07570  0.63330  0.97680  Biso   1.000  O
  O19      1.0000 0.57570  0.86670  0.47680  Biso   1.000  O
  O20      1.0000 0.92430  0.36670  0.02320  Biso   1.000  O
  H57      1.0000 0.46790  0.08040  0.55140  Biso   1.000  H
  H58      1.0000 0.03210  0.58040  0.94860  Biso   1.000  H
  H59      1.0000 0.53210  0.91960  0.44860  Biso   1.000  H
  H60      1.0000 0.96790  0.41960  0.05140  Biso   1.000  H
  H61      1.0000 0.42920  0.10190  0.47940  Biso   1.000  H
  H62      1.0000 0.07080  0.60190  0.02060  Biso   1.000  H
  H63      1.0000 0.57080  0.89810  0.52060  Biso   1.000  H
  H64      1.0000 0.92920  0.39810  0.97940  Biso   1.000  H
  O21      1.0000 0.48670  0.41750  0.48540  Biso   1.000  O
  O22      1.0000 0.01330  0.91750  0.01460  Biso   1.000  O
  O23      1.0000 0.51330  0.58250  0.51460  Biso   1.000  O
  O24      1.0000 0.98670  0.08250  0.98540  Biso   1.000  O
  H65      1.0000 0.49880  0.48050  0.46470  Biso   1.000  H
  H66      1.0000 0.00120  0.98050  0.03530  Biso   1.000  H
  H67      1.0000 0.50120  0.51950  0.53530  Biso   1.000  H
  H68      1.0000 0.99880  0.01950  0.96470  Biso   1.000  H
  H69      1.0000 0.54830  0.36250  0.49580  Biso   1.000  H
  H70      1.0000 0.95170  0.86250  0.00420  Biso   1.000  H
  H71      1.0000 0.45170  0.63750  0.50420  Biso   1.000  H
  H72      1.0000 0.04830  0.13750  0.99580  Biso   1.000  H
