data_image0
_cell_length_a       9.6085
_cell_length_b       10.111
_cell_length_c       11.009
_cell_angle_alpha    99.41
_cell_angle_beta     102.87
_cell_angle_gamma    114.55

_symmetry_space_group_name_H-M    "P 1"
_symmetry_int_tables_number       1

loop_
  _symmetry_equiv_pos_as_xyz
  'x, y, z'

loop_
  _atom_site_label
  _atom_site_occupancy
  _atom_site_fract_x
  _atom_site_fract_y
  _atom_site_fract_z
  _atom_site_thermal_displace_type
  _atom_site_B_iso_or_equiv
  _atom_site_type_symbol
  Cu1      1.0000 0.55046  0.85377  0.68137  Biso   1.000  Cu
  Cu2      1.0000 0.44954  0.14623  0.31863  Biso   1.000  Cu
  O1       1.0000 0.71966  0.06598  0.77093  Biso   1.000  O
  O2       1.0000 0.28034  0.93402  0.22907  Biso   1.000  O
  O3       1.0000 0.79203  0.28994  0.90538  Biso   1.000  O
  O4       1.0000 0.20797  0.71006  0.09462  Biso   1.000  O
  O5       1.0000 0.82997  0.36788  0.19112  Biso   1.000  O
  O6       1.0000 0.17003  0.63212  0.80888  Biso   1.000  O
  O7       1.0000 0.62750  0.40253  0.08216  Biso   1.000  O
  O8       1.0000 0.37250  0.59747  0.91784  Biso   1.000  O
  O9       1.0000 0.62238  0.91095  0.50386  Biso   1.000  O
  O10      1.0000 0.37762  0.08905  0.49614  Biso   1.000  O
  O11      1.0000 0.60070  0.06908  0.39008  Biso   1.000  O
  O12      1.0000 0.39930  0.93092  0.60992  Biso   1.000  O
  N1       1.0000 0.50690  0.92101  0.88798  Biso   1.000  N
  N2       1.0000 0.49310  0.07899  0.11202  Biso   1.000  N
  N3       1.0000 0.38940  0.63648  0.60121  Biso   1.000  N
  N4       1.0000 0.61060  0.36352  0.39879  Biso   1.000  N
  N5       1.0000 0.68680  0.76356  0.75425  Biso   1.000  N
  N6       1.0000 0.31320  0.23644  0.24575  Biso   1.000  N
  C1       1.0000 0.71250  0.14990  0.86500  Biso   1.000  C
  C2       1.0000 0.28750  0.85010  0.13500  Biso   1.000  C
  C3       1.0000 0.59890  0.07250  0.93740  Biso   1.000  C
  C4       1.0000 0.40110  0.92750  0.06260  Biso   1.000  C
  C5       1.0000 0.59220  0.15120  0.05020  Biso   1.000  C
  C6       1.0000 0.40780  0.84880  0.94980  Biso   1.000  C
  C7       1.0000 0.68850  0.32320  0.10860  Biso   1.000  C
  C8       1.0000 0.31150  0.67680  0.89140  Biso   1.000  C
  C9       1.0000 0.24350  0.58230  0.51230  Biso   1.000  C
  C10      1.0000 0.75650  0.41770  0.48770  Biso   1.000  C
  H1       1.0000 0.20960  0.65170  0.48530  Biso   1.000  H
  H2       1.0000 0.79040  0.34830  0.51470  Biso   1.000  H
  C11      1.0000 0.14050  0.42720  0.45860  Biso   1.000  C
  C12      1.0000 0.85950  0.57280  0.54140  Biso   1.000  C
  H3       1.0000 0.03820  0.39070  0.39480  Biso   1.000  H
  H4       1.0000 0.96180  0.60930  0.60520  Biso   1.000  H
  C13      1.0000 0.18990  0.32770  0.49980  Biso   1.000  C
  C14      1.0000 0.81010  0.67230  0.50020  Biso   1.000  C
  H5       1.0000 0.12060  0.22130  0.46520  Biso   1.000  H
  H6       1.0000 0.87940  0.77870  0.53480  Biso   1.000  H
  C15      1.0000 0.34020  0.38210  0.59160  Biso   1.000  C
  C16      1.0000 0.65980  0.61790  0.40840  Biso   1.000  C
  H7       1.0000 0.37540  0.31420  0.62050  Biso   1.000  H
  H8       1.0000 0.62460  0.68580  0.37950  Biso   1.000  H
  C17      1.0000 0.43830  0.53810  0.64060  Biso   1.000  C
  C18      1.0000 0.56170  0.46190  0.35940  Biso   1.000  C
  C19      1.0000 0.60490  0.61120  0.73390  Biso   1.000  C
  C20      1.0000 0.39510  0.38880  0.26610  Biso   1.000  C
  C21      1.0000 0.67730  0.53530  0.79380  Biso   1.000  C
  C22      1.0000 0.32270  0.46470  0.20620  Biso   1.000  C
  H9       1.0000 0.61770  0.42920  0.78100  Biso   1.000  H
  H10      1.0000 0.38230  0.57080  0.21900  Biso   1.000  H
  C23      1.0000 0.83760  0.61570  0.87300  Biso   1.000  C
  C24      1.0000 0.16240  0.38430  0.12700  Biso   1.000  C
  H11      1.0000 0.88880  0.56590  0.91620  Biso   1.000  H
  H12      1.0000 0.11120  0.43410  0.08380  Biso   1.000  H
  C25      1.0000 0.92250  0.77040  0.88800  Biso   1.000  C
  C26      1.0000 0.07750  0.22960  0.11200  Biso   1.000  C
  H13      1.0000 0.03380  0.82680  0.93830  Biso   1.000  H
  H14      1.0000 0.96620  0.17320  0.06170  Biso   1.000  H
  C27      1.0000 0.84270  0.84060  0.82890  Biso   1.000  C
  C28      1.0000 0.15730  0.15940  0.17110  Biso   1.000  C
  H15      1.0000 0.89990  0.94690  0.84130  Biso   1.000  H
  H16      1.0000 0.10010  0.05310  0.15870  Biso   1.000  H
  C29      1.0000 0.56390  0.99340  0.47012  Biso   1.000  C
  C30      1.0000 0.43610  0.00660  0.52988  Biso   1.000  C
  O13      1.0000 0.17470  0.99240  0.73030  Biso   1.000  O
  O14      1.0000 0.82530  0.00760  0.26970  Biso   1.000  O
  H17      1.0000 0.23100  0.96900  0.69000  Biso   1.000  H
  H18      1.0000 0.76900  0.03100  0.31000  Biso   1.000  H
  H19      1.0000 0.23700  0.08500  0.78200  Biso   1.000  H
  H20      1.0000 0.76300  0.91500  0.21800  Biso   1.000  H
  O15      1.0000 0.66070  0.71060  0.11900  Biso   1.000  O
  O16      1.0000 0.33930  0.28940  0.88100  Biso   1.000  O
  H21      1.0000 0.57200  0.67600  0.05800  Biso   1.000  H
  H22      1.0000 0.42800  0.32400  0.94200  Biso   1.000  H
  H23      1.0000 0.69400  0.64000  0.11800  Biso   1.000  H
  H24      1.0000 0.30600  0.36000  0.88200  Biso   1.000  H
  O17      1.0000 0.98040  0.35778  0.74113  Biso   1.000  O
  O18      1.0000 0.01960  0.64222  0.25887  Biso   1.000  O
  H25      1.0000 0.97740  0.27650  0.70160  Biso   1.000  H
  H26      1.0000 0.02260  0.72350  0.29840  Biso   1.000  H
  H27      1.0000 0.91420  0.32670  0.78460  Biso   1.000  H
  H28      1.0000 0.08580  0.67330  0.21540  Biso   1.000  H
  O19      1.0000 0.97000  0.10220  0.61590  Biso   1.000  O
  O20      1.0000 0.03000  0.89780  0.38410  Biso   1.000  O
  H29      1.0000 0.04200  0.06000  0.65200  Biso   1.000  H
  H30      1.0000 0.95800  0.94000  0.34800  Biso   1.000  H
  H31      1.0000 0.86900  0.02900  0.58300  Biso   1.000  H
  H32      1.0000 0.13100  0.97100  0.41700  Biso   1.000  H
  H33      1.0000 0.88100  0.46300  0.21000  Biso   1.000  H
  H34      1.0000 0.11900  0.53700  0.79000  Biso   1.000  H
