data_image0
_cell_length_a       12.6711
_cell_length_b       13.5103
_cell_length_c       12.2692
_cell_angle_alpha    90
_cell_angle_beta     117.2
_cell_angle_gamma    90

_symmetry_space_group_name_H-M    "P 1"
_symmetry_int_tables_number       1

loop_
  _symmetry_equiv_pos_as_xyz
  'x, y, z'

loop_
  _atom_site_label
  _atom_site_occupancy
  _atom_site_fract_x
  _atom_site_fract_y
  _atom_site_fract_z
  _atom_site_thermal_displace_type
  _atom_site_B_iso_or_equiv
  _atom_site_type_symbol
  Cu1      1.0000 0.50000  0.36167  0.25000  Biso   1.000  Cu
  Cu2      1.0000 0.00000  0.86167  0.25000  Biso   1.000  Cu
  Cu3      1.0000 0.50000  0.63833  0.75000  Biso   1.000  Cu
  Cu4      1.0000 0.00000  0.13833  0.75000  Biso   1.000  Cu
  Br1      1.0000 0.37113  0.36321  0.34888  Biso   1.000  Br
  Br2      1.0000 0.87113  0.86321  0.34888  Biso   1.000  Br
  Br3      1.0000 0.62887  0.36321  0.15112  Biso   1.000  Br
  Br4      1.0000 0.12887  0.86321  0.15112  Biso   1.000  Br
  Br5      1.0000 0.62887  0.63679  0.65112  Biso   1.000  Br
  Br6      1.0000 0.12887  0.13679  0.65112  Biso   1.000  Br
  Br7      1.0000 0.37113  0.63679  0.84888  Biso   1.000  Br
  Br8      1.0000 0.87113  0.13679  0.84888  Biso   1.000  Br
  N1       1.0000 0.64000  0.34460  0.41390  Biso   1.000  N
  N2       1.0000 0.14000  0.84460  0.41390  Biso   1.000  N
  N3       1.0000 0.36000  0.34460  0.08610  Biso   1.000  N
  N4       1.0000 0.86000  0.84460  0.08610  Biso   1.000  N
  N5       1.0000 0.36000  0.65540  0.58610  Biso   1.000  N
  N6       1.0000 0.86000  0.15540  0.58610  Biso   1.000  N
  N7       1.0000 0.64000  0.65540  0.91390  Biso   1.000  N
  N8       1.0000 0.14000  0.15540  0.91390  Biso   1.000  N
  C1       1.0000 0.69880  0.25540  0.44300  Biso   1.000  C
  C2       1.0000 0.19880  0.75540  0.44300  Biso   1.000  C
  C3       1.0000 0.30120  0.25540  0.05700  Biso   1.000  C
  C4       1.0000 0.80120  0.75540  0.05700  Biso   1.000  C
  C5       1.0000 0.30120  0.74460  0.55700  Biso   1.000  C
  C6       1.0000 0.80120  0.24460  0.55700  Biso   1.000  C
  C7       1.0000 0.69880  0.74460  0.94300  Biso   1.000  C
  C8       1.0000 0.19880  0.24460  0.94300  Biso   1.000  C
  N9       1.0000 0.84410  0.32060  0.63820  Biso   1.000  N
  N10      1.0000 0.34410  0.82060  0.63820  Biso   1.000  N
  N11      1.0000 0.15590  0.32060  0.86180  Biso   1.000  N
  N12      1.0000 0.65590  0.82060  0.86180  Biso   1.000  N
  N13      1.0000 0.15590  0.67940  0.36180  Biso   1.000  N
  N14      1.0000 0.65590  0.17940  0.36180  Biso   1.000  N
  N15      1.0000 0.84410  0.67940  0.13820  Biso   1.000  N
  N16      1.0000 0.34410  0.17940  0.13820  Biso   1.000  N
  H1       1.0000 0.58700  0.18620  0.28820  Biso   1.000  H
  H2       1.0000 0.08700  0.68620  0.28820  Biso   1.000  H
  H3       1.0000 0.41300  0.18620  0.21180  Biso   1.000  H
  H4       1.0000 0.91300  0.68620  0.21180  Biso   1.000  H
  H5       1.0000 0.41300  0.81380  0.71180  Biso   1.000  H
  H6       1.0000 0.91300  0.31380  0.71180  Biso   1.000  H
  H7       1.0000 0.58700  0.81380  0.78820  Biso   1.000  H
  H8       1.0000 0.08700  0.31380  0.78820  Biso   1.000  H
  C9       1.0000 0.67970  0.41670  0.49440  Biso   1.000  C
  C10      1.0000 0.17970  0.91670  0.49440  Biso   1.000  C
  C11      1.0000 0.32030  0.41670  0.00560  Biso   1.000  C
  C12      1.0000 0.82030  0.91670  0.00560  Biso   1.000  C
  C13      1.0000 0.32030  0.58330  0.50560  Biso   1.000  C
  C14      1.0000 0.82030  0.08330  0.50560  Biso   1.000  C
  C15      1.0000 0.67970  0.58330  0.99440  Biso   1.000  C
  C16      1.0000 0.17970  0.08330  0.99440  Biso   1.000  C
  H9       1.0000 0.63880  0.47650  0.47640  Biso   1.000  H
  H10      1.0000 0.13880  0.97650  0.47640  Biso   1.000  H
  H11      1.0000 0.36120  0.47650  0.02360  Biso   1.000  H
  H12      1.0000 0.86120  0.97650  0.02360  Biso   1.000  H
  H13      1.0000 0.36120  0.52350  0.52360  Biso   1.000  H
  H14      1.0000 0.86120  0.02350  0.52360  Biso   1.000  H
  H15      1.0000 0.63880  0.52350  0.97640  Biso   1.000  H
  H16      1.0000 0.13880  0.02350  0.97640  Biso   1.000  H
  C17      1.0000 0.71710  0.09370  0.39230  Biso   1.000  C
  C18      1.0000 0.21710  0.59370  0.39230  Biso   1.000  C
  C19      1.0000 0.28290  0.09370  0.10770  Biso   1.000  C
  C20      1.0000 0.78290  0.59370  0.10770  Biso   1.000  C
  C21      1.0000 0.28290  0.90630  0.60770  Biso   1.000  C
  C22      1.0000 0.78290  0.40630  0.60770  Biso   1.000  C
  C23      1.0000 0.71710  0.90630  0.89230  Biso   1.000  C
  C24      1.0000 0.21710  0.40630  0.89230  Biso   1.000  C
  H17      1.0000 0.69160  0.04100  0.33780  Biso   1.000  H
  H18      1.0000 0.19160  0.54100  0.33780  Biso   1.000  H
  H19      1.0000 0.30840  0.04100  0.16220  Biso   1.000  H
  H20      1.0000 0.80840  0.54100  0.16220  Biso   1.000  H
  H21      1.0000 0.30840  0.95900  0.66220  Biso   1.000  H
  H22      1.0000 0.80840  0.45900  0.66220  Biso   1.000  H
  H23      1.0000 0.69160  0.95900  0.83780  Biso   1.000  H
  H24      1.0000 0.19160  0.45900  0.83780  Biso   1.000  H
  O1       1.0000 0.50000  0.54400  0.25000  Biso   1.000  O
  O2       1.0000 0.00000  0.04400  0.25000  Biso   1.000  O
  O3       1.0000 0.50000  0.45600  0.75000  Biso   1.000  O
  O4       1.0000 0.00000  0.95600  0.75000  Biso   1.000  O
  C25      1.0000 0.41240  0.60390  0.26370  Biso   1.000  C
  C26      1.0000 0.91240  0.10390  0.26370  Biso   1.000  C
  C27      1.0000 0.58760  0.60390  0.23630  Biso   1.000  C
  C28      1.0000 0.08760  0.10390  0.23630  Biso   1.000  C
  C29      1.0000 0.58760  0.39610  0.73630  Biso   1.000  C
  C30      1.0000 0.08760  0.89610  0.73630  Biso   1.000  C
  C31      1.0000 0.41240  0.39610  0.76370  Biso   1.000  C
  C32      1.0000 0.91240  0.89610  0.76370  Biso   1.000  C
  H25      1.0000 0.44270  0.62560  0.34800  Biso   1.000  H
  H26      1.0000 0.94270  0.12560  0.34800  Biso   1.000  H
  H27      1.0000 0.55730  0.62560  0.15200  Biso   1.000  H
  H28      1.0000 0.05730  0.12560  0.15200  Biso   1.000  H
  H29      1.0000 0.55730  0.37440  0.65200  Biso   1.000  H
  H30      1.0000 0.05730  0.87440  0.65200  Biso   1.000  H
  H31      1.0000 0.44270  0.37440  0.84800  Biso   1.000  H
  H32      1.0000 0.94270  0.87440  0.84800  Biso   1.000  H
  H33      1.0000 0.34080  0.56570  0.24210  Biso   1.000  H
  H34      1.0000 0.84080  0.06570  0.24210  Biso   1.000  H
  H35      1.0000 0.65920  0.56570  0.25790  Biso   1.000  H
  H36      1.0000 0.15920  0.06570  0.25790  Biso   1.000  H
  H37      1.0000 0.65920  0.43430  0.75790  Biso   1.000  H
  H38      1.0000 0.15920  0.93430  0.75790  Biso   1.000  H
  H39      1.0000 0.34080  0.43430  0.74210  Biso   1.000  H
  H40      1.0000 0.84080  0.93430  0.74210  Biso   1.000  H
  C33      1.0000 0.38530  0.69330  0.17910  Biso   1.000  C
  C34      1.0000 0.88530  0.19330  0.17910  Biso   1.000  C
  C35      1.0000 0.61470  0.69330  0.32090  Biso   1.000  C
  C36      1.0000 0.11470  0.19330  0.32090  Biso   1.000  C
  C37      1.0000 0.61470  0.30670  0.82090  Biso   1.000  C
  C38      1.0000 0.11470  0.80670  0.82090  Biso   1.000  C
  C39      1.0000 0.38530  0.30670  0.67910  Biso   1.000  C
  C40      1.0000 0.88530  0.80670  0.67910  Biso   1.000  C
  H41      1.0000 0.32600  0.73520  0.18500  Biso   1.000  H
  H42      1.0000 0.82600  0.23520  0.18500  Biso   1.000  H
  H43      1.0000 0.67400  0.73520  0.31500  Biso   1.000  H
  H44      1.0000 0.17400  0.23520  0.31500  Biso   1.000  H
  H45      1.0000 0.67400  0.26480  0.81500  Biso   1.000  H
  H46      1.0000 0.17400  0.76480  0.81500  Biso   1.000  H
  H47      1.0000 0.32600  0.26480  0.68500  Biso   1.000  H
  H48      1.0000 0.82600  0.76480  0.68500  Biso   1.000  H
  H49      1.0000 0.35450  0.67290  0.09410  Biso   1.000  H
  H50      1.0000 0.85450  0.17290  0.09410  Biso   1.000  H
  H51      1.0000 0.64550  0.67290  0.40590  Biso   1.000  H
  H52      1.0000 0.14550  0.17290  0.40590  Biso   1.000  H
  H53      1.0000 0.64550  0.32710  0.90590  Biso   1.000  H
  H54      1.0000 0.14550  0.82710  0.90590  Biso   1.000  H
  H55      1.0000 0.35450  0.32710  0.59410  Biso   1.000  H
  H56      1.0000 0.85450  0.82710  0.59410  Biso   1.000  H
  O5       1.0000 0.48890  0.75100  0.21010  Biso   1.000  O
  O6       1.0000 0.98890  0.25100  0.21010  Biso   1.000  O
  O7       1.0000 0.51110  0.75100  0.28990  Biso   1.000  O
  O8       1.0000 0.01110  0.25100  0.28990  Biso   1.000  O
  O9       1.0000 0.51110  0.24900  0.78990  Biso   1.000  O
  O10      1.0000 0.01110  0.74900  0.78990  Biso   1.000  O
  O11      1.0000 0.48890  0.24900  0.71010  Biso   1.000  O
  O12      1.0000 0.98890  0.74900  0.71010  Biso   1.000  O
  C41      1.0000 0.60940  0.60350  0.29100  Biso   1.000  C
  C42      1.0000 0.10940  0.10350  0.29100  Biso   1.000  C
  C43      1.0000 0.39060  0.60350  0.20900  Biso   1.000  C
  C44      1.0000 0.89060  0.10350  0.20900  Biso   1.000  C
  C45      1.0000 0.39060  0.39650  0.70900  Biso   1.000  C
  C46      1.0000 0.89060  0.89650  0.70900  Biso   1.000  C
  C47      1.0000 0.60940  0.39650  0.79100  Biso   1.000  C
  C48      1.0000 0.10940  0.89650  0.79100  Biso   1.000  C
  H57      1.0000 0.66880  0.56540  0.29410  Biso   1.000  H
  H58      1.0000 0.16880  0.06540  0.29410  Biso   1.000  H
  H59      1.0000 0.33120  0.56540  0.20590  Biso   1.000  H
  H60      1.0000 0.83120  0.06540  0.20590  Biso   1.000  H
  H61      1.0000 0.33120  0.43460  0.70590  Biso   1.000  H
  H62      1.0000 0.83120  0.93460  0.70590  Biso   1.000  H
  H63      1.0000 0.66880  0.43460  0.79410  Biso   1.000  H
  H64      1.0000 0.16880  0.93460  0.79410  Biso   1.000  H
  H65      1.0000 0.62520  0.62870  0.37170  Biso   1.000  H
  H66      1.0000 0.12520  0.12870  0.37170  Biso   1.000  H
  H67      1.0000 0.37480  0.62870  0.12830  Biso   1.000  H
  H68      1.0000 0.87480  0.12870  0.12830  Biso   1.000  H
  H69      1.0000 0.37480  0.37130  0.62830  Biso   1.000  H
  H70      1.0000 0.87480  0.87130  0.62830  Biso   1.000  H
  H71      1.0000 0.62520  0.37130  0.87170  Biso   1.000  H
  H72      1.0000 0.12520  0.87130  0.87170  Biso   1.000  H
  C49      1.0000 0.42130  0.69060  0.29770  Biso   1.000  C
  C50      1.0000 0.92130  0.19060  0.29770  Biso   1.000  C
  C51      1.0000 0.57870  0.69060  0.20230  Biso   1.000  C
  C52      1.0000 0.07870  0.19060  0.20230  Biso   1.000  C
  C53      1.0000 0.57870  0.30940  0.70230  Biso   1.000  C
  C54      1.0000 0.07870  0.80940  0.70230  Biso   1.000  C
  C55      1.0000 0.42130  0.30940  0.79770  Biso   1.000  C
  C56      1.0000 0.92130  0.80940  0.79770  Biso   1.000  C
  H73      1.0000 0.64810  0.72320  0.20690  Biso   1.000  H
  H74      1.0000 0.14810  0.22320  0.20690  Biso   1.000  H
  H75      1.0000 0.35190  0.72320  0.29310  Biso   1.000  H
  H76      1.0000 0.85190  0.22320  0.29310  Biso   1.000  H
  H77      1.0000 0.35190  0.27680  0.79310  Biso   1.000  H
  H78      1.0000 0.85190  0.77680  0.79310  Biso   1.000  H
  H79      1.0000 0.64810  0.27680  0.70690  Biso   1.000  H
  H80      1.0000 0.14810  0.77680  0.70690  Biso   1.000  H
  H81      1.0000 0.52330  0.67590  0.11810  Biso   1.000  H
  H82      1.0000 0.02330  0.17590  0.11810  Biso   1.000  H
  H83      1.0000 0.47670  0.67590  0.38190  Biso   1.000  H
  H84      1.0000 0.97670  0.17590  0.38190  Biso   1.000  H
  H85      1.0000 0.47670  0.32410  0.88190  Biso   1.000  H
  H86      1.0000 0.97670  0.82410  0.88190  Biso   1.000  H
  H87      1.0000 0.52330  0.32410  0.61810  Biso   1.000  H
  H88      1.0000 0.02330  0.82410  0.61810  Biso   1.000  H
  C57      1.0000 0.04640  0.56640  0.59370  Biso   1.000  C
  C58      1.0000 0.54640  0.06640  0.59370  Biso   1.000  C
  C59      1.0000 0.95360  0.56640  0.90630  Biso   1.000  C
  C60      1.0000 0.45360  0.06640  0.90630  Biso   1.000  C
  C61      1.0000 0.95360  0.43360  0.40630  Biso   1.000  C
  C62      1.0000 0.45360  0.93360  0.40630  Biso   1.000  C
  C63      1.0000 0.04640  0.43360  0.09370  Biso   1.000  C
  C64      1.0000 0.54640  0.93360  0.09370  Biso   1.000  C
  H89      1.0000 0.08890  0.62740  0.62840  Biso   1.000  H
  H90      1.0000 0.58890  0.12740  0.62840  Biso   1.000  H
  H91      1.0000 0.91110  0.62740  0.87160  Biso   1.000  H
  H92      1.0000 0.41110  0.12740  0.87160  Biso   1.000  H
  H93      1.0000 0.91110  0.37260  0.37160  Biso   1.000  H
  H94      1.0000 0.41110  0.87260  0.37160  Biso   1.000  H
  H95      1.0000 0.08890  0.37260  0.12840  Biso   1.000  H
  H96      1.0000 0.58890  0.87260  0.12840  Biso   1.000  H
  H97      1.0000 0.02490  0.53680  0.65280  Biso   1.000  H
  H98      1.0000 0.52490  0.03680  0.65280  Biso   1.000  H
  H99      1.0000 0.97510  0.53680  0.84720  Biso   1.000  H
  H100     1.0000 0.47510  0.03680  0.84720  Biso   1.000  H
  H101     1.0000 0.97510  0.46320  0.34720  Biso   1.000  H
  H102     1.0000 0.47510  0.96320  0.34720  Biso   1.000  H
  H103     1.0000 0.02490  0.46320  0.15280  Biso   1.000  H
  H104     1.0000 0.52490  0.96320  0.15280  Biso   1.000  H
  C65      1.0000 0.94050  0.58760  0.48170  Biso   1.000  C
  C66      1.0000 0.44050  0.08760  0.48170  Biso   1.000  C
  C67      1.0000 0.05950  0.58760  0.01830  Biso   1.000  C
  C68      1.0000 0.55950  0.08760  0.01830  Biso   1.000  C
  C69      1.0000 0.05950  0.41240  0.51830  Biso   1.000  C
  C70      1.0000 0.55950  0.91240  0.51830  Biso   1.000  C
  C71      1.0000 0.94050  0.41240  0.98170  Biso   1.000  C
  C72      1.0000 0.44050  0.91240  0.98170  Biso   1.000  C
  H105     1.0000 0.89190  0.63450  0.49860  Biso   1.000  H
  H106     1.0000 0.39190  0.13450  0.49860  Biso   1.000  H
  H107     1.0000 0.10810  0.63450  0.00140  Biso   1.000  H
  H108     1.0000 0.60810  0.13450  0.00140  Biso   1.000  H
  H109     1.0000 0.10810  0.36550  0.50140  Biso   1.000  H
  H110     1.0000 0.60810  0.86550  0.50140  Biso   1.000  H
  H111     1.0000 0.89190  0.36550  0.99860  Biso   1.000  H
  H112     1.0000 0.39190  0.86550  0.99860  Biso   1.000  H
  H113     1.0000 0.03750  0.38230  0.57680  Biso   1.000  H
  H114     1.0000 0.53750  0.88230  0.57680  Biso   1.000  H
  H115     1.0000 0.96250  0.38230  0.92320  Biso   1.000  H
  H116     1.0000 0.46250  0.88230  0.92320  Biso   1.000  H
  H117     1.0000 0.96250  0.61770  0.42320  Biso   1.000  H
  H118     1.0000 0.46250  0.11770  0.42320  Biso   1.000  H
  H119     1.0000 0.03750  0.61770  0.07680  Biso   1.000  H
  H120     1.0000 0.53750  0.11770  0.07680  Biso   1.000  H
  O13      1.0000 0.05310  0.46670  0.62100  Biso   1.000  O
  O14      1.0000 0.55310  0.96670  0.62100  Biso   1.000  O
  O15      1.0000 0.94690  0.46670  0.87900  Biso   1.000  O
  O16      1.0000 0.44690  0.96670  0.87900  Biso   1.000  O
  O17      1.0000 0.94690  0.53330  0.37900  Biso   1.000  O
  O18      1.0000 0.44690  0.03330  0.37900  Biso   1.000  O
  O19      1.0000 0.05310  0.53330  0.12100  Biso   1.000  O
  O20      1.0000 0.55310  0.03330  0.12100  Biso   1.000  O
  O21      1.0000 0.87570  0.50290  0.43150  Biso   1.000  O
  O22      1.0000 0.37570  0.00290  0.43150  Biso   1.000  O
  O23      1.0000 0.12430  0.50290  0.06850  Biso   1.000  O
  O24      1.0000 0.62430  0.00290  0.06850  Biso   1.000  O
  O25      1.0000 0.12430  0.49710  0.56850  Biso   1.000  O
  O26      1.0000 0.62430  0.99710  0.56850  Biso   1.000  O
  O27      1.0000 0.87570  0.49710  0.93150  Biso   1.000  O
  O28      1.0000 0.37570  0.99710  0.93150  Biso   1.000  O
