data_image0
_cell_length_a       6.931
_cell_length_b       21.83
_cell_length_c       7.201
_cell_angle_alpha    90
_cell_angle_beta     104.05
_cell_angle_gamma    90

_symmetry_space_group_name_H-M    "P 1"
_symmetry_int_tables_number       1

loop_
  _symmetry_equiv_pos_as_xyz
  'x, y, z'

loop_
  _atom_site_label
  _atom_site_occupancy
  _atom_site_fract_x
  _atom_site_fract_y
  _atom_site_fract_z
  _atom_site_thermal_displace_type
  _atom_site_B_iso_or_equiv
  _atom_site_type_symbol
  Cu1      1.0000 0.30675  0.37542  0.38477  Biso   1.000  Cu
  Cu2      1.0000 0.69325  0.87542  0.11523  Biso   1.000  Cu
  Cu3      1.0000 0.69325  0.62458  0.61523  Biso   1.000  Cu
  Cu4      1.0000 0.30675  0.12458  0.88477  Biso   1.000  Cu
  N1       1.0000 0.22310  0.36249  0.63090  Biso   1.000  N
  N2       1.0000 0.77690  0.86249  0.86910  Biso   1.000  N
  N3       1.0000 0.77690  0.63751  0.36910  Biso   1.000  N
  N4       1.0000 0.22310  0.13751  0.13090  Biso   1.000  N
  C1       1.0000 0.05390  0.33500  0.63350  Biso   1.000  C
  C2       1.0000 0.94610  0.83500  0.86650  Biso   1.000  C
  C3       1.0000 0.94610  0.66500  0.36650  Biso   1.000  C
  C4       1.0000 0.05390  0.16500  0.13350  Biso   1.000  C
  H1       1.0000 0.96980  0.32150  0.51600  Biso   1.000  H
  H2       1.0000 0.03020  0.82150  0.98400  Biso   1.000  H
  H3       1.0000 0.03020  0.67850  0.48400  Biso   1.000  H
  H4       1.0000 0.96980  0.17850  0.01600  Biso   1.000  H
  C5       1.0000 0.99320  0.32480  0.80640  Biso   1.000  C
  C6       1.0000 0.00680  0.82480  0.69360  Biso   1.000  C
  C7       1.0000 0.00680  0.67520  0.19360  Biso   1.000  C
  C8       1.0000 0.99320  0.17520  0.30640  Biso   1.000  C
  H5       1.0000 0.86990  0.30500  0.80150  Biso   1.000  H
  H6       1.0000 0.13010  0.80500  0.69850  Biso   1.000  H
  H7       1.0000 0.13010  0.69500  0.19850  Biso   1.000  H
  H8       1.0000 0.86990  0.19500  0.30150  Biso   1.000  H
  N5       1.0000 0.10660  0.34263  0.97530  Biso   1.000  N
  N6       1.0000 0.89340  0.84263  0.52470  Biso   1.000  N
  N7       1.0000 0.89340  0.65737  0.02470  Biso   1.000  N
  N8       1.0000 0.10660  0.15737  0.47530  Biso   1.000  N
  N9       1.0000 0.39780  0.39067  0.14540  Biso   1.000  N
  N10      1.0000 0.60220  0.89067  0.35460  Biso   1.000  N
  N11      1.0000 0.60220  0.60933  0.85460  Biso   1.000  N
  N12      1.0000 0.39780  0.10933  0.64540  Biso   1.000  N
  C9       1.0000 0.56850  0.41860  0.15060  Biso   1.000  C
  C10      1.0000 0.43150  0.91860  0.34940  Biso   1.000  C
  C11      1.0000 0.43150  0.58140  0.84940  Biso   1.000  C
  C12      1.0000 0.56850  0.08140  0.65060  Biso   1.000  C
  H9       1.0000 0.64940  0.43090  0.27100  Biso   1.000  H
  H10      1.0000 0.35060  0.93090  0.22900  Biso   1.000  H
  H11      1.0000 0.35060  0.56910  0.72900  Biso   1.000  H
  H12      1.0000 0.64940  0.06910  0.77100  Biso   1.000  H
  C13      1.0000 0.63530  0.43090  0.98340  Biso   1.000  C
  C14      1.0000 0.36470  0.93090  0.51660  Biso   1.000  C
  C15      1.0000 0.36470  0.56910  0.01660  Biso   1.000  C
  C16      1.0000 0.63530  0.06910  0.48340  Biso   1.000  C
  H13      1.0000 0.75800  0.45150  0.99220  Biso   1.000  H
  H14      1.0000 0.24200  0.95150  0.50780  Biso   1.000  H
  H15      1.0000 0.24200  0.54850  0.00780  Biso   1.000  H
  H16      1.0000 0.75800  0.04850  0.49220  Biso   1.000  H
  C17      1.0000 0.52140  0.41300  0.80950  Biso   1.000  C
  C18      1.0000 0.47860  0.91300  0.69050  Biso   1.000  C
  C19      1.0000 0.47860  0.58700  0.19050  Biso   1.000  C
  C20      1.0000 0.52140  0.08700  0.30950  Biso   1.000  C
  H17      1.0000 0.56310  0.42110  0.69570  Biso   1.000  H
  H18      1.0000 0.43690  0.92110  0.80430  Biso   1.000  H
  H19      1.0000 0.43690  0.57890  0.30430  Biso   1.000  H
  H20      1.0000 0.56310  0.07890  0.19570  Biso   1.000  H
  C21      1.0000 0.34180  0.38234  0.80200  Biso   1.000  C
  C22      1.0000 0.65820  0.88234  0.69800  Biso   1.000  C
  C23      1.0000 0.65820  0.61766  0.19800  Biso   1.000  C
  C24      1.0000 0.34180  0.11766  0.30200  Biso   1.000  C
  C25      1.0000 0.27910  0.37148  0.97270  Biso   1.000  C
  C26      1.0000 0.72090  0.87148  0.52730  Biso   1.000  C
  C27      1.0000 0.72090  0.62852  0.02730  Biso   1.000  C
  C28      1.0000 0.27910  0.12852  0.47270  Biso   1.000  C
  N13      1.0000 0.51950  0.27341  0.44730  Biso   1.000  N
  N14      1.0000 0.48050  0.77341  0.05270  Biso   1.000  N
  N15      1.0000 0.48050  0.72659  0.55270  Biso   1.000  N
  N16      1.0000 0.51950  0.22659  0.94730  Biso   1.000  N
  O1       1.0000 0.56310  0.33001  0.49440  Biso   1.000  O
  O2       1.0000 0.43690  0.83001  0.00560  Biso   1.000  O
  O3       1.0000 0.43690  0.66999  0.50560  Biso   1.000  O
  O4       1.0000 0.56310  0.16999  0.99440  Biso   1.000  O
  O5       1.0000 0.34650  0.26336  0.34680  Biso   1.000  O
  O6       1.0000 0.65350  0.76336  0.15320  Biso   1.000  O
  O7       1.0000 0.65350  0.73664  0.65320  Biso   1.000  O
  O8       1.0000 0.34650  0.23664  0.84680  Biso   1.000  O
  O9       1.0000 0.64360  0.23330  0.50440  Biso   1.000  O
  O10      1.0000 0.35640  0.73330  0.99560  Biso   1.000  O
  O11      1.0000 0.35640  0.76670  0.49560  Biso   1.000  O
  O12      1.0000 0.64360  0.26670  0.00440  Biso   1.000  O
  N17      1.0000 0.11450  0.48110  0.33200  Biso   1.000  N
  N18      1.0000 0.88550  0.98110  0.16800  Biso   1.000  N
  N19      1.0000 0.88550  0.51890  0.66800  Biso   1.000  N
  N20      1.0000 0.11450  0.01890  0.83200  Biso   1.000  N
  O13      1.0000 0.06060  0.42539  0.28620  Biso   1.000  O
  O14      1.0000 0.93940  0.92539  0.21380  Biso   1.000  O
  O15      1.0000 0.93940  0.57461  0.71380  Biso   1.000  O
  O16      1.0000 0.06060  0.07461  0.78620  Biso   1.000  O
  O17      1.0000 0.28810  0.48959  0.43040  Biso   1.000  O
  O18      1.0000 0.71190  0.98959  0.06960  Biso   1.000  O
  O19      1.0000 0.71190  0.51041  0.56960  Biso   1.000  O
  O20      1.0000 0.28810  0.01041  0.93040  Biso   1.000  O
  O21      1.0000 0.99360  0.52245  0.27560  Biso   1.000  O
  O22      1.0000 0.00640  0.02245  0.22440  Biso   1.000  O
  O23      1.0000 0.00640  0.47755  0.72440  Biso   1.000  O
  O24      1.0000 0.99360  0.97755  0.77560  Biso   1.000  O
