data_image0
_cell_length_a       13.8436
_cell_length_b       17.8039
_cell_length_c       17.1476
_cell_angle_alpha    90
_cell_angle_beta     110.268
_cell_angle_gamma    90

_symmetry_space_group_name_H-M    "P 1"
_symmetry_int_tables_number       1

loop_
  _symmetry_equiv_pos_as_xyz
  'x, y, z'

loop_
  _atom_site_label
  _atom_site_occupancy
  _atom_site_fract_x
  _atom_site_fract_y
  _atom_site_fract_z
  _atom_site_thermal_displace_type
  _atom_site_B_iso_or_equiv
  _atom_site_type_symbol
  Cu1      1.0000 0.50000  0.50000  0.50000  Biso   1.000  Cu
  Cu2      1.0000 0.50000  0.00000  0.00000  Biso   1.000  Cu
  Cu3      1.0000 0.23929  0.51055  0.43782  Biso   1.000  Cu
  Cu4      1.0000 0.76071  0.01055  0.06218  Biso   1.000  Cu
  Cu5      1.0000 0.76071  0.48945  0.56218  Biso   1.000  Cu
  Cu6      1.0000 0.23929  0.98945  0.93782  Biso   1.000  Cu
  Cu7      1.0000 0.00000  0.00000  0.00000  Biso   1.000  Cu
  Cu8      1.0000 0.00000  0.50000  0.50000  Biso   1.000  Cu
  O1       1.0000 0.36960  0.46670  0.50150  Biso   1.000  O
  O2       1.0000 0.63040  0.96670  0.99850  Biso   1.000  O
  O3       1.0000 0.63040  0.53330  0.49850  Biso   1.000  O
  O4       1.0000 0.36960  0.03330  0.00150  Biso   1.000  O
  H1       1.0000 0.37360  0.46950  0.55920  Biso   1.000  H
  H2       1.0000 0.62640  0.96950  0.94080  Biso   1.000  H
  H3       1.0000 0.62640  0.53050  0.44080  Biso   1.000  H
  H4       1.0000 0.37360  0.03050  0.05920  Biso   1.000  H
  N1       1.0000 0.16380  0.41640  0.45170  Biso   1.000  N
  N2       1.0000 0.83620  0.91640  0.04830  Biso   1.000  N
  N3       1.0000 0.83620  0.58360  0.54830  Biso   1.000  N
  N4       1.0000 0.16380  0.08360  0.95170  Biso   1.000  N
  N5       1.0000 0.08130  0.41280  0.47840  Biso   1.000  N
  N6       1.0000 0.91870  0.91280  0.02160  Biso   1.000  N
  N7       1.0000 0.91870  0.58720  0.52160  Biso   1.000  N
  N8       1.0000 0.08130  0.08720  0.97840  Biso   1.000  N
  N9       1.0000 0.12010  0.29860  0.45630  Biso   1.000  N
  N10      1.0000 0.87990  0.79860  0.04370  Biso   1.000  N
  N11      1.0000 0.87990  0.70140  0.54370  Biso   1.000  N
  N12      1.0000 0.12010  0.20140  0.95630  Biso   1.000  N
  N13      1.0000 0.89000  0.05200  0.14220  Biso   1.000  N
  N14      1.0000 0.11000  0.55200  0.35780  Biso   1.000  N
  N15      1.0000 0.11000  0.94800  0.85780  Biso   1.000  N
  N16      1.0000 0.89000  0.44800  0.64220  Biso   1.000  N
  N17      1.0000 0.97950  0.06190  0.12600  Biso   1.000  N
  N18      1.0000 0.02050  0.56190  0.37400  Biso   1.000  N
  N19      1.0000 0.02050  0.93810  0.87400  Biso   1.000  N
  N20      1.0000 0.97950  0.43810  0.62600  Biso   1.000  N
  N21      1.0000 0.00710  0.08990  0.25700  Biso   1.000  N
  N22      1.0000 0.99290  0.58990  0.24300  Biso   1.000  N
  N23      1.0000 0.99290  0.91010  0.74300  Biso   1.000  N
  N24      1.0000 0.00710  0.41010  0.75700  Biso   1.000  N
  N25      1.0000 0.78690  0.06030  0.95300  Biso   1.000  N
  N26      1.0000 0.21310  0.56030  0.54700  Biso   1.000  N
  N27      1.0000 0.21310  0.93970  0.04700  Biso   1.000  N
  N28      1.0000 0.78690  0.43970  0.45300  Biso   1.000  N
  N29      1.0000 0.86910  0.05100  0.92620  Biso   1.000  N
  N30      1.0000 0.13090  0.55100  0.57380  Biso   1.000  N
  N31      1.0000 0.13090  0.94900  0.07380  Biso   1.000  N
  N32      1.0000 0.86910  0.44900  0.42620  Biso   1.000  N
  N33      1.0000 0.73980  0.09570  0.82300  Biso   1.000  N
  N34      1.0000 0.26020  0.59570  0.67700  Biso   1.000  N
  N35      1.0000 0.26020  0.90430  0.17700  Biso   1.000  N
  N36      1.0000 0.73980  0.40430  0.32300  Biso   1.000  N
  N37      1.0000 0.57480  0.41290  0.56800  Biso   1.000  N
  N38      1.0000 0.42520  0.91290  0.93200  Biso   1.000  N
  N39      1.0000 0.42520  0.58710  0.43200  Biso   1.000  N
  N40      1.0000 0.57480  0.08710  0.06800  Biso   1.000  N
  N41      1.0000 0.67820  0.40380  0.58450  Biso   1.000  N
  N42      1.0000 0.32180  0.90380  0.91550  Biso   1.000  N
  N43      1.0000 0.32180  0.59620  0.41550  Biso   1.000  N
  N44      1.0000 0.67820  0.09620  0.08450  Biso   1.000  N
  N45      1.0000 0.61700  0.29890  0.61330  Biso   1.000  N
  N46      1.0000 0.38300  0.79890  0.88670  Biso   1.000  N
  N47      1.0000 0.38300  0.70110  0.38670  Biso   1.000  N
  N48      1.0000 0.61700  0.20110  0.11330  Biso   1.000  N
  C1       1.0000 0.18600  0.34640  0.43850  Biso   1.000  C
  C2       1.0000 0.81400  0.84640  0.06150  Biso   1.000  C
  C3       1.0000 0.81400  0.65360  0.56150  Biso   1.000  C
  C4       1.0000 0.18600  0.15360  0.93850  Biso   1.000  C
  H5       1.0000 0.23990  0.33180  0.41940  Biso   1.000  H
  H6       1.0000 0.76010  0.83180  0.08060  Biso   1.000  H
  H7       1.0000 0.76010  0.66820  0.58060  Biso   1.000  H
  H8       1.0000 0.23990  0.16820  0.91940  Biso   1.000  H
  C5       1.0000 0.05700  0.34260  0.47990  Biso   1.000  C
  C6       1.0000 0.94300  0.84260  0.02010  Biso   1.000  C
  C7       1.0000 0.94300  0.65740  0.52010  Biso   1.000  C
  C8       1.0000 0.05700  0.15740  0.97990  Biso   1.000  C
  H9       1.0000 0.00170  0.32490  0.49570  Biso   1.000  H
  H10      1.0000 0.99830  0.82490  0.00430  Biso   1.000  H
  H11      1.0000 0.99830  0.67510  0.50430  Biso   1.000  H
  H12      1.0000 0.00170  0.17510  0.99570  Biso   1.000  H
  C9       1.0000 0.90900  0.06790  0.22060  Biso   1.000  C
  C10      1.0000 0.09100  0.56790  0.27940  Biso   1.000  C
  C11      1.0000 0.09100  0.93210  0.77940  Biso   1.000  C
  C12      1.0000 0.90900  0.43210  0.72060  Biso   1.000  C
  H13      1.0000 0.86010  0.06440  0.24800  Biso   1.000  H
  H14      1.0000 0.13990  0.56440  0.25200  Biso   1.000  H
  H15      1.0000 0.13990  0.93560  0.75200  Biso   1.000  H
  H16      1.0000 0.86010  0.43560  0.74800  Biso   1.000  H
  C13      1.0000 0.04740  0.08680  0.19530  Biso   1.000  C
  C14      1.0000 0.95260  0.58680  0.30470  Biso   1.000  C
  C15      1.0000 0.95260  0.91320  0.80470  Biso   1.000  C
  C16      1.0000 0.04740  0.41320  0.69530  Biso   1.000  C
  H17      1.0000 0.11580  0.10090  0.20150  Biso   1.000  H
  H18      1.0000 0.88420  0.60090  0.29850  Biso   1.000  H
  H19      1.0000 0.88420  0.89910  0.79850  Biso   1.000  H
  H20      1.0000 0.11580  0.39910  0.70150  Biso   1.000  H
  C17      1.0000 0.11820  0.21510  0.44710  Biso   1.000  C
  C18      1.0000 0.88180  0.71510  0.05290  Biso   1.000  C
  C19      1.0000 0.88180  0.78490  0.55290  Biso   1.000  C
  C20      1.0000 0.11820  0.28490  0.94710  Biso   1.000  C
  C21      1.0000 0.22740  0.18450  0.47670  Biso   1.000  C
  C22      1.0000 0.77260  0.68450  0.02330  Biso   1.000  C
  C23      1.0000 0.77260  0.81550  0.52330  Biso   1.000  C
  C24      1.0000 0.22740  0.31550  0.97670  Biso   1.000  C
  H21      1.0000 0.26300  0.19780  0.53580  Biso   1.000  H
  H22      1.0000 0.73700  0.69780  0.96420  Biso   1.000  H
  H23      1.0000 0.73700  0.80220  0.46420  Biso   1.000  H
  H24      1.0000 0.26300  0.30220  0.03580  Biso   1.000  H
  H25      1.0000 0.26630  0.20660  0.44360  Biso   1.000  H
  H26      1.0000 0.73370  0.70660  0.05640  Biso   1.000  H
  H27      1.0000 0.73370  0.79340  0.55640  Biso   1.000  H
  H28      1.0000 0.26630  0.29340  0.94360  Biso   1.000  H
  C25      1.0000 0.22270  0.09910  0.46660  Biso   1.000  C
  C26      1.0000 0.77730  0.59910  0.03340  Biso   1.000  C
  C27      1.0000 0.77730  0.90090  0.53340  Biso   1.000  C
  C28      1.0000 0.22270  0.40090  0.96660  Biso   1.000  C
  H29      1.0000 0.29450  0.07880  0.48570  Biso   1.000  H
  H30      1.0000 0.70550  0.57880  0.01430  Biso   1.000  H
  H31      1.0000 0.70550  0.92120  0.51430  Biso   1.000  H
  H32      1.0000 0.29450  0.42120  0.98570  Biso   1.000  H
  C29      1.0000 0.16870  0.07840  0.37500  Biso   1.000  C
  C30      1.0000 0.83130  0.57840  0.12500  Biso   1.000  C
  C31      1.0000 0.83130  0.92160  0.62500  Biso   1.000  C
  C32      1.0000 0.16870  0.42160  0.87500  Biso   1.000  C
  H33      1.0000 0.20720  0.09960  0.34100  Biso   1.000  H
  H34      1.0000 0.79280  0.59960  0.15900  Biso   1.000  H
  H35      1.0000 0.79280  0.90040  0.65900  Biso   1.000  H
  H36      1.0000 0.20720  0.40040  0.84100  Biso   1.000  H
  H37      1.0000 0.16620  0.02320  0.36840  Biso   1.000  H
  H38      1.0000 0.83380  0.52320  0.13160  Biso   1.000  H
  H39      1.0000 0.83380  0.97680  0.63160  Biso   1.000  H
  H40      1.0000 0.16620  0.47680  0.86840  Biso   1.000  H
  C33      1.0000 0.05970  0.11030  0.34610  Biso   1.000  C
  C34      1.0000 0.94030  0.61030  0.15390  Biso   1.000  C
  C35      1.0000 0.94030  0.88970  0.65390  Biso   1.000  C
  C36      1.0000 0.05970  0.38970  0.84610  Biso   1.000  C
  C37      1.0000 0.06360  0.19550  0.35460  Biso   1.000  C
  C38      1.0000 0.93640  0.69550  0.14540  Biso   1.000  C
  C39      1.0000 0.93640  0.80450  0.64540  Biso   1.000  C
  C40      1.0000 0.06360  0.30450  0.85460  Biso   1.000  C
  H41      1.0000 0.99290  0.21640  0.33470  Biso   1.000  H
  H42      1.0000 0.00710  0.71640  0.16530  Biso   1.000  H
  H43      1.0000 0.00710  0.78360  0.66530  Biso   1.000  H
  H44      1.0000 0.99290  0.28360  0.83470  Biso   1.000  H
  H45      1.0000 0.10190  0.21730  0.32080  Biso   1.000  H
  H46      1.0000 0.89810  0.71730  0.17920  Biso   1.000  H
  H47      1.0000 0.89810  0.78270  0.67920  Biso   1.000  H
  H48      1.0000 0.10190  0.28270  0.82080  Biso   1.000  H
  C41      1.0000 0.05990  0.18220  0.49950  Biso   1.000  C
  C42      1.0000 0.94010  0.68220  0.00050  Biso   1.000  C
  C43      1.0000 0.94010  0.81780  0.50050  Biso   1.000  C
  C44      1.0000 0.05990  0.31780  0.99950  Biso   1.000  C
  H49      1.0000 0.98900  0.20260  0.48130  Biso   1.000  H
  H50      1.0000 0.01100  0.70260  0.01870  Biso   1.000  H
  H51      1.0000 0.01100  0.79740  0.51870  Biso   1.000  H
  H52      1.0000 0.98900  0.29740  0.98130  Biso   1.000  H
  H53      1.0000 0.09490  0.19530  0.55870  Biso   1.000  H
  H54      1.0000 0.90510  0.69530  0.94130  Biso   1.000  H
  H55      1.0000 0.90510  0.80470  0.44130  Biso   1.000  H
  H56      1.0000 0.09490  0.30470  0.05870  Biso   1.000  H
  C45      1.0000 0.05710  0.09590  0.48800  Biso   1.000  C
  C46      1.0000 0.94290  0.59590  0.01200  Biso   1.000  C
  C47      1.0000 0.94290  0.90410  0.51200  Biso   1.000  C
  C48      1.0000 0.05710  0.40410  0.98800  Biso   1.000  C
  H57      1.0000 0.01840  0.07320  0.52170  Biso   1.000  H
  H58      1.0000 0.98160  0.57320  0.97830  Biso   1.000  H
  H59      1.0000 0.98160  0.92680  0.47830  Biso   1.000  H
  H60      1.0000 0.01840  0.42680  0.02170  Biso   1.000  H
  C49      1.0000 0.00160  0.07700  0.39720  Biso   1.000  C
  C50      1.0000 0.99840  0.57700  0.10280  Biso   1.000  C
  C51      1.0000 0.99840  0.92300  0.60280  Biso   1.000  C
  C52      1.0000 0.00160  0.42300  0.89720  Biso   1.000  C
  H61      1.0000 0.99700  0.02190  0.38970  Biso   1.000  H
  H62      1.0000 0.00300  0.52190  0.11030  Biso   1.000  H
  H63      1.0000 0.00300  0.97810  0.61030  Biso   1.000  H
  H64      1.0000 0.99700  0.47810  0.88970  Biso   1.000  H
  H65      1.0000 0.93080  0.09760  0.37880  Biso   1.000  H
  H66      1.0000 0.06920  0.59760  0.12120  Biso   1.000  H
  H67      1.0000 0.06920  0.90240  0.62120  Biso   1.000  H
  H68      1.0000 0.93080  0.40240  0.87880  Biso   1.000  H
  C53      1.0000 0.16570  0.06440  0.51810  Biso   1.000  C
  C54      1.0000 0.83430  0.56440  0.98190  Biso   1.000  C
  C55      1.0000 0.83430  0.93560  0.48190  Biso   1.000  C
  C56      1.0000 0.16570  0.43560  0.01810  Biso   1.000  C
  H69      1.0000 0.20080  0.07670  0.57750  Biso   1.000  H
  H70      1.0000 0.79920  0.57670  0.92250  Biso   1.000  H
  H71      1.0000 0.79920  0.92330  0.42250  Biso   1.000  H
  H72      1.0000 0.20080  0.42330  0.07750  Biso   1.000  H
  H73      1.0000 0.16380  0.00910  0.51180  Biso   1.000  H
  H74      1.0000 0.83620  0.50910  0.98820  Biso   1.000  H
  H75      1.0000 0.83620  0.99090  0.48820  Biso   1.000  H
  H76      1.0000 0.16380  0.49090  0.01180  Biso   1.000  H
  C57      1.0000 0.71130  0.08720  0.88940  Biso   1.000  C
  C58      1.0000 0.28870  0.58720  0.61060  Biso   1.000  C
  C59      1.0000 0.28870  0.91280  0.11060  Biso   1.000  C
  C60      1.0000 0.71130  0.41280  0.38940  Biso   1.000  C
  H77      1.0000 0.64490  0.09920  0.89050  Biso   1.000  H
  H78      1.0000 0.35510  0.59920  0.60950  Biso   1.000  H
  H79      1.0000 0.35510  0.90080  0.10950  Biso   1.000  H
  H80      1.0000 0.64490  0.40080  0.39050  Biso   1.000  H
  C61      1.0000 0.83910  0.07330  0.84780  Biso   1.000  C
  C62      1.0000 0.16090  0.57330  0.65220  Biso   1.000  C
  C63      1.0000 0.16090  0.92670  0.15220  Biso   1.000  C
  C64      1.0000 0.83910  0.42670  0.34780  Biso   1.000  C
  H81      1.0000 0.88100  0.07350  0.81420  Biso   1.000  H
  H82      1.0000 0.11900  0.57350  0.68580  Biso   1.000  H
  H83      1.0000 0.11900  0.92650  0.18580  Biso   1.000  H
  H84      1.0000 0.88100  0.42650  0.31420  Biso   1.000  H
  C65      1.0000 0.53960  0.34890  0.58700  Biso   1.000  C
  C66      1.0000 0.46040  0.84890  0.91300  Biso   1.000  C
  C67      1.0000 0.46040  0.65110  0.41300  Biso   1.000  C
  C68      1.0000 0.53960  0.15110  0.08700  Biso   1.000  C
  H85      1.0000 0.47040  0.33960  0.58270  Biso   1.000  H
  H86      1.0000 0.52960  0.83960  0.91730  Biso   1.000  H
  H87      1.0000 0.52960  0.66040  0.41730  Biso   1.000  H
  H88      1.0000 0.47040  0.16040  0.08270  Biso   1.000  H
  C69      1.0000 0.70050  0.33460  0.61210  Biso   1.000  C
  C70      1.0000 0.29950  0.83460  0.88790  Biso   1.000  C
  C71      1.0000 0.29950  0.66540  0.38790  Biso   1.000  C
  C72      1.0000 0.70050  0.16540  0.11210  Biso   1.000  C
  H89      1.0000 0.76740  0.31310  0.62890  Biso   1.000  H
  H90      1.0000 0.23260  0.81310  0.87110  Biso   1.000  H
  H91      1.0000 0.23260  0.68690  0.37110  Biso   1.000  H
  H92      1.0000 0.76740  0.18690  0.12890  Biso   1.000  H
  C73      1.0000 0.67010  0.11590  0.73680  Biso   1.000  C
  C74      1.0000 0.32990  0.61590  0.76320  Biso   1.000  C
  C75      1.0000 0.32990  0.88410  0.26320  Biso   1.000  C
  C76      1.0000 0.67010  0.38410  0.23680  Biso   1.000  C
  C77      1.0000 0.70150  0.06970  0.67540  Biso   1.000  C
  C78      1.0000 0.29850  0.56970  0.82460  Biso   1.000  C
  C79      1.0000 0.29850  0.93030  0.32460  Biso   1.000  C
  C80      1.0000 0.70150  0.43030  0.17540  Biso   1.000  C
  H93      1.0000 0.69730  0.01560  0.68700  Biso   1.000  H
  H94      1.0000 0.30270  0.51560  0.81300  Biso   1.000  H
  H95      1.0000 0.30270  0.98440  0.31300  Biso   1.000  H
  H96      1.0000 0.69730  0.48440  0.18700  Biso   1.000  H
  H97      1.0000 0.77350  0.08150  0.68110  Biso   1.000  H
  H98      1.0000 0.22650  0.58150  0.81890  Biso   1.000  H
  H99      1.0000 0.22650  0.91850  0.31890  Biso   1.000  H
  H100     1.0000 0.77350  0.41850  0.18110  Biso   1.000  H
  C81      1.0000 0.63020  0.08760  0.58750  Biso   1.000  C
  C82      1.0000 0.36980  0.58760  0.91250  Biso   1.000  C
  C83      1.0000 0.36980  0.91240  0.41250  Biso   1.000  C
  C84      1.0000 0.63020  0.41240  0.08750  Biso   1.000  C
  H101     1.0000 0.65140  0.05680  0.54740  Biso   1.000  H
  H102     1.0000 0.34860  0.55680  0.95260  Biso   1.000  H
  H103     1.0000 0.34860  0.94320  0.45260  Biso   1.000  H
  H104     1.0000 0.65140  0.44320  0.04740  Biso   1.000  H
  C85      1.0000 0.64070  0.17130  0.56960  Biso   1.000  C
  C86      1.0000 0.35930  0.67130  0.93040  Biso   1.000  C
  C87      1.0000 0.35930  0.82870  0.43040  Biso   1.000  C
  C88      1.0000 0.64070  0.32870  0.06960  Biso   1.000  C
  H105     1.0000 0.71280  0.18280  0.57540  Biso   1.000  H
  H106     1.0000 0.28720  0.68280  0.92460  Biso   1.000  H
  H107     1.0000 0.28720  0.81720  0.42460  Biso   1.000  H
  H108     1.0000 0.71280  0.31720  0.07540  Biso   1.000  H
  H109     1.0000 0.59590  0.18360  0.51220  Biso   1.000  H
  H110     1.0000 0.40410  0.68360  0.98780  Biso   1.000  H
  H111     1.0000 0.40410  0.81640  0.48780  Biso   1.000  H
  H112     1.0000 0.59590  0.31640  0.01220  Biso   1.000  H
  C89      1.0000 0.60900  0.21720  0.63160  Biso   1.000  C
  C90      1.0000 0.39100  0.71720  0.86840  Biso   1.000  C
  C91      1.0000 0.39100  0.78280  0.36840  Biso   1.000  C
  C92      1.0000 0.60900  0.28280  0.13160  Biso   1.000  C
  C93      1.0000 0.68030  0.20000  0.72060  Biso   1.000  C
  C94      1.0000 0.31970  0.70000  0.77940  Biso   1.000  C
  C95      1.0000 0.31970  0.80000  0.27940  Biso   1.000  C
  C96      1.0000 0.68030  0.30000  0.22060  Biso   1.000  C
  H113     1.0000 0.66040  0.23060  0.76080  Biso   1.000  H
  H114     1.0000 0.33960  0.73060  0.73920  Biso   1.000  H
  H115     1.0000 0.33960  0.76940  0.23920  Biso   1.000  H
  H116     1.0000 0.66040  0.26940  0.26080  Biso   1.000  H
  H117     1.0000 0.75250  0.21210  0.72710  Biso   1.000  H
  H118     1.0000 0.24750  0.71210  0.77290  Biso   1.000  H
  H119     1.0000 0.24750  0.78790  0.27290  Biso   1.000  H
  H120     1.0000 0.75250  0.28790  0.22710  Biso   1.000  H
  C97      1.0000 0.55930  0.09780  0.72710  Biso   1.000  C
  C98      1.0000 0.44070  0.59780  0.77290  Biso   1.000  C
  C99      1.0000 0.44070  0.90220  0.27290  Biso   1.000  C
  C100     1.0000 0.55930  0.40220  0.22710  Biso   1.000  C
  H121     1.0000 0.55330  0.04380  0.73880  Biso   1.000  H
  H122     1.0000 0.44670  0.54380  0.76120  Biso   1.000  H
  H123     1.0000 0.44670  0.95620  0.26120  Biso   1.000  H
  H124     1.0000 0.55330  0.45620  0.23880  Biso   1.000  H
  H125     1.0000 0.53860  0.12750  0.76760  Biso   1.000  H
  H126     1.0000 0.46140  0.62750  0.73240  Biso   1.000  H
  H127     1.0000 0.46140  0.87250  0.23240  Biso   1.000  H
  H128     1.0000 0.53860  0.37250  0.26760  Biso   1.000  H
  C101     1.0000 0.48960  0.11580  0.64040  Biso   1.000  C
  C102     1.0000 0.51040  0.61580  0.85960  Biso   1.000  C
  C103     1.0000 0.51040  0.88420  0.35960  Biso   1.000  C
  C104     1.0000 0.48960  0.38420  0.14040  Biso   1.000  C
  H129     1.0000 0.41690  0.10360  0.63480  Biso   1.000  H
  H130     1.0000 0.58310  0.60360  0.86520  Biso   1.000  H
  H131     1.0000 0.58310  0.89640  0.36520  Biso   1.000  H
  H132     1.0000 0.41690  0.39640  0.13480  Biso   1.000  H
  C105     1.0000 0.49760  0.19990  0.62290  Biso   1.000  C
  C106     1.0000 0.50240  0.69990  0.87710  Biso   1.000  C
  C107     1.0000 0.50240  0.80010  0.37710  Biso   1.000  C
  C108     1.0000 0.49760  0.30010  0.12290  Biso   1.000  C
  H133     1.0000 0.45100  0.21230  0.56600  Biso   1.000  H
  H134     1.0000 0.54900  0.71230  0.93400  Biso   1.000  H
  H135     1.0000 0.54900  0.78770  0.43400  Biso   1.000  H
  H136     1.0000 0.45100  0.28770  0.06600  Biso   1.000  H
  H137     1.0000 0.47710  0.23050  0.66280  Biso   1.000  H
  H138     1.0000 0.52290  0.73050  0.83720  Biso   1.000  H
  H139     1.0000 0.52290  0.76950  0.33720  Biso   1.000  H
  H140     1.0000 0.47710  0.26950  0.16280  Biso   1.000  H
  C109     1.0000 0.52040  0.06930  0.57670  Biso   1.000  C
  C110     1.0000 0.47960  0.56930  0.92330  Biso   1.000  C
  C111     1.0000 0.47960  0.93070  0.42330  Biso   1.000  C
  C112     1.0000 0.52040  0.43070  0.07670  Biso   1.000  C
  H141     1.0000 0.51340  0.01500  0.58590  Biso   1.000  H
  H142     1.0000 0.48660  0.51500  0.91410  Biso   1.000  H
  H143     1.0000 0.48660  0.98500  0.41410  Biso   1.000  H
  H144     1.0000 0.51340  0.48500  0.08590  Biso   1.000  H
  H145     1.0000 0.47500  0.08190  0.51950  Biso   1.000  H
  H146     1.0000 0.52500  0.58190  0.98050  Biso   1.000  H
  H147     1.0000 0.52500  0.91810  0.48050  Biso   1.000  H
  H148     1.0000 0.47500  0.41810  0.01950  Biso   1.000  H
  N49      1.0000 0.46640  0.32980  0.39360  Biso   1.000  N
  N50      1.0000 0.53360  0.82980  0.10640  Biso   1.000  N
  N51      1.0000 0.53360  0.67020  0.60640  Biso   1.000  N
  N52      1.0000 0.46640  0.17020  0.89360  Biso   1.000  N
  O5       1.0000 0.46420  0.39780  0.37800  Biso   1.000  O
  O6       1.0000 0.53580  0.89780  0.12200  Biso   1.000  O
  O7       1.0000 0.53580  0.60220  0.62200  Biso   1.000  O
  O8       1.0000 0.46420  0.10220  0.87800  Biso   1.000  O
  O9       1.0000 0.38540  0.29530  0.38750  Biso   1.000  O
  O10      1.0000 0.61460  0.79530  0.11250  Biso   1.000  O
  O11      1.0000 0.61460  0.70470  0.61250  Biso   1.000  O
  O12      1.0000 0.38540  0.20470  0.88750  Biso   1.000  O
  O13      1.0000 0.54250  0.29080  0.39840  Biso   1.000  O
  O14      1.0000 0.45750  0.79080  0.10160  Biso   1.000  O
  O15      1.0000 0.45750  0.70920  0.60160  Biso   1.000  O
  O16      1.0000 0.54250  0.20920  0.89840  Biso   1.000  O
  N53      1.0000 0.31180  0.37190  0.66820  Biso   1.000  N
  N54      1.0000 0.68820  0.87190  0.83180  Biso   1.000  N
  N55      1.0000 0.68820  0.62810  0.33180  Biso   1.000  N
  N56      1.0000 0.31180  0.12810  0.16820  Biso   1.000  N
  O17      1.0000 0.37740  0.41360  0.65850  Biso   1.000  O
  O18      1.0000 0.62260  0.91360  0.84150  Biso   1.000  O
  O19      1.0000 0.62260  0.58640  0.34150  Biso   1.000  O
  O20      1.0000 0.37740  0.08640  0.15850  Biso   1.000  O
  O21      1.0000 0.28100  0.31580  0.62640  Biso   1.000  O
  O22      1.0000 0.71900  0.81580  0.87360  Biso   1.000  O
  O23      1.0000 0.71900  0.68420  0.37360  Biso   1.000  O
  O24      1.0000 0.28100  0.18420  0.12640  Biso   1.000  O
  O25      1.0000 0.28620  0.38550  0.73000  Biso   1.000  O
  O26      1.0000 0.71380  0.88550  0.77000  Biso   1.000  O
  O27      1.0000 0.71380  0.61450  0.27000  Biso   1.000  O
  O28      1.0000 0.28620  0.11450  0.23000  Biso   1.000  O
  N57      1.0000 0.06300  0.67070  0.82890  Biso   1.000  N
  N58      1.0000 0.93700  0.17070  0.67110  Biso   1.000  N
  N59      1.0000 0.93700  0.32930  0.17110  Biso   1.000  N
  N60      1.0000 0.06300  0.82930  0.32890  Biso   1.000  N
  O29      1.0000 0.08810  0.62930  0.89080  Biso   1.000  O
  O30      1.0000 0.91190  0.12930  0.60920  Biso   1.000  O
  O31      1.0000 0.91190  0.37070  0.10920  Biso   1.000  O
  O32      1.0000 0.08810  0.87070  0.39080  Biso   1.000  O
  O33      1.0000 0.02700  0.64240  0.75880  Biso   1.000  O
  O34      1.0000 0.97300  0.14240  0.74120  Biso   1.000  O
  O35      1.0000 0.97300  0.35760  0.24120  Biso   1.000  O
  O36      1.0000 0.02700  0.85760  0.25880  Biso   1.000  O
  O37      1.0000 0.08520  0.73760  0.83760  Biso   1.000  O
  O38      1.0000 0.91480  0.23760  0.66240  Biso   1.000  O
  O39      1.0000 0.91480  0.26240  0.16240  Biso   1.000  O
  O40      1.0000 0.08520  0.76240  0.33760  Biso   1.000  O
  O41      1.0000 0.26710  0.44790  0.29870  Biso   1.000  O
  O42      1.0000 0.73290  0.94790  0.20130  Biso   1.000  O
  O43      1.0000 0.73290  0.55210  0.70130  Biso   1.000  O
  O44      1.0000 0.26710  0.05210  0.79870  Biso   1.000  O
  O45      1.0000 0.11870  0.77600  0.94740  Biso   1.000  O
  O46      1.0000 0.88130  0.27600  0.55260  Biso   1.000  O
  O47      1.0000 0.88130  0.22400  0.05260  Biso   1.000  O
  O48      1.0000 0.11870  0.72400  0.44740  Biso   1.000  O
  O49      1.0000 0.55080  0.64100  0.13420  Biso   1.000  O
  O50      1.0000 0.44920  0.14100  0.36580  Biso   1.000  O
  O51      1.0000 0.44920  0.35900  0.86580  Biso   1.000  O
  O52      1.0000 0.55080  0.85900  0.63420  Biso   1.000  O
  O53      1.0000 0.73510  0.10640  0.30100  Biso   1.000  O
  O54      1.0000 0.26490  0.60640  0.19900  Biso   1.000  O
  O55      1.0000 0.26490  0.89360  0.69900  Biso   1.000  O
  O56      1.0000 0.73510  0.39360  0.80100  Biso   1.000  O
  N61      1.0000 0.01700  0.64280  0.79300  Biso   1.000  N
  N62      1.0000 0.98300  0.14280  0.70700  Biso   1.000  N
  N63      1.0000 0.98300  0.35720  0.20700  Biso   1.000  N
  N64      1.0000 0.01700  0.85720  0.29300  Biso   1.000  N
  O57      1.0000 0.08540  0.68910  0.79300  Biso   1.000  O
  O58      1.0000 0.91460  0.18910  0.70700  Biso   1.000  O
  O59      1.0000 0.91460  0.31090  0.20700  Biso   1.000  O
  O60      1.0000 0.08540  0.81090  0.29300  Biso   1.000  O
  O61      1.0000 0.17440  0.76010  0.02300  Biso   1.000  O
  O62      1.0000 0.82560  0.26010  0.47700  Biso   1.000  O
  O63      1.0000 0.82560  0.23990  0.97700  Biso   1.000  O
  O64      1.0000 0.17440  0.73990  0.52300  Biso   1.000  O
  O65      1.0000 0.31600  0.43960  0.67500  Biso   1.000  O
  O66      1.0000 0.68400  0.93960  0.82500  Biso   1.000  O
  O67      1.0000 0.68400  0.56040  0.32500  Biso   1.000  O
  O68      1.0000 0.31600  0.06040  0.17500  Biso   1.000  O
  O69      1.0000 0.32660  0.33980  0.60910  Biso   1.000  O
  O70      1.0000 0.67340  0.83980  0.89090  Biso   1.000  O
  O71      1.0000 0.67340  0.66020  0.39090  Biso   1.000  O
  O72      1.0000 0.32660  0.16020  0.10910  Biso   1.000  O
  O73      1.0000 0.25900  0.33480  0.70280  Biso   1.000  O
  O74      1.0000 0.74100  0.83480  0.79720  Biso   1.000  O
  O75      1.0000 0.74100  0.66520  0.29720  Biso   1.000  O
  O76      1.0000 0.25900  0.16520  0.20280  Biso   1.000  O
  O77      1.0000 0.94800  0.66510  0.81700  Biso   1.000  O
  O78      1.0000 0.05200  0.16510  0.68300  Biso   1.000  O
  O79      1.0000 0.05200  0.33490  0.18300  Biso   1.000  O
  O80      1.0000 0.94800  0.83490  0.31700  Biso   1.000  O
  O81      1.0000 0.99930  0.59090  0.74270  Biso   1.000  O
  O82      1.0000 0.00070  0.09090  0.75730  Biso   1.000  O
  O83      1.0000 0.00070  0.40910  0.25730  Biso   1.000  O
  O84      1.0000 0.99930  0.90910  0.24270  Biso   1.000  O
