data_image0
_cell_length_a       17.725
_cell_length_b       5.958
_cell_length_c       19.077
_cell_angle_alpha    90
_cell_angle_beta     110.7
_cell_angle_gamma    90

_symmetry_space_group_name_H-M    "P 1"
_symmetry_int_tables_number       1

loop_
  _symmetry_equiv_pos_as_xyz
  'x, y, z'

loop_
  _atom_site_label
  _atom_site_occupancy
  _atom_site_fract_x
  _atom_site_fract_y
  _atom_site_fract_z
  _atom_site_thermal_displace_type
  _atom_site_B_iso_or_equiv
  _atom_site_type_symbol
  Cu1      1.0000 0.50000  0.07500  0.25000  Biso   1.000  Cu
  Cu2      1.0000 0.00000  0.57500  0.25000  Biso   1.000  Cu
  Cu3      1.0000 0.50000  0.92500  0.75000  Biso   1.000  Cu
  Cu4      1.0000 0.00000  0.42500  0.75000  Biso   1.000  Cu
  Cl1      1.0000 0.37480  0.00430  0.15720  Biso   1.000  Cl
  Cl2      1.0000 0.62520  0.00430  0.34280  Biso   1.000  Cl
  Cl3      1.0000 0.87480  0.50430  0.15720  Biso   1.000  Cl
  Cl4      1.0000 0.12520  0.50430  0.34280  Biso   1.000  Cl
  Cl5      1.0000 0.62520  0.99570  0.84280  Biso   1.000  Cl
  Cl6      1.0000 0.37480  0.99570  0.65720  Biso   1.000  Cl
  Cl7      1.0000 0.12520  0.49570  0.84280  Biso   1.000  Cl
  Cl8      1.0000 0.87480  0.49570  0.65720  Biso   1.000  Cl
  O1       1.0000 0.45060  0.08780  0.32610  Biso   1.000  O
  O2       1.0000 0.54940  0.08780  0.17390  Biso   1.000  O
  O3       1.0000 0.95060  0.58780  0.32610  Biso   1.000  O
  O4       1.0000 0.04940  0.58780  0.17390  Biso   1.000  O
  O5       1.0000 0.54940  0.91220  0.67390  Biso   1.000  O
  O6       1.0000 0.45060  0.91220  0.82610  Biso   1.000  O
  O7       1.0000 0.04940  0.41220  0.67390  Biso   1.000  O
  O8       1.0000 0.95060  0.41220  0.82610  Biso   1.000  O
  O9       1.0000 0.44360  0.71510  0.34060  Biso   1.000  O
  O10      1.0000 0.55640  0.71510  0.15940  Biso   1.000  O
  O11      1.0000 0.94360  0.21510  0.34060  Biso   1.000  O
  O12      1.0000 0.05640  0.21510  0.15940  Biso   1.000  O
  O13      1.0000 0.55640  0.28490  0.65940  Biso   1.000  O
  O14      1.0000 0.44360  0.28490  0.84060  Biso   1.000  O
  O15      1.0000 0.05640  0.78490  0.65940  Biso   1.000  O
  O16      1.0000 0.94360  0.78490  0.84060  Biso   1.000  O
  N1       1.0000 0.31930  0.07850  0.39000  Biso   1.000  N
  N2       1.0000 0.68070  0.07850  0.11000  Biso   1.000  N
  N3       1.0000 0.81930  0.57850  0.39000  Biso   1.000  N
  N4       1.0000 0.18070  0.57850  0.11000  Biso   1.000  N
  N5       1.0000 0.68070  0.92150  0.61000  Biso   1.000  N
  N6       1.0000 0.31930  0.92150  0.89000  Biso   1.000  N
  N7       1.0000 0.18070  0.42150  0.61000  Biso   1.000  N
  N8       1.0000 0.81930  0.42150  0.89000  Biso   1.000  N
  C1       1.0000 0.43350  0.91250  0.35470  Biso   1.000  C
  C2       1.0000 0.56650  0.91250  0.14530  Biso   1.000  C
  C3       1.0000 0.93350  0.41250  0.35470  Biso   1.000  C
  C4       1.0000 0.06650  0.41250  0.14530  Biso   1.000  C
  C5       1.0000 0.56650  0.08750  0.64530  Biso   1.000  C
  C6       1.0000 0.43350  0.08750  0.85470  Biso   1.000  C
  C7       1.0000 0.06650  0.58750  0.64530  Biso   1.000  C
  C8       1.0000 0.93350  0.58750  0.85470  Biso   1.000  C
  C9       1.0000 0.40000  0.95330  0.41850  Biso   1.000  C
  C10      1.0000 0.60000  0.95330  0.08150  Biso   1.000  C
  C11      1.0000 0.90000  0.45330  0.41850  Biso   1.000  C
  C12      1.0000 0.10000  0.45330  0.08150  Biso   1.000  C
  C13      1.0000 0.60000  0.04670  0.58150  Biso   1.000  C
  C14      1.0000 0.40000  0.04670  0.91850  Biso   1.000  C
  C15      1.0000 0.10000  0.54670  0.58150  Biso   1.000  C
  C16      1.0000 0.90000  0.54670  0.91850  Biso   1.000  C
  C17      1.0000 0.46150  0.07170  0.48500  Biso   1.000  C
  C18      1.0000 0.53850  0.07170  0.01500  Biso   1.000  C
  C19      1.0000 0.96150  0.57170  0.48500  Biso   1.000  C
  C20      1.0000 0.03850  0.57170  0.01500  Biso   1.000  C
  C21      1.0000 0.53850  0.92830  0.51500  Biso   1.000  C
  C22      1.0000 0.46150  0.92830  0.98500  Biso   1.000  C
  C23      1.0000 0.03850  0.42830  0.51500  Biso   1.000  C
  C24      1.0000 0.96150  0.42830  0.98500  Biso   1.000  C
  C25      1.0000 0.26730  0.98360  0.31620  Biso   1.000  C
  C26      1.0000 0.73270  0.98360  0.18380  Biso   1.000  C
  C27      1.0000 0.76730  0.48360  0.31620  Biso   1.000  C
  C28      1.0000 0.23270  0.48360  0.18380  Biso   1.000  C
  C29      1.0000 0.73270  0.01640  0.68380  Biso   1.000  C
  C30      1.0000 0.26730  0.01640  0.81620  Biso   1.000  C
  C31      1.0000 0.23270  0.51640  0.68380  Biso   1.000  C
  C32      1.0000 0.76730  0.51640  0.81620  Biso   1.000  C
  C33      1.0000 0.32930  0.32610  0.38170  Biso   1.000  C
  C34      1.0000 0.67070  0.32610  0.11830  Biso   1.000  C
  C35      1.0000 0.82930  0.82610  0.38170  Biso   1.000  C
  C36      1.0000 0.17070  0.82610  0.11830  Biso   1.000  C
  C37      1.0000 0.67070  0.67390  0.61830  Biso   1.000  C
  C38      1.0000 0.32930  0.67390  0.88170  Biso   1.000  C
  C39      1.0000 0.17070  0.17390  0.61830  Biso   1.000  C
  C40      1.0000 0.82930  0.17390  0.88170  Biso   1.000  C
  C41      1.0000 0.27650  0.04080  0.44440  Biso   1.000  C
  C42      1.0000 0.72350  0.04080  0.05560  Biso   1.000  C
  C43      1.0000 0.77650  0.54080  0.44440  Biso   1.000  C
  C44      1.0000 0.22350  0.54080  0.05560  Biso   1.000  C
  C45      1.0000 0.72350  0.95920  0.55560  Biso   1.000  C
  C46      1.0000 0.27650  0.95920  0.94440  Biso   1.000  C
  C47      1.0000 0.22350  0.45920  0.55560  Biso   1.000  C
  C48      1.0000 0.77650  0.45920  0.94440  Biso   1.000  C
  O17      1.0000 0.50000  0.44850  0.25000  Biso   1.000  O
  O18      1.0000 0.00000  0.94850  0.25000  Biso   1.000  O
  O19      1.0000 0.50000  0.55150  0.75000  Biso   1.000  O
  O20      1.0000 0.00000  0.05150  0.75000  Biso   1.000  O
  H1       1.0000 0.39020  0.80870  0.43590  Biso   1.000  H
  H2       1.0000 0.60980  0.80870  0.06410  Biso   1.000  H
  H3       1.0000 0.89020  0.30870  0.43590  Biso   1.000  H
  H4       1.0000 0.10980  0.30870  0.06410  Biso   1.000  H
  H5       1.0000 0.60980  0.19130  0.56410  Biso   1.000  H
  H6       1.0000 0.39020  0.19130  0.93590  Biso   1.000  H
  H7       1.0000 0.10980  0.69130  0.56410  Biso   1.000  H
  H8       1.0000 0.89020  0.69130  0.93590  Biso   1.000  H
  H9       1.0000 0.47430  0.21540  0.46920  Biso   1.000  H
  H10      1.0000 0.52570  0.21540  0.03080  Biso   1.000  H
  H11      1.0000 0.97430  0.71540  0.46920  Biso   1.000  H
  H12      1.0000 0.02570  0.71540  0.03080  Biso   1.000  H
  H13      1.0000 0.52570  0.78460  0.53080  Biso   1.000  H
  H14      1.0000 0.47430  0.78460  0.96920  Biso   1.000  H
  H15      1.0000 0.02570  0.28460  0.53080  Biso   1.000  H
  H16      1.0000 0.97430  0.28460  0.96920  Biso   1.000  H
  H17      1.0000 0.43930  0.09590  0.52360  Biso   1.000  H
  H18      1.0000 0.56070  0.09590  0.97640  Biso   1.000  H
  H19      1.0000 0.93930  0.59590  0.52360  Biso   1.000  H
  H20      1.0000 0.06070  0.59590  0.97640  Biso   1.000  H
  H21      1.0000 0.56070  0.90410  0.47640  Biso   1.000  H
  H22      1.0000 0.43930  0.90410  0.02360  Biso   1.000  H
  H23      1.0000 0.06070  0.40410  0.47640  Biso   1.000  H
  H24      1.0000 0.93930  0.40410  0.02360  Biso   1.000  H
  H25      1.0000 0.25760  0.82710  0.32200  Biso   1.000  H
  H26      1.0000 0.74240  0.82710  0.17800  Biso   1.000  H
  H27      1.0000 0.75760  0.32710  0.32200  Biso   1.000  H
  H28      1.0000 0.24240  0.32710  0.17800  Biso   1.000  H
  H29      1.0000 0.74240  0.17290  0.67800  Biso   1.000  H
  H30      1.0000 0.25760  0.17290  0.82200  Biso   1.000  H
  H31      1.0000 0.24240  0.67290  0.67800  Biso   1.000  H
  H32      1.0000 0.75760  0.67290  0.82200  Biso   1.000  H
  H33      1.0000 0.29430  0.00000  0.28080  Biso   1.000  H
  H34      1.0000 0.70570  0.00000  0.21920  Biso   1.000  H
  H35      1.0000 0.79430  0.50000  0.28080  Biso   1.000  H
  H36      1.0000 0.20570  0.50000  0.21920  Biso   1.000  H
  H37      1.0000 0.70570  0.00000  0.71920  Biso   1.000  H
  H38      1.0000 0.29430  0.00000  0.78080  Biso   1.000  H
  H39      1.0000 0.20570  0.50000  0.71920  Biso   1.000  H
  H40      1.0000 0.79430  0.50000  0.78080  Biso   1.000  H
  H41      1.0000 0.21680  0.06260  0.29830  Biso   1.000  H
  H42      1.0000 0.78320  0.06260  0.20170  Biso   1.000  H
  H43      1.0000 0.71680  0.56260  0.29830  Biso   1.000  H
  H44      1.0000 0.28320  0.56260  0.20170  Biso   1.000  H
  H45      1.0000 0.78320  0.93740  0.70170  Biso   1.000  H
  H46      1.0000 0.21680  0.93740  0.79830  Biso   1.000  H
  H47      1.0000 0.28320  0.43740  0.70170  Biso   1.000  H
  H48      1.0000 0.71680  0.43740  0.79830  Biso   1.000  H
  H49      1.0000 0.36100  0.38890  0.42940  Biso   1.000  H
  H50      1.0000 0.63900  0.38890  0.07060  Biso   1.000  H
  H51      1.0000 0.86100  0.88890  0.42940  Biso   1.000  H
  H52      1.0000 0.13900  0.88890  0.07060  Biso   1.000  H
  H53      1.0000 0.63900  0.61110  0.57060  Biso   1.000  H
  H54      1.0000 0.36100  0.61110  0.92940  Biso   1.000  H
  H55      1.0000 0.13900  0.11110  0.57060  Biso   1.000  H
  H56      1.0000 0.86100  0.11110  0.92940  Biso   1.000  H
  H57      1.0000 0.35630  0.35070  0.34660  Biso   1.000  H
  H58      1.0000 0.64370  0.35070  0.15340  Biso   1.000  H
  H59      1.0000 0.85630  0.85070  0.34660  Biso   1.000  H
  H60      1.0000 0.14370  0.85070  0.15340  Biso   1.000  H
  H61      1.0000 0.64370  0.64930  0.65340  Biso   1.000  H
  H62      1.0000 0.35630  0.64930  0.84660  Biso   1.000  H
  H63      1.0000 0.14370  0.14930  0.65340  Biso   1.000  H
  H64      1.0000 0.85630  0.14930  0.84660  Biso   1.000  H
  H65      1.0000 0.27740  0.39730  0.36360  Biso   1.000  H
  H66      1.0000 0.72260  0.39730  0.13640  Biso   1.000  H
  H67      1.0000 0.77740  0.89730  0.36360  Biso   1.000  H
  H68      1.0000 0.22260  0.89730  0.13640  Biso   1.000  H
  H69      1.0000 0.72260  0.60270  0.63640  Biso   1.000  H
  H70      1.0000 0.27740  0.60270  0.86360  Biso   1.000  H
  H71      1.0000 0.22260  0.10270  0.63640  Biso   1.000  H
  H72      1.0000 0.77740  0.10270  0.86360  Biso   1.000  H
  H73      1.0000 0.26720  0.88270  0.44720  Biso   1.000  H
  H74      1.0000 0.73280  0.88270  0.05280  Biso   1.000  H
  H75      1.0000 0.76720  0.38270  0.44720  Biso   1.000  H
  H76      1.0000 0.23280  0.38270  0.05280  Biso   1.000  H
  H77      1.0000 0.73280  0.11730  0.55280  Biso   1.000  H
  H78      1.0000 0.26720  0.11730  0.94720  Biso   1.000  H
  H79      1.0000 0.23280  0.61730  0.55280  Biso   1.000  H
  H80      1.0000 0.76720  0.61730  0.94720  Biso   1.000  H
  H81      1.0000 0.22580  0.11870  0.42720  Biso   1.000  H
  H82      1.0000 0.77420  0.11870  0.07280  Biso   1.000  H
  H83      1.0000 0.72580  0.61870  0.42720  Biso   1.000  H
  H84      1.0000 0.27420  0.61870  0.07280  Biso   1.000  H
  H85      1.0000 0.77420  0.88130  0.57280  Biso   1.000  H
  H86      1.0000 0.22580  0.88130  0.92720  Biso   1.000  H
  H87      1.0000 0.27420  0.38130  0.57280  Biso   1.000  H
  H88      1.0000 0.72580  0.38130  0.92720  Biso   1.000  H
  H89      1.0000 0.30880  0.09550  0.49310  Biso   1.000  H
  H90      1.0000 0.69120  0.09550  0.00690  Biso   1.000  H
  H91      1.0000 0.80880  0.59550  0.49310  Biso   1.000  H
  H92      1.0000 0.19120  0.59550  0.00690  Biso   1.000  H
  H93      1.0000 0.69120  0.90450  0.50690  Biso   1.000  H
  H94      1.0000 0.30880  0.90450  0.99310  Biso   1.000  H
  H95      1.0000 0.19120  0.40450  0.50690  Biso   1.000  H
  H96      1.0000 0.80880  0.40450  0.99310  Biso   1.000  H
  H97      1.0000 0.51520  0.52490  0.22510  Biso   1.000  H
  H98      1.0000 0.48480  0.52490  0.27490  Biso   1.000  H
  H99      1.0000 0.01520  0.02490  0.22510  Biso   1.000  H
  H100     1.0000 0.98480  0.02490  0.27490  Biso   1.000  H
  H101     1.0000 0.48480  0.47510  0.77490  Biso   1.000  H
  H102     1.0000 0.51520  0.47510  0.72510  Biso   1.000  H
  H103     1.0000 0.98480  0.97510  0.77490  Biso   1.000  H
  H104     1.0000 0.01520  0.97510  0.72510  Biso   1.000  H
  O21      1.0000 0.40760  0.43740  0.05980  Biso   1.000  O
  O22      1.0000 0.59240  0.43740  0.44020  Biso   1.000  O
  O23      1.0000 0.90760  0.93740  0.05980  Biso   1.000  O
  O24      1.0000 0.09240  0.93740  0.44020  Biso   1.000  O
  O25      1.0000 0.59240  0.56260  0.94020  Biso   1.000  O
  O26      1.0000 0.40760  0.56260  0.55980  Biso   1.000  O
  O27      1.0000 0.09240  0.06260  0.94020  Biso   1.000  O
  O28      1.0000 0.90760  0.06260  0.55980  Biso   1.000  O
  H105     1.0000 0.42350  0.55620  0.08110  Biso   1.000  H
  H106     1.0000 0.57650  0.55620  0.41890  Biso   1.000  H
  H107     1.0000 0.92350  0.05620  0.08110  Biso   1.000  H
  H108     1.0000 0.07650  0.05620  0.41890  Biso   1.000  H
  H109     1.0000 0.57650  0.44380  0.91890  Biso   1.000  H
  H110     1.0000 0.42350  0.44380  0.58110  Biso   1.000  H
  H111     1.0000 0.07650  0.94380  0.91890  Biso   1.000  H
  H112     1.0000 0.92350  0.94380  0.58110  Biso   1.000  H
  H113     1.0000 0.39680  0.30830  0.08820  Biso   1.000  H
  H114     1.0000 0.60320  0.30830  0.41180  Biso   1.000  H
  H115     1.0000 0.89680  0.80830  0.08820  Biso   1.000  H
  H116     1.0000 0.10320  0.80830  0.41180  Biso   1.000  H
  H117     1.0000 0.60320  0.69170  0.91180  Biso   1.000  H
  H118     1.0000 0.39680  0.69170  0.58820  Biso   1.000  H
  H119     1.0000 0.10320  0.19170  0.91180  Biso   1.000  H
  H120     1.0000 0.89680  0.19170  0.58820  Biso   1.000  H
