data_image0
_cell_length_a       18.268
_cell_length_b       5.938
_cell_length_c       19.166
_cell_angle_alpha    90
_cell_angle_beta     109.08
_cell_angle_gamma    90

_symmetry_space_group_name_H-M    "P 1"
_symmetry_int_tables_number       1

loop_
  _symmetry_equiv_pos_as_xyz
  'x, y, z'

loop_
  _atom_site_label
  _atom_site_occupancy
  _atom_site_fract_x
  _atom_site_fract_y
  _atom_site_fract_z
  _atom_site_thermal_displace_type
  _atom_site_B_iso_or_equiv
  _atom_site_type_symbol
  Cu1      1.0000 0.50000  0.07020  0.25000  Biso   1.000  Cu
  Cu2      1.0000 0.00000  0.57020  0.25000  Biso   1.000  Cu
  Cu3      1.0000 0.50000  0.92980  0.75000  Biso   1.000  Cu
  Cu4      1.0000 0.00000  0.42980  0.75000  Biso   1.000  Cu
  Br1      1.0000 0.36990  0.98640  0.15810  Biso   1.000  Br
  Br2      1.0000 0.63010  0.98640  0.34190  Biso   1.000  Br
  Br3      1.0000 0.86990  0.48640  0.15810  Biso   1.000  Br
  Br4      1.0000 0.13010  0.48640  0.34190  Biso   1.000  Br
  Br5      1.0000 0.63010  0.01360  0.84190  Biso   1.000  Br
  Br6      1.0000 0.36990  0.01360  0.65810  Biso   1.000  Br
  Br7      1.0000 0.13010  0.51360  0.84190  Biso   1.000  Br
  Br8      1.0000 0.86990  0.51360  0.65810  Biso   1.000  Br
  O1       1.0000 0.45540  0.08020  0.32830  Biso   1.000  O
  O2       1.0000 0.54460  0.08020  0.17170  Biso   1.000  O
  O3       1.0000 0.95540  0.58020  0.32830  Biso   1.000  O
  O4       1.0000 0.04460  0.58020  0.17170  Biso   1.000  O
  O5       1.0000 0.54460  0.91980  0.67170  Biso   1.000  O
  O6       1.0000 0.45540  0.91980  0.82830  Biso   1.000  O
  O7       1.0000 0.04460  0.41980  0.67170  Biso   1.000  O
  O8       1.0000 0.95540  0.41980  0.82830  Biso   1.000  O
  O9       1.0000 0.44970  0.70760  0.34420  Biso   1.000  O
  O10      1.0000 0.55030  0.70760  0.15580  Biso   1.000  O
  O11      1.0000 0.94970  0.20760  0.34420  Biso   1.000  O
  O12      1.0000 0.05030  0.20760  0.15580  Biso   1.000  O
  O13      1.0000 0.55030  0.29240  0.65580  Biso   1.000  O
  O14      1.0000 0.44970  0.29240  0.84420  Biso   1.000  O
  O15      1.0000 0.05030  0.79240  0.65580  Biso   1.000  O
  O16      1.0000 0.94970  0.79240  0.84420  Biso   1.000  O
  N1       1.0000 0.32740  0.07260  0.39210  Biso   1.000  N
  N2       1.0000 0.67260  0.07260  0.10790  Biso   1.000  N
  N3       1.0000 0.82740  0.57260  0.39210  Biso   1.000  N
  N4       1.0000 0.17260  0.57260  0.10790  Biso   1.000  N
  N5       1.0000 0.67260  0.92740  0.60790  Biso   1.000  N
  N6       1.0000 0.32740  0.92740  0.89210  Biso   1.000  N
  N7       1.0000 0.17260  0.42740  0.60790  Biso   1.000  N
  N8       1.0000 0.82740  0.42740  0.89210  Biso   1.000  N
  C1       1.0000 0.43880  0.90540  0.35770  Biso   1.000  C
  C2       1.0000 0.56120  0.90540  0.14230  Biso   1.000  C
  C3       1.0000 0.93880  0.40540  0.35770  Biso   1.000  C
  C4       1.0000 0.06120  0.40540  0.14230  Biso   1.000  C
  C5       1.0000 0.56120  0.09460  0.64230  Biso   1.000  C
  C6       1.0000 0.43880  0.09460  0.85770  Biso   1.000  C
  C7       1.0000 0.06120  0.59460  0.64230  Biso   1.000  C
  C8       1.0000 0.93880  0.59460  0.85770  Biso   1.000  C
  C9       1.0000 0.40500  0.94810  0.42030  Biso   1.000  C
  C10      1.0000 0.59500  0.94810  0.07970  Biso   1.000  C
  C11      1.0000 0.90500  0.44810  0.42030  Biso   1.000  C
  C12      1.0000 0.09500  0.44810  0.07970  Biso   1.000  C
  C13      1.0000 0.59500  0.05190  0.57970  Biso   1.000  C
  C14      1.0000 0.40500  0.05190  0.92030  Biso   1.000  C
  C15      1.0000 0.09500  0.55190  0.57970  Biso   1.000  C
  C16      1.0000 0.90500  0.55190  0.92030  Biso   1.000  C
  C17      1.0000 0.46330  0.07160  0.48480  Biso   1.000  C
  C18      1.0000 0.53670  0.07160  0.01520  Biso   1.000  C
  C19      1.0000 0.96330  0.57160  0.48480  Biso   1.000  C
  C20      1.0000 0.03670  0.57160  0.01520  Biso   1.000  C
  C21      1.0000 0.53670  0.92840  0.51520  Biso   1.000  C
  C22      1.0000 0.46330  0.92840  0.98480  Biso   1.000  C
  C23      1.0000 0.03670  0.42840  0.51520  Biso   1.000  C
  C24      1.0000 0.96330  0.42840  0.98480  Biso   1.000  C
  C25      1.0000 0.27770  0.96910  0.32080  Biso   1.000  C
  C26      1.0000 0.72230  0.96910  0.17920  Biso   1.000  C
  C27      1.0000 0.77770  0.46910  0.32080  Biso   1.000  C
  C28      1.0000 0.22230  0.46910  0.17920  Biso   1.000  C
  C29      1.0000 0.72230  0.03090  0.67920  Biso   1.000  C
  C30      1.0000 0.27770  0.03090  0.82080  Biso   1.000  C
  C31      1.0000 0.22230  0.53090  0.67920  Biso   1.000  C
  C32      1.0000 0.77770  0.53090  0.82080  Biso   1.000  C
  C33      1.0000 0.33630  0.31830  0.37980  Biso   1.000  C
  C34      1.0000 0.66370  0.31830  0.12020  Biso   1.000  C
  C35      1.0000 0.83630  0.81830  0.37980  Biso   1.000  C
  C36      1.0000 0.16370  0.81830  0.12020  Biso   1.000  C
  C37      1.0000 0.66370  0.68170  0.62020  Biso   1.000  C
  C38      1.0000 0.33630  0.68170  0.87980  Biso   1.000  C
  C39      1.0000 0.16370  0.18170  0.62020  Biso   1.000  C
  C40      1.0000 0.83630  0.18170  0.87980  Biso   1.000  C
  C41      1.0000 0.28480  0.04360  0.44650  Biso   1.000  C
  C42      1.0000 0.71520  0.04360  0.05350  Biso   1.000  C
  C43      1.0000 0.78480  0.54360  0.44650  Biso   1.000  C
  C44      1.0000 0.21520  0.54360  0.05350  Biso   1.000  C
  C45      1.0000 0.71520  0.95640  0.55350  Biso   1.000  C
  C46      1.0000 0.28480  0.95640  0.94650  Biso   1.000  C
  C47      1.0000 0.21520  0.45640  0.55350  Biso   1.000  C
  C48      1.0000 0.78480  0.45640  0.94650  Biso   1.000  C
  O17      1.0000 0.50000  0.43720  0.25000  Biso   1.000  O
  O18      1.0000 0.00000  0.93720  0.25000  Biso   1.000  O
  O19      1.0000 0.50000  0.56280  0.75000  Biso   1.000  O
  O20      1.0000 0.00000  0.06280  0.75000  Biso   1.000  O
  H1       1.0000 0.39530  0.80400  0.43820  Biso   1.000  H
  H2       1.0000 0.60470  0.80400  0.06180  Biso   1.000  H
  H3       1.0000 0.89530  0.30400  0.43820  Biso   1.000  H
  H4       1.0000 0.10470  0.30400  0.06180  Biso   1.000  H
  H5       1.0000 0.60470  0.19600  0.56180  Biso   1.000  H
  H6       1.0000 0.39530  0.19600  0.93820  Biso   1.000  H
  H7       1.0000 0.10470  0.69600  0.56180  Biso   1.000  H
  H8       1.0000 0.89530  0.69600  0.93820  Biso   1.000  H
  H9       1.0000 0.47630  0.21360  0.46790  Biso   1.000  H
  H10      1.0000 0.52370  0.21360  0.03210  Biso   1.000  H
  H11      1.0000 0.97630  0.71360  0.46790  Biso   1.000  H
  H12      1.0000 0.02370  0.71360  0.03210  Biso   1.000  H
  H13      1.0000 0.52370  0.78640  0.53210  Biso   1.000  H
  H14      1.0000 0.47630  0.78640  0.96790  Biso   1.000  H
  H15      1.0000 0.02370  0.28640  0.53210  Biso   1.000  H
  H16      1.0000 0.97630  0.28640  0.96790  Biso   1.000  H
  H17      1.0000 0.44090  0.09680  0.52300  Biso   1.000  H
  H18      1.0000 0.55910  0.09680  0.97700  Biso   1.000  H
  H19      1.0000 0.94090  0.59680  0.52300  Biso   1.000  H
  H20      1.0000 0.05910  0.59680  0.97700  Biso   1.000  H
  H21      1.0000 0.55910  0.90320  0.47700  Biso   1.000  H
  H22      1.0000 0.44090  0.90320  0.02300  Biso   1.000  H
  H23      1.0000 0.05910  0.40320  0.47700  Biso   1.000  H
  H24      1.0000 0.94090  0.40320  0.02300  Biso   1.000  H
  H25      1.0000 0.27450  0.80960  0.32750  Biso   1.000  H
  H26      1.0000 0.72550  0.80960  0.17250  Biso   1.000  H
  H27      1.0000 0.77450  0.30960  0.32750  Biso   1.000  H
  H28      1.0000 0.22550  0.30960  0.17250  Biso   1.000  H
  H29      1.0000 0.72550  0.19040  0.67250  Biso   1.000  H
  H30      1.0000 0.27450  0.19040  0.82750  Biso   1.000  H
  H31      1.0000 0.22550  0.69040  0.67250  Biso   1.000  H
  H32      1.0000 0.77450  0.69040  0.82750  Biso   1.000  H
  H33      1.0000 0.30040  0.99710  0.28290  Biso   1.000  H
  H34      1.0000 0.69960  0.99710  0.21710  Biso   1.000  H
  H35      1.0000 0.80040  0.49710  0.28290  Biso   1.000  H
  H36      1.0000 0.19960  0.49710  0.21710  Biso   1.000  H
  H37      1.0000 0.69960  0.00290  0.71710  Biso   1.000  H
  H38      1.0000 0.30040  0.00290  0.78290  Biso   1.000  H
  H39      1.0000 0.19960  0.50290  0.71710  Biso   1.000  H
  H40      1.0000 0.80040  0.50290  0.78290  Biso   1.000  H
  H41      1.0000 0.22670  0.03310  0.30650  Biso   1.000  H
  H42      1.0000 0.77330  0.03310  0.19350  Biso   1.000  H
  H43      1.0000 0.72670  0.53310  0.30650  Biso   1.000  H
  H44      1.0000 0.27330  0.53310  0.19350  Biso   1.000  H
  H45      1.0000 0.77330  0.96690  0.69350  Biso   1.000  H
  H46      1.0000 0.22670  0.96690  0.80650  Biso   1.000  H
  H47      1.0000 0.27330  0.46690  0.69350  Biso   1.000  H
  H48      1.0000 0.72670  0.46690  0.80650  Biso   1.000  H
  H49      1.0000 0.36410  0.38920  0.42590  Biso   1.000  H
  H50      1.0000 0.63590  0.38920  0.07410  Biso   1.000  H
  H51      1.0000 0.86410  0.88920  0.42590  Biso   1.000  H
  H52      1.0000 0.13590  0.88920  0.07410  Biso   1.000  H
  H53      1.0000 0.63590  0.61080  0.57410  Biso   1.000  H
  H54      1.0000 0.36410  0.61080  0.92590  Biso   1.000  H
  H55      1.0000 0.13590  0.11080  0.57410  Biso   1.000  H
  H56      1.0000 0.86410  0.11080  0.92590  Biso   1.000  H
  H57      1.0000 0.36430  0.33760  0.34570  Biso   1.000  H
  H58      1.0000 0.63570  0.33760  0.15430  Biso   1.000  H
  H59      1.0000 0.86430  0.83760  0.34570  Biso   1.000  H
  H60      1.0000 0.13570  0.83760  0.15430  Biso   1.000  H
  H61      1.0000 0.63570  0.66240  0.65430  Biso   1.000  H
  H62      1.0000 0.36430  0.66240  0.84570  Biso   1.000  H
  H63      1.0000 0.13570  0.16240  0.65430  Biso   1.000  H
  H64      1.0000 0.86430  0.16240  0.84570  Biso   1.000  H
  H65      1.0000 0.28600  0.38580  0.35980  Biso   1.000  H
  H66      1.0000 0.71400  0.38580  0.14020  Biso   1.000  H
  H67      1.0000 0.78600  0.88580  0.35980  Biso   1.000  H
  H68      1.0000 0.21400  0.88580  0.14020  Biso   1.000  H
  H69      1.0000 0.71400  0.61420  0.64020  Biso   1.000  H
  H70      1.0000 0.28600  0.61420  0.85980  Biso   1.000  H
  H71      1.0000 0.21400  0.11420  0.64020  Biso   1.000  H
  H72      1.0000 0.78600  0.11420  0.85980  Biso   1.000  H
  H73      1.0000 0.28040  0.88630  0.45600  Biso   1.000  H
  H74      1.0000 0.71960  0.88630  0.04400  Biso   1.000  H
  H75      1.0000 0.78040  0.38630  0.45600  Biso   1.000  H
  H76      1.0000 0.21960  0.38630  0.04400  Biso   1.000  H
  H77      1.0000 0.71960  0.11370  0.54400  Biso   1.000  H
  H78      1.0000 0.28040  0.11370  0.95600  Biso   1.000  H
  H79      1.0000 0.21960  0.61370  0.54400  Biso   1.000  H
  H80      1.0000 0.78040  0.61370  0.95600  Biso   1.000  H
  H81      1.0000 0.23400  0.10830  0.42680  Biso   1.000  H
  H82      1.0000 0.76600  0.10830  0.07320  Biso   1.000  H
  H83      1.0000 0.73400  0.60830  0.42680  Biso   1.000  H
  H84      1.0000 0.26600  0.60830  0.07320  Biso   1.000  H
  H85      1.0000 0.76600  0.89170  0.57320  Biso   1.000  H
  H86      1.0000 0.23400  0.89170  0.92680  Biso   1.000  H
  H87      1.0000 0.26600  0.39170  0.57320  Biso   1.000  H
  H88      1.0000 0.73400  0.39170  0.92680  Biso   1.000  H
  H89      1.0000 0.31290  0.11880  0.49160  Biso   1.000  H
  H90      1.0000 0.68710  0.11880  0.00840  Biso   1.000  H
  H91      1.0000 0.81290  0.61880  0.49160  Biso   1.000  H
  H92      1.0000 0.18710  0.61880  0.00840  Biso   1.000  H
  H93      1.0000 0.68710  0.88120  0.50840  Biso   1.000  H
  H94      1.0000 0.31290  0.88120  0.99160  Biso   1.000  H
  H95      1.0000 0.18710  0.38120  0.50840  Biso   1.000  H
  H96      1.0000 0.81290  0.38120  0.99160  Biso   1.000  H
  H97      1.0000 0.48010  0.51350  0.27490  Biso   1.000  H
  H98      1.0000 0.51990  0.51350  0.22510  Biso   1.000  H
  H99      1.0000 0.98010  0.01350  0.27490  Biso   1.000  H
  H100     1.0000 0.01990  0.01350  0.22510  Biso   1.000  H
  H101     1.0000 0.51990  0.48650  0.72510  Biso   1.000  H
  H102     1.0000 0.48010  0.48650  0.77490  Biso   1.000  H
  H103     1.0000 0.01990  0.98650  0.72510  Biso   1.000  H
  H104     1.0000 0.98010  0.98650  0.77490  Biso   1.000  H
  O21      1.0000 0.40180  0.44030  0.05790  Biso   1.000  O
  O22      1.0000 0.59820  0.44030  0.44210  Biso   1.000  O
  O23      1.0000 0.90180  0.94030  0.05790  Biso   1.000  O
  O24      1.0000 0.09820  0.94030  0.44210  Biso   1.000  O
  O25      1.0000 0.59820  0.55970  0.94210  Biso   1.000  O
  O26      1.0000 0.40180  0.55970  0.55790  Biso   1.000  O
  O27      1.0000 0.09820  0.05970  0.94210  Biso   1.000  O
  O28      1.0000 0.90180  0.05970  0.55790  Biso   1.000  O
  H105     1.0000 0.43270  0.53400  0.09440  Biso   1.000  H
  H106     1.0000 0.56730  0.53400  0.40560  Biso   1.000  H
  H107     1.0000 0.93270  0.03400  0.09440  Biso   1.000  H
  H108     1.0000 0.06730  0.03400  0.40560  Biso   1.000  H
  H109     1.0000 0.56730  0.46600  0.90560  Biso   1.000  H
  H110     1.0000 0.43270  0.46600  0.59440  Biso   1.000  H
  H111     1.0000 0.06730  0.96600  0.90560  Biso   1.000  H
  H112     1.0000 0.93270  0.96600  0.59440  Biso   1.000  H
  H113     1.0000 0.40370  0.32370  0.09120  Biso   1.000  H
  H114     1.0000 0.59630  0.32370  0.40880  Biso   1.000  H
  H115     1.0000 0.90370  0.82370  0.09120  Biso   1.000  H
  H116     1.0000 0.09630  0.82370  0.40880  Biso   1.000  H
  H117     1.0000 0.59630  0.67630  0.90880  Biso   1.000  H
  H118     1.0000 0.40370  0.67630  0.59120  Biso   1.000  H
  H119     1.0000 0.09630  0.17630  0.90880  Biso   1.000  H
  H120     1.0000 0.90370  0.17630  0.59120  Biso   1.000  H
