data_image0
_cell_length_a       6.203
_cell_length_b       9.293
_cell_length_c       12.035
_cell_angle_alpha    86.56
_cell_angle_beta     87.33
_cell_angle_gamma    71.23

_symmetry_space_group_name_H-M    "P 1"
_symmetry_int_tables_number       1

loop_
  _symmetry_equiv_pos_as_xyz
  'x, y, z'

loop_
  _atom_site_label
  _atom_site_occupancy
  _atom_site_fract_x
  _atom_site_fract_y
  _atom_site_fract_z
  _atom_site_thermal_displace_type
  _atom_site_B_iso_or_equiv
  _atom_site_type_symbol
  O1       1.0000 0.31140  0.16340  0.08890  Biso   1.000  O
  O2       1.0000 0.68860  0.83660  0.91110  Biso   1.000  O
  O3       1.0000 0.51220  0.32340  0.06650  Biso   1.000  O
  O4       1.0000 0.48780  0.67660  0.93350  Biso   1.000  O
  N1       1.0000 0.04710  0.37670  0.25440  Biso   1.000  N
  N2       1.0000 0.95290  0.62330  0.74560  Biso   1.000  N
  C1       1.0000 0.34270  0.28970  0.09660  Biso   1.000  C
  C2       1.0000 0.65730  0.71030  0.90340  Biso   1.000  C
  C3       1.0000 0.13880  0.41880  0.14100  Biso   1.000  C
  C4       1.0000 0.86120  0.58120  0.85900  Biso   1.000  C
  C5       1.0000 0.95550  0.47100  0.05420  Biso   1.000  C
  C6       1.0000 0.04450  0.52900  0.94580  Biso   1.000  C
  C7       1.0000 0.24220  0.31800  0.33210  Biso   1.000  C
  C8       1.0000 0.75780  0.68200  0.66790  Biso   1.000  C
  C9       1.0000 0.92810  0.26080  0.25060  Biso   1.000  C
  C10      1.0000 0.07190  0.73920  0.74940  Biso   1.000  C
  C11      1.0000 0.88350  0.51750  0.30360  Biso   1.000  C
  C12      1.0000 0.11650  0.48250  0.69640  Biso   1.000  C
  O5       1.0000 0.72450  0.91650  0.11500  Biso   1.000  O
  O6       1.0000 0.27550  0.08350  0.88500  Biso   1.000  O
  O7       1.0000 0.80190  0.14530  0.91750  Biso   1.000  O
  O8       1.0000 0.19810  0.85470  0.08250  Biso   1.000  O
  H1       1.0000 0.19200  0.50320  0.15140  Biso   1.000  H
  H2       1.0000 0.80800  0.49680  0.84860  Biso   1.000  H
  H3       1.0000 0.82800  0.55060  0.08300  Biso   1.000  H
  H4       1.0000 0.17200  0.44940  0.91700  Biso   1.000  H
  H5       1.0000 0.90360  0.38750  0.03900  Biso   1.000  H
  H6       1.0000 0.09640  0.61250  0.96100  Biso   1.000  H
  H7       1.0000 0.18730  0.29110  0.40360  Biso   1.000  H
  H8       1.0000 0.81270  0.70890  0.59640  Biso   1.000  H
  H9       1.0000 0.35300  0.22990  0.30230  Biso   1.000  H
  H10      1.0000 0.64700  0.77010  0.69770  Biso   1.000  H
  H11      1.0000 0.31130  0.39550  0.33990  Biso   1.000  H
  H12      1.0000 0.68870  0.60450  0.66010  Biso   1.000  H
  H13      1.0000 0.87550  0.24030  0.32430  Biso   1.000  H
  H14      1.0000 0.12450  0.75970  0.67570  Biso   1.000  H
  H15      1.0000 0.80050  0.29880  0.20270  Biso   1.000  H
  H16      1.0000 0.19950  0.70120  0.79730  Biso   1.000  H
  H17      1.0000 0.03180  0.16870  0.22240  Biso   1.000  H
  H18      1.0000 0.96820  0.83130  0.77760  Biso   1.000  H
  H19      1.0000 0.82610  0.49090  0.37470  Biso   1.000  H
  H20      1.0000 0.17390  0.50910  0.62530  Biso   1.000  H
  H21      1.0000 0.96140  0.58990  0.31300  Biso   1.000  H
  H22      1.0000 0.03860  0.41010  0.68700  Biso   1.000  H
  H23      1.0000 0.75900  0.56140  0.25460  Biso   1.000  H
  H24      1.0000 0.24100  0.43860  0.74540  Biso   1.000  H
  H25      1.0000 0.70220  0.94420  0.18230  Biso   1.000  H
  H26      1.0000 0.29780  0.05580  0.81770  Biso   1.000  H
  H27      1.0000 0.87910  0.89890  0.10290  Biso   1.000  H
  H28      1.0000 0.12090  0.10110  0.89710  Biso   1.000  H
  H29      1.0000 0.72310  0.20750  0.96620  Biso   1.000  H
  H30      1.0000 0.27690  0.79250  0.03380  Biso   1.000  H
  H31      1.0000 0.73520  0.19210  0.84890  Biso   1.000  H
  H32      1.0000 0.26480  0.80790  0.15110  Biso   1.000  H
  Cu1      1.0000 0.50000  0.00000  0.00000  Biso   1.000  Cu
  Cl1      1.0000 0.71000  0.22950  0.60230  Biso   1.000  Cl
  Cl2      1.0000 0.29000  0.77050  0.39770  Biso   1.000  Cl
  O9       1.0000 0.78780  0.07580  0.63500  Biso   1.000  O
  O10      1.0000 0.21220  0.92420  0.36500  Biso   1.000  O
  O11      1.0000 0.66750  0.31060  0.70340  Biso   1.000  O
  O12      1.0000 0.33250  0.68940  0.29660  Biso   1.000  O
  O13      1.0000 0.51460  0.26080  0.54620  Biso   1.000  O
  O14      1.0000 0.48540  0.73920  0.45380  Biso   1.000  O
  O15      1.0000 0.88440  0.26150  0.54240  Biso   1.000  O
  O16      1.0000 0.11560  0.73850  0.45760  Biso   1.000  O
  O17      1.0000 0.68920  0.98910  0.32890  Biso   1.000  O
  O18      1.0000 0.31080  0.01090  0.67110  Biso   1.000  O
  H33      1.0000 0.80080  0.95540  0.38380  Biso   1.000  H
  H34      1.0000 0.19920  0.04460  0.61620  Biso   1.000  H
  H35      1.0000 0.58310  0.95280  0.38820  Biso   1.000  H
  H36      1.0000 0.41690  0.04720  0.61180  Biso   1.000  H
