data_image0
_cell_length_a       9.1101
_cell_length_b       20.0087
_cell_length_c       7.1231
_cell_angle_alpha    90
_cell_angle_beta     110.491
_cell_angle_gamma    90

_symmetry_space_group_name_H-M    "P 1"
_symmetry_int_tables_number       1

loop_
  _symmetry_equiv_pos_as_xyz
  'x, y, z'

loop_
  _atom_site_label
  _atom_site_occupancy
  _atom_site_fract_x
  _atom_site_fract_y
  _atom_site_fract_z
  _atom_site_thermal_displace_type
  _atom_site_B_iso_or_equiv
  _atom_site_type_symbol
  Cu1      1.0000 0.99673  0.95231  0.74601  Biso   1.000  Cu
  Cu2      1.0000 0.99673  0.04769  0.24601  Biso   1.000  Cu
  Cu3      1.0000 0.49673  0.45231  0.74601  Biso   1.000  Cu
  Cu4      1.0000 0.49673  0.54769  0.24601  Biso   1.000  Cu
  Cl1      1.0000 0.12820  0.85482  0.80882  Biso   1.000  Cl
  Cl2      1.0000 0.12820  0.14518  0.30882  Biso   1.000  Cl
  Cl3      1.0000 0.62820  0.35482  0.80882  Biso   1.000  Cl
  Cl4      1.0000 0.62820  0.64518  0.30882  Biso   1.000  Cl
  Cl5      1.0000 0.15771  0.00184  0.04309  Biso   1.000  Cl
  Cl6      1.0000 0.15771  0.99816  0.54309  Biso   1.000  Cl
  Cl7      1.0000 0.65771  0.50184  0.04309  Biso   1.000  Cl
  Cl8      1.0000 0.65771  0.49816  0.54309  Biso   1.000  Cl
  N1       1.0000 0.85650  0.03282  0.66850  Biso   1.000  N
  N2       1.0000 0.85650  0.96718  0.16850  Biso   1.000  N
  N3       1.0000 0.35650  0.53282  0.66850  Biso   1.000  N
  N4       1.0000 0.35650  0.46718  0.16850  Biso   1.000  N
  C1       1.0000 0.90780  0.09620  0.69520  Biso   1.000  C
  C2       1.0000 0.90780  0.90380  0.19520  Biso   1.000  C
  C3       1.0000 0.40780  0.59620  0.69520  Biso   1.000  C
  C4       1.0000 0.40780  0.40380  0.19520  Biso   1.000  C
  H1       1.0000 0.01700  0.10440  0.75670  Biso   1.000  H
  H2       1.0000 0.01700  0.89560  0.25670  Biso   1.000  H
  H3       1.0000 0.51700  0.60440  0.75670  Biso   1.000  H
  H4       1.0000 0.51700  0.39560  0.25670  Biso   1.000  H
  C5       1.0000 0.80730  0.14974  0.63640  Biso   1.000  C
  C6       1.0000 0.80730  0.85026  0.13640  Biso   1.000  C
  C7       1.0000 0.30730  0.64974  0.63640  Biso   1.000  C
  C8       1.0000 0.30730  0.35026  0.13640  Biso   1.000  C
  H5       1.0000 0.84790  0.19400  0.65760  Biso   1.000  H
  H6       1.0000 0.84790  0.80600  0.15760  Biso   1.000  H
  H7       1.0000 0.34790  0.69400  0.65760  Biso   1.000  H
  H8       1.0000 0.34790  0.30600  0.15760  Biso   1.000  H
  C9       1.0000 0.64670  0.13963  0.54600  Biso   1.000  C
  C10      1.0000 0.64670  0.86037  0.04600  Biso   1.000  C
  C11      1.0000 0.14670  0.63963  0.54600  Biso   1.000  C
  C12      1.0000 0.14670  0.36037  0.04600  Biso   1.000  C
  C13      1.0000 0.53570  0.19727  0.48310  Biso   1.000  C
  C14      1.0000 0.53570  0.80273  0.98310  Biso   1.000  C
  C15      1.0000 0.03570  0.69727  0.48310  Biso   1.000  C
  C16      1.0000 0.03570  0.30273  0.98310  Biso   1.000  C
  H9       1.0000 0.42870  0.18170  0.45920  Biso   1.000  H
  H10      1.0000 0.42870  0.81830  0.95920  Biso   1.000  H
  H11      1.0000 0.92870  0.68170  0.45920  Biso   1.000  H
  H12      1.0000 0.92870  0.31830  0.95920  Biso   1.000  H
  H13      1.0000 0.54140  0.21680  0.35970  Biso   1.000  H
  H14      1.0000 0.54140  0.78320  0.85970  Biso   1.000  H
  H15      1.0000 0.04140  0.71680  0.35970  Biso   1.000  H
  H16      1.0000 0.04140  0.28320  0.85970  Biso   1.000  H
  H17      1.0000 0.56420  0.23110  0.58920  Biso   1.000  H
  H18      1.0000 0.56420  0.76890  0.08920  Biso   1.000  H
  H19      1.0000 0.06420  0.73110  0.58920  Biso   1.000  H
  H20      1.0000 0.06420  0.26890  0.08920  Biso   1.000  H
  C17      1.0000 0.59410  0.07339  0.51560  Biso   1.000  C
  C18      1.0000 0.59410  0.92661  0.01560  Biso   1.000  C
  C19      1.0000 0.09410  0.57339  0.51560  Biso   1.000  C
  C20      1.0000 0.09410  0.42661  0.01560  Biso   1.000  C
  H21      1.0000 0.48560  0.06410  0.45300  Biso   1.000  H
  H22      1.0000 0.48560  0.93590  0.95300  Biso   1.000  H
  H23      1.0000 0.98560  0.56410  0.45300  Biso   1.000  H
  H24      1.0000 0.98560  0.43590  0.95300  Biso   1.000  H
  C21      1.0000 0.70090  0.02135  0.57710  Biso   1.000  C
  C22      1.0000 0.70090  0.97865  0.07710  Biso   1.000  C
  C23      1.0000 0.20090  0.52135  0.57710  Biso   1.000  C
  C24      1.0000 0.20090  0.47865  0.07710  Biso   1.000  C
  C25      1.0000 0.65930  0.94980  0.55200  Biso   1.000  C
  C26      1.0000 0.65930  0.05020  0.05200  Biso   1.000  C
  C27      1.0000 0.15930  0.44980  0.55200  Biso   1.000  C
  C28      1.0000 0.15930  0.55020  0.05200  Biso   1.000  C
  C29      1.0000 0.50580  0.92660  0.47400  Biso   1.000  C
  C30      1.0000 0.50580  0.07340  0.97400  Biso   1.000  C
  C31      1.0000 0.00580  0.42660  0.47400  Biso   1.000  C
  C32      1.0000 0.00580  0.57340  0.97400  Biso   1.000  C
  H25      1.0000 0.42080  0.95730  0.43440  Biso   1.000  H
  H26      1.0000 0.42080  0.04270  0.93440  Biso   1.000  H
  H27      1.0000 0.92080  0.45730  0.43440  Biso   1.000  H
  H28      1.0000 0.92080  0.54270  0.93440  Biso   1.000  H
  C33      1.0000 0.47730  0.85789  0.45420  Biso   1.000  C
  C34      1.0000 0.47730  0.14211  0.95420  Biso   1.000  C
  C35      1.0000 0.97730  0.35789  0.45420  Biso   1.000  C
  C36      1.0000 0.97730  0.64211  0.95420  Biso   1.000  C
  C37      1.0000 0.31320  0.83190  0.37480  Biso   1.000  C
  C38      1.0000 0.31320  0.16810  0.87480  Biso   1.000  C
  C39      1.0000 0.81320  0.33190  0.37480  Biso   1.000  C
  C40      1.0000 0.81320  0.66810  0.87480  Biso   1.000  C
  H29      1.0000 0.25820  0.85140  0.24250  Biso   1.000  H
  H30      1.0000 0.25820  0.14860  0.74250  Biso   1.000  H
  H31      1.0000 0.75820  0.35140  0.24250  Biso   1.000  H
  H32      1.0000 0.75820  0.64860  0.74250  Biso   1.000  H
  H33      1.0000 0.25880  0.84410  0.46660  Biso   1.000  H
  H34      1.0000 0.25880  0.15590  0.96660  Biso   1.000  H
  H35      1.0000 0.75880  0.34410  0.46660  Biso   1.000  H
  H36      1.0000 0.75880  0.65590  0.96660  Biso   1.000  H
  H37      1.0000 0.31510  0.78320  0.36300  Biso   1.000  H
  H38      1.0000 0.31510  0.21680  0.86300  Biso   1.000  H
  H39      1.0000 0.81510  0.28320  0.36300  Biso   1.000  H
  H40      1.0000 0.81510  0.71680  0.86300  Biso   1.000  H
  C41      1.0000 0.60640  0.81541  0.51200  Biso   1.000  C
  C42      1.0000 0.60640  0.18459  0.01200  Biso   1.000  C
  C43      1.0000 0.10640  0.31541  0.51200  Biso   1.000  C
  C44      1.0000 0.10640  0.68459  0.01200  Biso   1.000  C
  H41      1.0000 0.59190  0.76840  0.49820  Biso   1.000  H
  H42      1.0000 0.59190  0.23160  0.99820  Biso   1.000  H
  H43      1.0000 0.09190  0.26840  0.49820  Biso   1.000  H
  H44      1.0000 0.09190  0.73160  0.99820  Biso   1.000  H
  C45      1.0000 0.75580  0.84178  0.58960  Biso   1.000  C
  C46      1.0000 0.75580  0.15822  0.08960  Biso   1.000  C
  C47      1.0000 0.25580  0.34178  0.58960  Biso   1.000  C
  C48      1.0000 0.25580  0.65822  0.08960  Biso   1.000  C
  H45      1.0000 0.84250  0.81200  0.62900  Biso   1.000  H
  H46      1.0000 0.84250  0.18800  0.12900  Biso   1.000  H
  H47      1.0000 0.34250  0.31200  0.62900  Biso   1.000  H
  H48      1.0000 0.34250  0.68800  0.12900  Biso   1.000  H
  N5       1.0000 0.78340  0.90766  0.61140  Biso   1.000  N
  N6       1.0000 0.78340  0.09234  0.11140  Biso   1.000  N
  N7       1.0000 0.28340  0.40766  0.61140  Biso   1.000  N
  N8       1.0000 0.28340  0.59234  0.11140  Biso   1.000  N
