data_image0
_cell_length_a       7.8339
_cell_length_b       11.7791
_cell_length_c       25.4043
_cell_angle_alpha    90
_cell_angle_beta     90
_cell_angle_gamma    90

_symmetry_space_group_name_H-M    "P 1"
_symmetry_int_tables_number       1

loop_
  _symmetry_equiv_pos_as_xyz
  'x, y, z'

loop_
  _atom_site_label
  _atom_site_occupancy
  _atom_site_fract_x
  _atom_site_fract_y
  _atom_site_fract_z
  _atom_site_thermal_displace_type
  _atom_site_B_iso_or_equiv
  _atom_site_type_symbol
  Cu1      1.0000 0.50000  0.22078  0.75000  Biso   1.000  Cu
  Cu2      1.0000 0.00000  0.27922  0.25000  Biso   1.000  Cu
  Cu3      1.0000 0.50000  0.77922  0.25000  Biso   1.000  Cu
  Cu4      1.0000 0.00000  0.72078  0.75000  Biso   1.000  Cu
  O1       1.0000 0.33580  0.23060  0.69121  Biso   1.000  O
  O2       1.0000 0.16420  0.26940  0.19121  Biso   1.000  O
  O3       1.0000 0.83580  0.26940  0.30879  Biso   1.000  O
  O4       1.0000 0.66420  0.23060  0.80879  Biso   1.000  O
  O5       1.0000 0.66420  0.76940  0.30879  Biso   1.000  O
  O6       1.0000 0.83580  0.73060  0.80879  Biso   1.000  O
  O7       1.0000 0.16420  0.73060  0.69121  Biso   1.000  O
  O8       1.0000 0.33580  0.76940  0.19121  Biso   1.000  O
  O9       1.0000 0.27860  0.41560  0.70242  Biso   1.000  O
  O10      1.0000 0.22140  0.08440  0.20242  Biso   1.000  O
  O11      1.0000 0.77860  0.08440  0.29758  Biso   1.000  O
  O12      1.0000 0.72140  0.41560  0.79758  Biso   1.000  O
  O13      1.0000 0.72140  0.58440  0.29758  Biso   1.000  O
  O14      1.0000 0.77860  0.91560  0.79758  Biso   1.000  O
  O15      1.0000 0.22140  0.91560  0.70242  Biso   1.000  O
  O16      1.0000 0.27860  0.58440  0.20242  Biso   1.000  O
  O17      1.0000 0.50000  0.02840  0.75000  Biso   1.000  O
  O18      1.0000 0.00000  0.47160  0.25000  Biso   1.000  O
  O19      1.0000 0.50000  0.97160  0.25000  Biso   1.000  O
  O20      1.0000 0.00000  0.52840  0.75000  Biso   1.000  O
  H1       1.0000 0.42150  0.98030  0.74680  Biso   1.000  H
  H2       1.0000 0.07850  0.51970  0.24680  Biso   1.000  H
  H3       1.0000 0.92150  0.51970  0.25320  Biso   1.000  H
  H4       1.0000 0.57850  0.98030  0.75320  Biso   1.000  H
  H5       1.0000 0.57850  0.01970  0.25320  Biso   1.000  H
  H6       1.0000 0.92150  0.48030  0.75320  Biso   1.000  H
  H7       1.0000 0.07850  0.48030  0.74680  Biso   1.000  H
  H8       1.0000 0.42150  0.01970  0.24680  Biso   1.000  H
  N1       1.0000 0.30900  0.22810  0.80337  Biso   1.000  N
  N2       1.0000 0.19100  0.27190  0.30337  Biso   1.000  N
  N3       1.0000 0.80900  0.27190  0.19663  Biso   1.000  N
  N4       1.0000 0.69100  0.22810  0.69663  Biso   1.000  N
  N5       1.0000 0.69100  0.77190  0.19663  Biso   1.000  N
  N6       1.0000 0.80900  0.72810  0.69663  Biso   1.000  N
  N7       1.0000 0.19100  0.72810  0.80337  Biso   1.000  N
  N8       1.0000 0.30900  0.77190  0.30337  Biso   1.000  N
  H9       1.0000 0.20140  0.21140  0.78370  Biso   1.000  H
  H10      1.0000 0.29860  0.28860  0.28370  Biso   1.000  H
  H11      1.0000 0.70140  0.28860  0.21630  Biso   1.000  H
  H12      1.0000 0.79860  0.21140  0.71630  Biso   1.000  H
  H13      1.0000 0.79860  0.78860  0.21630  Biso   1.000  H
  H14      1.0000 0.70140  0.71140  0.71630  Biso   1.000  H
  H15      1.0000 0.29860  0.71140  0.78370  Biso   1.000  H
  H16      1.0000 0.20140  0.78860  0.28370  Biso   1.000  H
  C1       1.0000 0.26850  0.32600  0.67790  Biso   1.000  C
  C2       1.0000 0.23150  0.17400  0.17790  Biso   1.000  C
  C3       1.0000 0.76850  0.17400  0.32210  Biso   1.000  C
  C4       1.0000 0.73150  0.32600  0.82210  Biso   1.000  C
  C5       1.0000 0.73150  0.67400  0.32210  Biso   1.000  C
  C6       1.0000 0.76850  0.82600  0.82210  Biso   1.000  C
  C7       1.0000 0.23150  0.82600  0.67790  Biso   1.000  C
  C8       1.0000 0.26850  0.67400  0.17790  Biso   1.000  C
  C9       1.0000 0.16730  0.32170  0.62740  Biso   1.000  C
  C10      1.0000 0.33270  0.17830  0.12740  Biso   1.000  C
  C11      1.0000 0.66730  0.17830  0.37260  Biso   1.000  C
  C12      1.0000 0.83270  0.32170  0.87260  Biso   1.000  C
  C13      1.0000 0.83270  0.67830  0.37260  Biso   1.000  C
  C14      1.0000 0.66730  0.82170  0.87260  Biso   1.000  C
  C15      1.0000 0.33270  0.82170  0.62740  Biso   1.000  C
  C16      1.0000 0.16730  0.67830  0.12740  Biso   1.000  C
  C17      1.0000 0.09560  0.42090  0.60680  Biso   1.000  C
  C18      1.0000 0.40440  0.07910  0.10680  Biso   1.000  C
  C19      1.0000 0.59560  0.07910  0.39320  Biso   1.000  C
  C20      1.0000 0.90440  0.42090  0.89320  Biso   1.000  C
  C21      1.0000 0.90440  0.57910  0.39320  Biso   1.000  C
  C22      1.0000 0.59560  0.92090  0.89320  Biso   1.000  C
  C23      1.0000 0.40440  0.92090  0.60680  Biso   1.000  C
  C24      1.0000 0.09560  0.57910  0.10680  Biso   1.000  C
  H17      1.0000 0.11190  0.49100  0.62460  Biso   1.000  H
  H18      1.0000 0.38810  0.00900  0.12460  Biso   1.000  H
  H19      1.0000 0.61190  0.00900  0.37540  Biso   1.000  H
  H20      1.0000 0.88810  0.49100  0.87540  Biso   1.000  H
  H21      1.0000 0.88810  0.50900  0.37540  Biso   1.000  H
  H22      1.0000 0.61190  0.99100  0.87540  Biso   1.000  H
  H23      1.0000 0.38810  0.99100  0.62460  Biso   1.000  H
  H24      1.0000 0.11190  0.50900  0.12460  Biso   1.000  H
  C25      1.0000 0.00160  0.41850  0.56100  Biso   1.000  C
  C26      1.0000 0.49840  0.08150  0.06100  Biso   1.000  C
  C27      1.0000 0.50160  0.08150  0.43900  Biso   1.000  C
  C28      1.0000 0.99840  0.41850  0.93900  Biso   1.000  C
  C29      1.0000 0.99840  0.58150  0.43900  Biso   1.000  C
  C30      1.0000 0.50160  0.91850  0.93900  Biso   1.000  C
  C31      1.0000 0.49840  0.91850  0.56100  Biso   1.000  C
  C32      1.0000 0.00160  0.58150  0.06100  Biso   1.000  C
  H25      1.0000 0.95250  0.48640  0.54760  Biso   1.000  H
  H26      1.0000 0.54750  0.01360  0.04760  Biso   1.000  H
  H27      1.0000 0.45250  0.01360  0.45240  Biso   1.000  H
  H28      1.0000 0.04750  0.48640  0.95240  Biso   1.000  H
  H29      1.0000 0.04750  0.51360  0.45240  Biso   1.000  H
  H30      1.0000 0.45250  0.98640  0.95240  Biso   1.000  H
  H31      1.0000 0.54750  0.98640  0.54760  Biso   1.000  H
  H32      1.0000 0.95250  0.51360  0.04760  Biso   1.000  H
  C33      1.0000 0.97890  0.31670  0.53440  Biso   1.000  C
  C34      1.0000 0.52110  0.18330  0.03440  Biso   1.000  C
  C35      1.0000 0.47890  0.18330  0.46560  Biso   1.000  C
  C36      1.0000 0.02110  0.31670  0.96560  Biso   1.000  C
  C37      1.0000 0.02110  0.68330  0.46560  Biso   1.000  C
  C38      1.0000 0.47890  0.81670  0.96560  Biso   1.000  C
  C39      1.0000 0.52110  0.81670  0.53440  Biso   1.000  C
  C40      1.0000 0.97890  0.68330  0.03440  Biso   1.000  C
  H33      1.0000 0.91490  0.31550  0.50260  Biso   1.000  H
  H34      1.0000 0.58510  0.18450  0.00260  Biso   1.000  H
  H35      1.0000 0.41490  0.18450  0.49740  Biso   1.000  H
  H36      1.0000 0.08510  0.31550  0.99740  Biso   1.000  H
  H37      1.0000 0.08510  0.68450  0.49740  Biso   1.000  H
  H38      1.0000 0.41490  0.81550  0.99740  Biso   1.000  H
  H39      1.0000 0.58510  0.81550  0.50260  Biso   1.000  H
  H40      1.0000 0.91490  0.68450  0.00260  Biso   1.000  H
  C41      1.0000 0.04890  0.21570  0.55370  Biso   1.000  C
  C42      1.0000 0.45110  0.28430  0.05370  Biso   1.000  C
  C43      1.0000 0.54890  0.28430  0.44630  Biso   1.000  C
  C44      1.0000 0.95110  0.21570  0.94630  Biso   1.000  C
  C45      1.0000 0.95110  0.78430  0.44630  Biso   1.000  C
  C46      1.0000 0.54890  0.71570  0.94630  Biso   1.000  C
  C47      1.0000 0.45110  0.71570  0.55370  Biso   1.000  C
  C48      1.0000 0.04890  0.78430  0.05370  Biso   1.000  C
  C49      1.0000 0.14360  0.22050  0.60020  Biso   1.000  C
  C50      1.0000 0.35640  0.27950  0.10020  Biso   1.000  C
  C51      1.0000 0.64360  0.27950  0.39980  Biso   1.000  C
  C52      1.0000 0.85640  0.22050  0.89980  Biso   1.000  C
  C53      1.0000 0.85640  0.77950  0.39980  Biso   1.000  C
  C54      1.0000 0.64360  0.72050  0.89980  Biso   1.000  C
  C55      1.0000 0.35640  0.72050  0.60020  Biso   1.000  C
  C56      1.0000 0.14360  0.77950  0.10020  Biso   1.000  C
  H41      1.0000 0.19320  0.15280  0.61360  Biso   1.000  H
  H42      1.0000 0.30680  0.34720  0.11360  Biso   1.000  H
  H43      1.0000 0.69320  0.34720  0.38640  Biso   1.000  H
  H44      1.0000 0.80680  0.15280  0.88640  Biso   1.000  H
  H45      1.0000 0.80680  0.84720  0.38640  Biso   1.000  H
  H46      1.0000 0.69320  0.65280  0.88640  Biso   1.000  H
  H47      1.0000 0.30680  0.65280  0.61360  Biso   1.000  H
  H48      1.0000 0.19320  0.84720  0.11360  Biso   1.000  H
  C57      1.0000 0.02100  0.10510  0.52576  Biso   1.000  C
  C58      1.0000 0.47900  0.39490  0.02576  Biso   1.000  C
  C59      1.0000 0.52100  0.39490  0.47424  Biso   1.000  C
  C60      1.0000 0.97900  0.10510  0.97424  Biso   1.000  C
  C61      1.0000 0.97900  0.89490  0.47424  Biso   1.000  C
  C62      1.0000 0.52100  0.60510  0.97424  Biso   1.000  C
  C63      1.0000 0.47900  0.60510  0.52576  Biso   1.000  C
  C64      1.0000 0.02100  0.89490  0.02576  Biso   1.000  C
  C65      1.0000 0.01080  0.09900  0.47145  Biso   1.000  C
  C66      1.0000 0.48920  0.40100  0.97145  Biso   1.000  C
  C67      1.0000 0.51080  0.40100  0.52855  Biso   1.000  C
  C68      1.0000 0.98920  0.09900  0.02855  Biso   1.000  C
  C69      1.0000 0.98920  0.90100  0.52855  Biso   1.000  C
  C70      1.0000 0.51080  0.59900  0.02855  Biso   1.000  C
  C71      1.0000 0.48920  0.59900  0.47145  Biso   1.000  C
  C72      1.0000 0.01080  0.90100  0.97145  Biso   1.000  C
  H49      1.0000 0.01790  0.16690  0.45140  Biso   1.000  H
  H50      1.0000 0.48210  0.33310  0.95140  Biso   1.000  H
  H51      1.0000 0.51790  0.33310  0.54860  Biso   1.000  H
  H52      1.0000 0.98210  0.16690  0.04860  Biso   1.000  H
  H53      1.0000 0.98210  0.83310  0.54860  Biso   1.000  H
  H54      1.0000 0.51790  0.66690  0.04860  Biso   1.000  H
  H55      1.0000 0.48210  0.66690  0.45140  Biso   1.000  H
  H56      1.0000 0.01790  0.83310  0.95140  Biso   1.000  H
  C73      1.0000 0.00950  0.00430  0.55457  Biso   1.000  C
  C74      1.0000 0.49050  0.49570  0.05457  Biso   1.000  C
  C75      1.0000 0.50950  0.49570  0.44543  Biso   1.000  C
  C76      1.0000 0.99050  0.00430  0.94543  Biso   1.000  C
  C77      1.0000 0.99050  0.99570  0.44543  Biso   1.000  C
  C78      1.0000 0.50950  0.50430  0.94543  Biso   1.000  C
  C79      1.0000 0.49050  0.50430  0.55457  Biso   1.000  C
  C80      1.0000 0.00950  0.99570  0.05457  Biso   1.000  C
  H57      1.0000 0.01550  0.00620  0.59190  Biso   1.000  H
  H58      1.0000 0.48450  0.49380  0.09190  Biso   1.000  H
  H59      1.0000 0.51550  0.49380  0.40810  Biso   1.000  H
  H60      1.0000 0.98450  0.00620  0.90810  Biso   1.000  H
  H61      1.0000 0.98450  0.99380  0.40810  Biso   1.000  H
  H62      1.0000 0.51550  0.50620  0.90810  Biso   1.000  H
  H63      1.0000 0.48450  0.50620  0.59190  Biso   1.000  H
  H64      1.0000 0.01550  0.99380  0.09190  Biso   1.000  H
  C81      1.0000 0.31630  0.14560  0.84720  Biso   1.000  C
  C82      1.0000 0.18370  0.35440  0.34720  Biso   1.000  C
  C83      1.0000 0.81630  0.35440  0.15280  Biso   1.000  C
  C84      1.0000 0.68370  0.14560  0.65280  Biso   1.000  C
  C85      1.0000 0.68370  0.85440  0.15280  Biso   1.000  C
  C86      1.0000 0.81630  0.64560  0.65280  Biso   1.000  C
  C87      1.0000 0.18370  0.64560  0.84720  Biso   1.000  C
  C88      1.0000 0.31630  0.85440  0.34720  Biso   1.000  C
  H65      1.0000 0.21580  0.15510  0.86970  Biso   1.000  H
  H66      1.0000 0.28420  0.34490  0.36970  Biso   1.000  H
  H67      1.0000 0.71580  0.34490  0.13030  Biso   1.000  H
  H68      1.0000 0.78420  0.15510  0.63030  Biso   1.000  H
  H69      1.0000 0.78420  0.84490  0.13030  Biso   1.000  H
  H70      1.0000 0.71580  0.65510  0.63030  Biso   1.000  H
  H71      1.0000 0.28420  0.65510  0.86970  Biso   1.000  H
  H72      1.0000 0.21580  0.84490  0.36970  Biso   1.000  H
  H73      1.0000 0.42000  0.15870  0.86790  Biso   1.000  H
  H74      1.0000 0.08000  0.34130  0.36790  Biso   1.000  H
  H75      1.0000 0.92000  0.34130  0.13210  Biso   1.000  H
  H76      1.0000 0.58000  0.15870  0.63210  Biso   1.000  H
  H77      1.0000 0.58000  0.84130  0.13210  Biso   1.000  H
  H78      1.0000 0.92000  0.65870  0.63210  Biso   1.000  H
  H79      1.0000 0.08000  0.65870  0.86790  Biso   1.000  H
  H80      1.0000 0.42000  0.84130  0.36790  Biso   1.000  H
  H81      1.0000 0.31800  0.06830  0.83290  Biso   1.000  H
  H82      1.0000 0.18200  0.43170  0.33290  Biso   1.000  H
  H83      1.0000 0.81800  0.43170  0.16710  Biso   1.000  H
  H84      1.0000 0.68200  0.06830  0.66710  Biso   1.000  H
  H85      1.0000 0.68200  0.93170  0.16710  Biso   1.000  H
  H86      1.0000 0.81800  0.56830  0.66710  Biso   1.000  H
  H87      1.0000 0.18200  0.56830  0.83290  Biso   1.000  H
  H88      1.0000 0.31800  0.93170  0.33290  Biso   1.000  H
  C89      1.0000 0.28790  0.34110  0.82580  Biso   1.000  C
  C90      1.0000 0.21210  0.15890  0.32580  Biso   1.000  C
  C91      1.0000 0.78790  0.15890  0.17420  Biso   1.000  C
  C92      1.0000 0.71210  0.34110  0.67420  Biso   1.000  C
  C93      1.0000 0.71210  0.65890  0.17420  Biso   1.000  C
  C94      1.0000 0.78790  0.84110  0.67420  Biso   1.000  C
  C95      1.0000 0.21210  0.84110  0.82580  Biso   1.000  C
  C96      1.0000 0.28790  0.65890  0.32580  Biso   1.000  C
  H89      1.0000 0.18820  0.34180  0.84900  Biso   1.000  H
  H90      1.0000 0.31180  0.15820  0.34900  Biso   1.000  H
  H91      1.0000 0.68820  0.15820  0.15100  Biso   1.000  H
  H92      1.0000 0.81180  0.34180  0.65100  Biso   1.000  H
  H93      1.0000 0.81180  0.65820  0.15100  Biso   1.000  H
  H94      1.0000 0.68820  0.84180  0.65100  Biso   1.000  H
  H95      1.0000 0.31180  0.84180  0.84900  Biso   1.000  H
  H96      1.0000 0.18820  0.65820  0.34900  Biso   1.000  H
  H97      1.0000 0.27130  0.39630  0.79730  Biso   1.000  H
  H98      1.0000 0.22870  0.10370  0.29730  Biso   1.000  H
  H99      1.0000 0.77130  0.10370  0.20270  Biso   1.000  H
  H100     1.0000 0.72870  0.39630  0.70270  Biso   1.000  H
  H101     1.0000 0.72870  0.60370  0.20270  Biso   1.000  H
  H102     1.0000 0.77130  0.89630  0.70270  Biso   1.000  H
  H103     1.0000 0.22870  0.89630  0.79730  Biso   1.000  H
  H104     1.0000 0.27130  0.60370  0.29730  Biso   1.000  H
  H105     1.0000 0.39010  0.36130  0.84600  Biso   1.000  H
  H106     1.0000 0.10990  0.13870  0.34600  Biso   1.000  H
  H107     1.0000 0.89010  0.13870  0.15400  Biso   1.000  H
  H108     1.0000 0.60990  0.36130  0.65400  Biso   1.000  H
  H109     1.0000 0.60990  0.63870  0.15400  Biso   1.000  H
  H110     1.0000 0.89010  0.86130  0.65400  Biso   1.000  H
  H111     1.0000 0.10990  0.86130  0.84600  Biso   1.000  H
  H112     1.0000 0.39010  0.63870  0.34600  Biso   1.000  H
  O21      1.0000 0.00000  0.09530  0.75000  Biso   1.000  O
  O22      1.0000 0.50000  0.40470  0.25000  Biso   1.000  O
  O23      1.0000 0.00000  0.90470  0.25000  Biso   1.000  O
  O24      1.0000 0.50000  0.59530  0.75000  Biso   1.000  O
  H113     1.0000 0.93750  0.04500  0.76340  Biso   1.000  H
  H114     1.0000 0.56250  0.45500  0.26340  Biso   1.000  H
  H115     1.0000 0.43750  0.45500  0.23660  Biso   1.000  H
  H116     1.0000 0.06250  0.04500  0.73660  Biso   1.000  H
  H117     1.0000 0.06250  0.95500  0.23660  Biso   1.000  H
  H118     1.0000 0.43750  0.54500  0.73660  Biso   1.000  H
  H119     1.0000 0.56250  0.54500  0.76340  Biso   1.000  H
  H120     1.0000 0.93750  0.95500  0.26340  Biso   1.000  H
