data_image0
_cell_length_a       5.8806
_cell_length_b       7.6408
_cell_length_c       13.9907
_cell_angle_alpha    103.755
_cell_angle_beta     91.352
_cell_angle_gamma    111.227

_symmetry_space_group_name_H-M    "P 1"
_symmetry_int_tables_number       1

loop_
  _symmetry_equiv_pos_as_xyz
  'x, y, z'

loop_
  _atom_site_label
  _atom_site_occupancy
  _atom_site_fract_x
  _atom_site_fract_y
  _atom_site_fract_z
  _atom_site_thermal_displace_type
  _atom_site_B_iso_or_equiv
  _atom_site_type_symbol
  Cu1      1.0000 0.50000  0.50000  0.50000  Biso   1.000  Cu
  O1       1.0000 0.24190  0.28070  0.61780  Biso   1.000  O
  O2       1.0000 0.75810  0.71930  0.38220  Biso   1.000  O
  O3       1.0000 0.63780  0.45890  0.61820  Biso   1.000  O
  O4       1.0000 0.36220  0.54110  0.38180  Biso   1.000  O
  C1       1.0000 0.46080  0.35350  0.65740  Biso   1.000  C
  C2       1.0000 0.53920  0.64650  0.34260  Biso   1.000  C
  C3       1.0000 0.52580  0.31630  0.75170  Biso   1.000  C
  C4       1.0000 0.47420  0.68370  0.24830  Biso   1.000  C
  C5       1.0000 0.77010  0.37850  0.79170  Biso   1.000  C
  C6       1.0000 0.22990  0.62150  0.20830  Biso   1.000  C
  H1       1.0000 0.89910  0.44120  0.75720  Biso   1.000  H
  H2       1.0000 0.10090  0.55880  0.24280  Biso   1.000  H
  C7       1.0000 0.82370  0.34850  0.88160  Biso   1.000  C
  C8       1.0000 0.17630  0.65150  0.11840  Biso   1.000  C
  H3       1.0000 0.99030  0.39160  0.90890  Biso   1.000  H
  H4       1.0000 0.00970  0.60840  0.09110  Biso   1.000  H
  C9       1.0000 0.63860  0.25700  0.93230  Biso   1.000  C
  C10      1.0000 0.36140  0.74300  0.06770  Biso   1.000  C
  H5       1.0000 0.67900  0.23770  0.99410  Biso   1.000  H
  H6       1.0000 0.32100  0.76230  0.00590  Biso   1.000  H
  C11      1.0000 0.39050  0.19180  0.89370  Biso   1.000  C
  C12      1.0000 0.60950  0.80820  0.10630  Biso   1.000  C
  C13      1.0000 0.33870  0.22350  0.80350  Biso   1.000  C
  C14      1.0000 0.66130  0.77650  0.19650  Biso   1.000  C
  H7       1.0000 0.17230  0.18120  0.77620  Biso   1.000  H
  H8       1.0000 0.82770  0.81880  0.22380  Biso   1.000  H
  C15      1.0000 0.19080  0.09200  0.94790  Biso   1.000  C
  C16      1.0000 0.80920  0.90800  0.05210  Biso   1.000  C
  C17      1.0000 0.19910  0.16510  0.05090  Biso   1.000  C
  C18      1.0000 0.80090  0.83490  0.94910  Biso   1.000  C
  H9       1.0000 0.33510  0.27720  0.08630  Biso   1.000  H
  H10      1.0000 0.66490  0.72280  0.91370  Biso   1.000  H
  C19      1.0000 0.99220  0.92690  0.89890  Biso   1.000  C
  C20      1.0000 0.00780  0.07310  0.10110  Biso   1.000  C
  H11      1.0000 0.98570  0.87480  0.82960  Biso   1.000  H
  H12      1.0000 0.01430  0.12520  0.17040  Biso   1.000  H
  N1       1.0000 0.45050  0.73720  0.58290  Biso   1.000  N
  N2       1.0000 0.54950  0.26280  0.41710  Biso   1.000  N
  H13      1.0000 0.35990  0.77880  0.53700  Biso   1.000  H
  H14      1.0000 0.64010  0.22120  0.46300  Biso   1.000  H
  C21      1.0000 0.31200  0.72000  0.66790  Biso   1.000  C
  C22      1.0000 0.68800  0.28000  0.33210  Biso   1.000  C
  H15      1.0000 0.41400  0.71480  0.72280  Biso   1.000  H
  H16      1.0000 0.58600  0.28520  0.27720  Biso   1.000  H
  H17      1.0000 0.16350  0.60060  0.64920  Biso   1.000  H
  H18      1.0000 0.83650  0.39940  0.35080  Biso   1.000  H
  H19      1.0000 0.26510  0.83280  0.68880  Biso   1.000  H
  H20      1.0000 0.73490  0.16720  0.31120  Biso   1.000  H
  C23      1.0000 0.69800  0.89960  0.61560  Biso   1.000  C
  C24      1.0000 0.30200  0.10040  0.38440  Biso   1.000  C
  H21      1.0000 0.67990  0.01050  0.66220  Biso   1.000  H
  H22      1.0000 0.32010  0.98950  0.33780  Biso   1.000  H
  H23      1.0000 0.76810  0.93950  0.55780  Biso   1.000  H
  H24      1.0000 0.23190  0.06050  0.44220  Biso   1.000  H
  H25      1.0000 0.80730  0.85460  0.64820  Biso   1.000  H
  H26      1.0000 0.19270  0.14540  0.35180  Biso   1.000  H
  O5       1.0000 0.78470  0.07630  0.52310  Biso   1.000  O
  O6       1.0000 0.21530  0.92370  0.47690  Biso   1.000  O
  H27      1.0000 0.92740  0.14050  0.55270  Biso   1.000  H
  H28      1.0000 0.07260  0.85950  0.44730  Biso   1.000  H
  H29      1.0000 0.77670  0.97330  0.48240  Biso   1.000  H
  H30      1.0000 0.22330  0.02670  0.51760  Biso   1.000  H
  H31      1.0000 0.54380  0.84740  0.55460  Biso   1.000  H
  H32      1.0000 0.45620  0.15260  0.44540  Biso   1.000  H
  C25      1.0000 0.18200  0.71600  0.57120  Biso   1.000  C
  C26      1.0000 0.81800  0.28400  0.42880  Biso   1.000  C
  H33      1.0000 0.07930  0.60290  0.59290  Biso   1.000  H
  H34      1.0000 0.92070  0.39710  0.40710  Biso   1.000  H
  H35      1.0000 0.12880  0.69860  0.50150  Biso   1.000  H
  H36      1.0000 0.87120  0.30140  0.49850  Biso   1.000  H
  H37      1.0000 0.16570  0.83370  0.61180  Biso   1.000  H
  H38      1.0000 0.83430  0.16630  0.38820  Biso   1.000  H
  C27      1.0000 0.53500  0.80400  0.68800  Biso   1.000  C
  C28      1.0000 0.46500  0.19600  0.31200  Biso   1.000  C
  H39      1.0000 0.52400  0.93050  0.71530  Biso   1.000  H
  H40      1.0000 0.47600  0.06950  0.28470  Biso   1.000  H
  H41      1.0000 0.70550  0.81550  0.69850  Biso   1.000  H
  H42      1.0000 0.29450  0.18450  0.30150  Biso   1.000  H
  H43      1.0000 0.43130  0.70950  0.72140  Biso   1.000  H
  H44      1.0000 0.56870  0.29050  0.27860  Biso   1.000  H
