data_image0
_cell_length_a       11.542
_cell_length_b       18.228
_cell_length_c       12.62
_cell_angle_alpha    90
_cell_angle_beta     111.37
_cell_angle_gamma    90

_symmetry_space_group_name_H-M    "P 1"
_symmetry_int_tables_number       1

loop_
  _symmetry_equiv_pos_as_xyz
  'x, y, z'

loop_
  _atom_site_label
  _atom_site_occupancy
  _atom_site_fract_x
  _atom_site_fract_y
  _atom_site_fract_z
  _atom_site_thermal_displace_type
  _atom_site_B_iso_or_equiv
  _atom_site_type_symbol
  Cu1      1.0000 0.20873  0.02178  0.00311  Biso   1.000  Cu
  Cu2      1.0000 0.29127  0.52178  0.49689  Biso   1.000  Cu
  Cu3      1.0000 0.79127  0.97822  0.99689  Biso   1.000  Cu
  Cu4      1.0000 0.70873  0.47822  0.50311  Biso   1.000  Cu
  O1       1.0000 0.26822  0.94282  0.93289  Biso   1.000  O
  O2       1.0000 0.23178  0.44282  0.56711  Biso   1.000  O
  O3       1.0000 0.73178  0.05718  0.06711  Biso   1.000  O
  O4       1.0000 0.76822  0.55718  0.43289  Biso   1.000  O
  C1       1.0000 0.37167  0.91285  0.96317  Biso   1.000  C
  C2       1.0000 0.12833  0.41285  0.53683  Biso   1.000  C
  C3       1.0000 0.62833  0.08715  0.03683  Biso   1.000  C
  C4       1.0000 0.87167  0.58715  0.46317  Biso   1.000  C
  C5       1.0000 0.47436  0.92512  0.06518  Biso   1.000  C
  C6       1.0000 0.02564  0.42512  0.43482  Biso   1.000  C
  C7       1.0000 0.52564  0.07488  0.93482  Biso   1.000  C
  C8       1.0000 0.97436  0.57488  0.56518  Biso   1.000  C
  C9       1.0000 0.46002  0.97165  0.15135  Biso   1.000  C
  C10      1.0000 0.03998  0.47165  0.34865  Biso   1.000  C
  C11      1.0000 0.53998  0.02835  0.84865  Biso   1.000  C
  C12      1.0000 0.96002  0.52835  0.65135  Biso   1.000  C
  N1       1.0000 0.54286  0.98612  0.25561  Biso   1.000  N
  N2       1.0000 0.95714  0.48612  0.24439  Biso   1.000  N
  N3       1.0000 0.45714  0.01388  0.74439  Biso   1.000  N
  N4       1.0000 0.04286  0.51388  0.75561  Biso   1.000  N
  N5       1.0000 0.49064  0.03496  0.30824  Biso   1.000  N
  N6       1.0000 0.00936  0.53496  0.19176  Biso   1.000  N
  N7       1.0000 0.50936  0.96504  0.69176  Biso   1.000  N
  N8       1.0000 0.99064  0.46504  0.80824  Biso   1.000  N
  N9       1.0000 0.38080  0.04836  0.23774  Biso   1.000  N
  N10      1.0000 0.11920  0.54836  0.26226  Biso   1.000  N
  N11      1.0000 0.61920  0.95164  0.76226  Biso   1.000  N
  N12      1.0000 0.88080  0.45164  0.73774  Biso   1.000  N
  N13      1.0000 0.35624  0.01007  0.13911  Biso   1.000  N
  N14      1.0000 0.14376  0.51007  0.36089  Biso   1.000  N
  N15      1.0000 0.64376  0.98993  0.86089  Biso   1.000  N
  N16      1.0000 0.85624  0.48993  0.63911  Biso   1.000  N
  O5       1.0000 0.12971  0.07959  0.08539  Biso   1.000  O
  O6       1.0000 0.37029  0.57959  0.41461  Biso   1.000  O
  O7       1.0000 0.87029  0.92041  0.91461  Biso   1.000  O
  O8       1.0000 0.62971  0.42041  0.58539  Biso   1.000  O
  C13      1.0000 0.02950  0.11461  0.05175  Biso   1.000  C
  C14      1.0000 0.47050  0.61461  0.44825  Biso   1.000  C
  C15      1.0000 0.97050  0.88539  0.94825  Biso   1.000  C
  C16      1.0000 0.52950  0.38539  0.55175  Biso   1.000  C
  C17      1.0000 0.94165  0.11839  0.93809  Biso   1.000  C
  C18      1.0000 0.55835  0.61839  0.56191  Biso   1.000  C
  C19      1.0000 0.05835  0.88161  0.06191  Biso   1.000  C
  C20      1.0000 0.44165  0.38161  0.43809  Biso   1.000  C
  C21      1.0000 0.96693  0.08104  0.84868  Biso   1.000  C
  C22      1.0000 0.53307  0.58104  0.65132  Biso   1.000  C
  C23      1.0000 0.03307  0.91896  0.15132  Biso   1.000  C
  C24      1.0000 0.46693  0.41896  0.34868  Biso   1.000  C
  N17      1.0000 0.89822  0.08023  0.73614  Biso   1.000  N
  N18      1.0000 0.60178  0.58023  0.76386  Biso   1.000  N
  N19      1.0000 0.10178  0.91977  0.26386  Biso   1.000  N
  N20      1.0000 0.39822  0.41977  0.23614  Biso   1.000  N
  N21      1.0000 0.95652  0.03511  0.68347  Biso   1.000  N
  N22      1.0000 0.54348  0.53511  0.81653  Biso   1.000  N
  N23      1.0000 0.04348  0.96489  0.31653  Biso   1.000  N
  N24      1.0000 0.45652  0.46489  0.18347  Biso   1.000  N
  N25      1.0000 0.05576  0.01137  0.76043  Biso   1.000  N
  N26      1.0000 0.44424  0.51137  0.73957  Biso   1.000  N
  N27      1.0000 0.94424  0.98863  0.23957  Biso   1.000  N
  N28      1.0000 0.55576  0.48863  0.26043  Biso   1.000  N
  N29      1.0000 0.06573  0.03768  0.86461  Biso   1.000  N
  N30      1.0000 0.43427  0.53768  0.63539  Biso   1.000  N
  N31      1.0000 0.93427  0.96232  0.13539  Biso   1.000  N
  N32      1.0000 0.56573  0.46232  0.36461  Biso   1.000  N
  C25      1.0000 0.83535  0.16289  0.91814  Biso   1.000  C
  C26      1.0000 0.66465  0.66289  0.58186  Biso   1.000  C
  C27      1.0000 0.16465  0.83711  0.08186  Biso   1.000  C
  C28      1.0000 0.33535  0.33711  0.41814  Biso   1.000  C
  N33      1.0000 0.74889  0.19816  0.90192  Biso   1.000  N
  N34      1.0000 0.75111  0.69816  0.59808  Biso   1.000  N
  N35      1.0000 0.25111  0.80184  0.09808  Biso   1.000  N
  N36      1.0000 0.24889  0.30184  0.40192  Biso   1.000  N
  C29      1.0000 0.58967  0.89556  0.07322  Biso   1.000  C
  C30      1.0000 0.91033  0.39556  0.42678  Biso   1.000  C
  C31      1.0000 0.41033  0.10444  0.92678  Biso   1.000  C
  C32      1.0000 0.08967  0.60444  0.57322  Biso   1.000  C
  N37      1.0000 0.31588  0.12604  0.92430  Biso   1.000  N
  N38      1.0000 0.18412  0.62604  0.57570  Biso   1.000  N
  N39      1.0000 0.68412  0.87396  0.07570  Biso   1.000  N
  N40      1.0000 0.81588  0.37396  0.42430  Biso   1.000  N
  O9       1.0000 0.39417  0.86337  0.89502  Biso   1.000  O
  O10      1.0000 0.10583  0.36337  0.60498  Biso   1.000  O
  O11      1.0000 0.60583  0.13663  0.10498  Biso   1.000  O
  O12      1.0000 0.89417  0.63663  0.39502  Biso   1.000  O
  C33      1.0000 0.29324  0.84478  0.79268  Biso   1.000  C
  C34      1.0000 0.20676  0.34478  0.70732  Biso   1.000  C
  C35      1.0000 0.70676  0.15522  0.20732  Biso   1.000  C
  C36      1.0000 0.79324  0.65522  0.29268  Biso   1.000  C
  H1       1.0000 0.31992  0.80901  0.75057  Biso   1.000  H
  H2       1.0000 0.18008  0.30901  0.74943  Biso   1.000  H
  H3       1.0000 0.68008  0.19099  0.24943  Biso   1.000  H
  H4       1.0000 0.81992  0.69099  0.25057  Biso   1.000  H
  H5       1.0000 0.26541  0.88811  0.74725  Biso   1.000  H
  H6       1.0000 0.23459  0.38811  0.75275  Biso   1.000  H
  H7       1.0000 0.73459  0.11189  0.25275  Biso   1.000  H
  H8       1.0000 0.76541  0.61189  0.24725  Biso   1.000  H
  H9       1.0000 0.22618  0.82499  0.81165  Biso   1.000  H
  H10      1.0000 0.27382  0.32499  0.68835  Biso   1.000  H
  H11      1.0000 0.77382  0.17501  0.18835  Biso   1.000  H
  H12      1.0000 0.72618  0.67501  0.31165  Biso   1.000  H
  C37      1.0000 0.66681  0.95797  0.31956  Biso   1.000  C
  C38      1.0000 0.83319  0.45797  0.18044  Biso   1.000  C
  C39      1.0000 0.33319  0.04203  0.68044  Biso   1.000  C
  C40      1.0000 0.16681  0.54203  0.81956  Biso   1.000  C
  H13      1.0000 0.70465  0.94503  0.26584  Biso   1.000  H
  H14      1.0000 0.79535  0.44503  0.23416  Biso   1.000  H
  H15      1.0000 0.29535  0.05497  0.73416  Biso   1.000  H
  H16      1.0000 0.20465  0.55497  0.76584  Biso   1.000  H
  H17      1.0000 0.71401  0.99641  0.36826  Biso   1.000  H
  H18      1.0000 0.78599  0.49641  0.13174  Biso   1.000  H
  H19      1.0000 0.28599  0.00359  0.63174  Biso   1.000  H
  H20      1.0000 0.21401  0.50359  0.86826  Biso   1.000  H
  C41      1.0000 0.67139  0.89011  0.39320  Biso   1.000  C
  C42      1.0000 0.82861  0.39011  0.10680  Biso   1.000  C
  C43      1.0000 0.32861  0.10989  0.60680  Biso   1.000  C
  C44      1.0000 0.17139  0.60989  0.89320  Biso   1.000  C
  C45      1.0000 0.58811  0.82980  0.32502  Biso   1.000  C
  C46      1.0000 0.91189  0.32980  0.17498  Biso   1.000  C
  C47      1.0000 0.41189  0.17020  0.67498  Biso   1.000  C
  C48      1.0000 0.08811  0.67020  0.82502  Biso   1.000  C
  H21      1.0000 0.61268  0.81672  0.26256  Biso   1.000  H
  H22      1.0000 0.88732  0.31672  0.23744  Biso   1.000  H
  H23      1.0000 0.38732  0.18328  0.73744  Biso   1.000  H
  H24      1.0000 0.11268  0.68328  0.76256  Biso   1.000  H
  H25      1.0000 0.50345  0.84657  0.29626  Biso   1.000  H
  H26      1.0000 0.99655  0.34657  0.20374  Biso   1.000  H
  H27      1.0000 0.49655  0.15343  0.70374  Biso   1.000  H
  H28      1.0000 0.00345  0.65343  0.79626  Biso   1.000  H
  H29      1.0000 0.59514  0.78771  0.37270  Biso   1.000  H
  H30      1.0000 0.90486  0.28771  0.12730  Biso   1.000  H
  H31      1.0000 0.40486  0.21229  0.62730  Biso   1.000  H
  H32      1.0000 0.09514  0.71229  0.87270  Biso   1.000  H
  C49      1.0000 0.80652  0.86448  0.43941  Biso   1.000  C
  C50      1.0000 0.69348  0.36448  0.06059  Biso   1.000  C
  C51      1.0000 0.19348  0.13552  0.56059  Biso   1.000  C
  C52      1.0000 0.30652  0.63552  0.93941  Biso   1.000  C
  H33      1.0000 0.81483  0.82207  0.48672  Biso   1.000  H
  H34      1.0000 0.68517  0.32207  0.01328  Biso   1.000  H
  H35      1.0000 0.18517  0.17793  0.51328  Biso   1.000  H
  H36      1.0000 0.31483  0.67793  0.98672  Biso   1.000  H
  H37      1.0000 0.85821  0.90325  0.48334  Biso   1.000  H
  H38      1.0000 0.64179  0.40325  0.01666  Biso   1.000  H
  H39      1.0000 0.14179  0.09675  0.51666  Biso   1.000  H
  H40      1.0000 0.35821  0.59675  0.98334  Biso   1.000  H
  H41      1.0000 0.83173  0.85234  0.37697  Biso   1.000  H
  H42      1.0000 0.66827  0.35234  0.12303  Biso   1.000  H
  H43      1.0000 0.16827  0.14766  0.62303  Biso   1.000  H
  H44      1.0000 0.33173  0.64766  0.87697  Biso   1.000  H
  C53      1.0000 0.63238  0.91100  0.49236  Biso   1.000  C
  C54      1.0000 0.86762  0.41100  0.00764  Biso   1.000  C
  C55      1.0000 0.36762  0.08900  0.50764  Biso   1.000  C
  C56      1.0000 0.13238  0.58900  0.99236  Biso   1.000  C
  H45      1.0000 0.68530  0.94940  0.53605  Biso   1.000  H
  H46      1.0000 0.81470  0.44940  0.96395  Biso   1.000  H
  H47      1.0000 0.31470  0.05060  0.46395  Biso   1.000  H
  H48      1.0000 0.18530  0.55060  0.03605  Biso   1.000  H
  H49      1.0000 0.63938  0.86886  0.53992  Biso   1.000  H
  H50      1.0000 0.86062  0.36886  0.96008  Biso   1.000  H
  H51      1.0000 0.36062  0.13114  0.46008  Biso   1.000  H
  H52      1.0000 0.13938  0.63114  0.03992  Biso   1.000  H
  H53      1.0000 0.54769  0.92772  0.46349  Biso   1.000  H
  H54      1.0000 0.95231  0.42772  0.03651  Biso   1.000  H
  H55      1.0000 0.45231  0.07228  0.53651  Biso   1.000  H
  H56      1.0000 0.04769  0.57228  0.96349  Biso   1.000  H
  O13      1.0000 0.99708  0.15294  0.12666  Biso   1.000  O
  O14      1.0000 0.50292  0.65294  0.37334  Biso   1.000  O
  O15      1.0000 0.00292  0.84706  0.87334  Biso   1.000  O
  O16      1.0000 0.49708  0.34706  0.62666  Biso   1.000  O
  C57      1.0000 0.08013  0.15225  0.24378  Biso   1.000  C
  C58      1.0000 0.41987  0.65225  0.25622  Biso   1.000  C
  C59      1.0000 0.91987  0.84775  0.75622  Biso   1.000  C
  C60      1.0000 0.58013  0.34775  0.74378  Biso   1.000  C
  H57      1.0000 0.04633  0.18199  0.28830  Biso   1.000  H
  H58      1.0000 0.45367  0.68199  0.21170  Biso   1.000  H
  H59      1.0000 0.95367  0.81801  0.71170  Biso   1.000  H
  H60      1.0000 0.54633  0.31801  0.78830  Biso   1.000  H
  H61      1.0000 0.15938  0.17158  0.24895  Biso   1.000  H
  H62      1.0000 0.34062  0.67158  0.25105  Biso   1.000  H
  H63      1.0000 0.84062  0.82842  0.75105  Biso   1.000  H
  H64      1.0000 0.65938  0.32842  0.74895  Biso   1.000  H
  H65      1.0000 0.09042  0.10285  0.27211  Biso   1.000  H
  H66      1.0000 0.40958  0.60285  0.22789  Biso   1.000  H
  H67      1.0000 0.90958  0.89715  0.72789  Biso   1.000  H
  H68      1.0000 0.59042  0.39715  0.77211  Biso   1.000  H
  C61      1.0000 0.78406  0.11685  0.66445  Biso   1.000  C
  C62      1.0000 0.71594  0.61685  0.83555  Biso   1.000  C
  C63      1.0000 0.21594  0.88315  0.33555  Biso   1.000  C
  C64      1.0000 0.28406  0.38315  0.16445  Biso   1.000  C
  H69      1.0000 0.73471  0.08235  0.60881  Biso   1.000  H
  H70      1.0000 0.76529  0.58235  0.89119  Biso   1.000  H
  H71      1.0000 0.26529  0.91765  0.39119  Biso   1.000  H
  H72      1.0000 0.23471  0.41765  0.10881  Biso   1.000  H
  H73      1.0000 0.73988  0.13152  0.71236  Biso   1.000  H
  H74      1.0000 0.76012  0.63152  0.78764  Biso   1.000  H
  H75      1.0000 0.26012  0.86848  0.28764  Biso   1.000  H
  H76      1.0000 0.23988  0.36848  0.21236  Biso   1.000  H
  C65      1.0000 0.80328  0.18590  0.60209  Biso   1.000  C
  C66      1.0000 0.69672  0.68590  0.89791  Biso   1.000  C
  C67      1.0000 0.19672  0.81410  0.39791  Biso   1.000  C
  C68      1.0000 0.30328  0.31410  0.10209  Biso   1.000  C
  C69      1.0000 0.88714  0.24070  0.68422  Biso   1.000  C
  C70      1.0000 0.61286  0.74070  0.81578  Biso   1.000  C
  C71      1.0000 0.11286  0.75930  0.31578  Biso   1.000  C
  C72      1.0000 0.38714  0.25930  0.18422  Biso   1.000  C
  H77      1.0000 0.85181  0.25429  0.73950  Biso   1.000  H
  H78      1.0000 0.64819  0.75429  0.76050  Biso   1.000  H
  H79      1.0000 0.14819  0.74571  0.26050  Biso   1.000  H
  H80      1.0000 0.35181  0.24571  0.23950  Biso   1.000  H
  H81      1.0000 0.89566  0.28355  0.64344  Biso   1.000  H
  H82      1.0000 0.60434  0.78355  0.85656  Biso   1.000  H
  H83      1.0000 0.10434  0.71645  0.35656  Biso   1.000  H
  H84      1.0000 0.39566  0.21645  0.14344  Biso   1.000  H
  H85      1.0000 0.96746  0.21899  0.72211  Biso   1.000  H
  H86      1.0000 0.53254  0.71899  0.77789  Biso   1.000  H
  H87      1.0000 0.03254  0.78101  0.27789  Biso   1.000  H
  H88      1.0000 0.46746  0.28101  0.22211  Biso   1.000  H
  C73      1.0000 0.67552  0.21808  0.53976  Biso   1.000  C
  C74      1.0000 0.82448  0.71808  0.96024  Biso   1.000  C
  C75      1.0000 0.32448  0.78192  0.46024  Biso   1.000  C
  C76      1.0000 0.17552  0.28192  0.03976  Biso   1.000  C
  H89      1.0000 0.68214  0.26120  0.49865  Biso   1.000  H
  H90      1.0000 0.81786  0.76120  0.00135  Biso   1.000  H
  H91      1.0000 0.31786  0.73880  0.50135  Biso   1.000  H
  H92      1.0000 0.18214  0.23880  0.99865  Biso   1.000  H
  H93      1.0000 0.63876  0.23079  0.59436  Biso   1.000  H
  H94      1.0000 0.86124  0.73079  0.90564  Biso   1.000  H
  H95      1.0000 0.36124  0.76921  0.40564  Biso   1.000  H
  H96      1.0000 0.13876  0.26921  0.09436  Biso   1.000  H
  H97      1.0000 0.62430  0.18245  0.48754  Biso   1.000  H
  H98      1.0000 0.87570  0.68245  0.01246  Biso   1.000  H
  H99      1.0000 0.37570  0.81755  0.51246  Biso   1.000  H
  H100     1.0000 0.12430  0.31755  0.98754  Biso   1.000  H
  C77      1.0000 0.85998  0.16489  0.51447  Biso   1.000  C
  C78      1.0000 0.64002  0.66489  0.98553  Biso   1.000  C
  C79      1.0000 0.14002  0.83511  0.48553  Biso   1.000  C
  C80      1.0000 0.35998  0.33511  0.01447  Biso   1.000  C
  H101     1.0000 0.94138  0.14465  0.55272  Biso   1.000  H
  H102     1.0000 0.55862  0.64465  0.94728  Biso   1.000  H
  H103     1.0000 0.05862  0.85535  0.44728  Biso   1.000  H
  H104     1.0000 0.44138  0.35535  0.05272  Biso   1.000  H
  H105     1.0000 0.86617  0.20757  0.47227  Biso   1.000  H
  H106     1.0000 0.63383  0.70757  0.02773  Biso   1.000  H
  H107     1.0000 0.13383  0.79243  0.52773  Biso   1.000  H
  H108     1.0000 0.36617  0.29243  0.97227  Biso   1.000  H
  H109     1.0000 0.80804  0.12902  0.46331  Biso   1.000  H
  H110     1.0000 0.69196  0.62902  0.03669  Biso   1.000  H
  H111     1.0000 0.19196  0.87098  0.53669  Biso   1.000  H
  H112     1.0000 0.30804  0.37098  0.96331  Biso   1.000  H
