data_image0
_cell_length_a       17.8277
_cell_length_b       6.4366
_cell_length_c       10.5701
_cell_angle_alpha    90
_cell_angle_beta     111.857
_cell_angle_gamma    90

_symmetry_space_group_name_H-M    "P 1"
_symmetry_int_tables_number       1

loop_
  _symmetry_equiv_pos_as_xyz
  'x, y, z'

loop_
  _atom_site_label
  _atom_site_occupancy
  _atom_site_fract_x
  _atom_site_fract_y
  _atom_site_fract_z
  _atom_site_thermal_displace_type
  _atom_site_B_iso_or_equiv
  _atom_site_type_symbol
  O1       1.0000 0.90937  0.18729  0.97317  Biso   1.000  O
  O2       1.0000 0.59063  0.68729  0.02683  Biso   1.000  O
  O3       1.0000 0.09063  0.81271  0.02683  Biso   1.000  O
  O4       1.0000 0.40937  0.31271  0.97317  Biso   1.000  O
  C1       1.0000 0.90609  0.35106  0.03112  Biso   1.000  C
  C2       1.0000 0.59391  0.85106  0.96888  Biso   1.000  C
  C3       1.0000 0.09391  0.64894  0.96888  Biso   1.000  C
  C4       1.0000 0.40609  0.14894  0.03112  Biso   1.000  C
  C5       1.0000 0.97014  0.45553  0.13218  Biso   1.000  C
  C6       1.0000 0.52986  0.95553  0.86782  Biso   1.000  C
  C7       1.0000 0.02986  0.54447  0.86782  Biso   1.000  C
  C8       1.0000 0.47014  0.04447  0.13218  Biso   1.000  C
  C9       1.0000 0.04928  0.36211  0.18438  Biso   1.000  C
  C10      1.0000 0.45072  0.86211  0.81562  Biso   1.000  C
  C11      1.0000 0.95072  0.63789  0.81562  Biso   1.000  C
  C12      1.0000 0.54928  0.13789  0.18438  Biso   1.000  C
  N1       1.0000 0.11656  0.43257  0.28391  Biso   1.000  N
  N2       1.0000 0.38344  0.93257  0.71609  Biso   1.000  N
  N3       1.0000 0.88344  0.56743  0.71609  Biso   1.000  N
  N4       1.0000 0.61656  0.06743  0.28391  Biso   1.000  N
  N5       1.0000 0.17640  0.29337  0.30386  Biso   1.000  N
  N6       1.0000 0.32360  0.79337  0.69614  Biso   1.000  N
  N7       1.0000 0.82360  0.70663  0.69614  Biso   1.000  N
  N8       1.0000 0.67640  0.20663  0.30386  Biso   1.000  N
  N9       1.0000 0.14811  0.14313  0.22179  Biso   1.000  N
  N10      1.0000 0.35189  0.64313  0.77821  Biso   1.000  N
  N11      1.0000 0.85189  0.85687  0.77821  Biso   1.000  N
  N12      1.0000 0.64811  0.35687  0.22179  Biso   1.000  N
  N13      1.0000 0.06847  0.18052  0.14492  Biso   1.000  N
  N14      1.0000 0.43153  0.68052  0.85508  Biso   1.000  N
  N15      1.0000 0.93153  0.81948  0.85508  Biso   1.000  N
  N16      1.0000 0.56847  0.31948  0.14492  Biso   1.000  N
  C13      1.0000 0.95779  0.65957  0.16756  Biso   1.000  C
  C14      1.0000 0.54221  0.15957  0.83244  Biso   1.000  C
  C15      1.0000 0.04221  0.34043  0.83244  Biso   1.000  C
  C16      1.0000 0.45779  0.84043  0.16756  Biso   1.000  C
  N17      1.0000 0.94851  0.82841  0.19155  Biso   1.000  N
  N18      1.0000 0.55149  0.32841  0.80845  Biso   1.000  N
  N19      1.0000 0.05149  0.17159  0.80845  Biso   1.000  N
  N20      1.0000 0.44851  0.67159  0.19155  Biso   1.000  N
  C17      1.0000 0.13159  0.62024  0.36977  Biso   1.000  C
  C18      1.0000 0.36841  0.12024  0.63023  Biso   1.000  C
  C19      1.0000 0.86841  0.37976  0.63023  Biso   1.000  C
  C20      1.0000 0.63159  0.87976  0.36977  Biso   1.000  C
  H1       1.0000 0.18880  0.64381  0.41045  Biso   1.000  H
  H2       1.0000 0.31120  0.14381  0.58955  Biso   1.000  H
  H3       1.0000 0.81120  0.35619  0.58955  Biso   1.000  H
  H4       1.0000 0.68880  0.85619  0.41045  Biso   1.000  H
  H5       1.0000 0.10612  0.73639  0.31308  Biso   1.000  H
  H6       1.0000 0.39388  0.23639  0.68692  Biso   1.000  H
  H7       1.0000 0.89388  0.26361  0.68692  Biso   1.000  H
  H8       1.0000 0.60612  0.76361  0.31308  Biso   1.000  H
  C21      1.0000 0.09825  0.60195  0.48294  Biso   1.000  C
  C22      1.0000 0.40175  0.10195  0.51706  Biso   1.000  C
  C23      1.0000 0.90175  0.39805  0.51706  Biso   1.000  C
  C24      1.0000 0.59825  0.89805  0.48294  Biso   1.000  C
  H9       1.0000 0.04325  0.55504  0.44374  Biso   1.000  H
  H10      1.0000 0.45675  0.05504  0.55626  Biso   1.000  H
  H11      1.0000 0.95675  0.44496  0.55626  Biso   1.000  H
  H12      1.0000 0.54325  0.94496  0.44374  Biso   1.000  H
  C25      1.0000 0.10233  0.81382  0.54672  Biso   1.000  C
  C26      1.0000 0.39767  0.31382  0.45328  Biso   1.000  C
  C27      1.0000 0.89767  0.18618  0.45328  Biso   1.000  C
  C28      1.0000 0.60233  0.68618  0.54672  Biso   1.000  C
  H13      1.0000 0.08152  0.80414  0.61822  Biso   1.000  H
  H14      1.0000 0.41848  0.30414  0.38178  Biso   1.000  H
  H15      1.0000 0.91848  0.19586  0.38178  Biso   1.000  H
  H16      1.0000 0.58152  0.69586  0.61822  Biso   1.000  H
  H17      1.0000 0.07023  0.91014  0.47878  Biso   1.000  H
  H18      1.0000 0.42977  0.41014  0.52122  Biso   1.000  H
  H19      1.0000 0.92977  0.08986  0.52122  Biso   1.000  H
  H20      1.0000 0.57023  0.58986  0.47878  Biso   1.000  H
  H21      1.0000 0.15729  0.86143  0.58388  Biso   1.000  H
  H22      1.0000 0.34271  0.36143  0.41612  Biso   1.000  H
  H23      1.0000 0.84271  0.13857  0.41612  Biso   1.000  H
  H24      1.0000 0.65729  0.63857  0.58388  Biso   1.000  H
  C29      1.0000 0.14273  0.43928  0.58711  Biso   1.000  C
  C30      1.0000 0.35727  0.93928  0.41289  Biso   1.000  C
  C31      1.0000 0.85727  0.56072  0.41289  Biso   1.000  C
  C32      1.0000 0.64273  0.06072  0.58711  Biso   1.000  C
  H25      1.0000 0.13953  0.30729  0.54311  Biso   1.000  H
  H26      1.0000 0.36047  0.80729  0.45689  Biso   1.000  H
  H27      1.0000 0.86047  0.69271  0.45689  Biso   1.000  H
  H28      1.0000 0.63953  0.19271  0.54311  Biso   1.000  H
  H29      1.0000 0.11811  0.42903  0.65366  Biso   1.000  H
  H30      1.0000 0.38189  0.92903  0.34634  Biso   1.000  H
  H31      1.0000 0.88189  0.57097  0.34634  Biso   1.000  H
  H32      1.0000 0.61811  0.07097  0.65366  Biso   1.000  H
  H33      1.0000 0.19838  0.47862  0.63129  Biso   1.000  H
  H34      1.0000 0.30162  0.97862  0.36871  Biso   1.000  H
  H35      1.0000 0.80162  0.52138  0.36871  Biso   1.000  H
  H36      1.0000 0.69838  0.02138  0.63129  Biso   1.000  H
  O5       1.0000 0.83533  0.45042  0.99698  Biso   1.000  O
  O6       1.0000 0.66467  0.95042  0.00302  Biso   1.000  O
  O7       1.0000 0.16467  0.54958  0.00302  Biso   1.000  O
  O8       1.0000 0.33533  0.04958  0.99698  Biso   1.000  O
  C33      1.0000 0.76398  0.35006  0.89883  Biso   1.000  C
  C34      1.0000 0.73602  0.85006  0.10117  Biso   1.000  C
  C35      1.0000 0.23602  0.64994  0.10117  Biso   1.000  C
  C36      1.0000 0.26398  0.14994  0.89883  Biso   1.000  C
  H37      1.0000 0.71760  0.43671  0.88364  Biso   1.000  H
  H38      1.0000 0.78240  0.93671  0.11636  Biso   1.000  H
  H39      1.0000 0.28240  0.56329  0.11636  Biso   1.000  H
  H40      1.0000 0.21760  0.06329  0.88364  Biso   1.000  H
  H41      1.0000 0.75588  0.21825  0.93430  Biso   1.000  H
  H42      1.0000 0.74412  0.71825  0.06570  Biso   1.000  H
  H43      1.0000 0.24412  0.78175  0.06570  Biso   1.000  H
  H44      1.0000 0.25588  0.28175  0.93430  Biso   1.000  H
  Cu1      1.0000 0.00000  0.00000  0.00000  Biso   1.000  Cu
  Cu2      1.0000 0.50000  0.50000  0.00000  Biso   1.000  Cu
  H45      1.0000 0.77138  0.32932  0.81429  Biso   1.000  H
  H46      1.0000 0.72862  0.82932  0.18571  Biso   1.000  H
  H47      1.0000 0.22862  0.67068  0.18571  Biso   1.000  H
  H48      1.0000 0.27138  0.17068  0.81429  Biso   1.000  H
