data_image0
_cell_length_a       8.3078
_cell_length_b       9.1192
_cell_length_c       9.2316
_cell_angle_alpha    115.164
_cell_angle_beta     94.283
_cell_angle_gamma    103.559

_symmetry_space_group_name_H-M    "P 1"
_symmetry_int_tables_number       1

loop_
  _symmetry_equiv_pos_as_xyz
  'x, y, z'

loop_
  _atom_site_label
  _atom_site_occupancy
  _atom_site_fract_x
  _atom_site_fract_y
  _atom_site_fract_z
  _atom_site_thermal_displace_type
  _atom_site_B_iso_or_equiv
  _atom_site_type_symbol
  Cu1      1.0000 0.78910  0.73364  0.75015  Biso   1.000  Cu
  Cu2      1.0000 0.21090  0.26636  0.24985  Biso   1.000  Cu
  O1       1.0000 0.55650  0.77000  0.80510  Biso   1.000  O
  O2       1.0000 0.44350  0.23000  0.19490  Biso   1.000  O
  O3       1.0000 0.74950  0.07240  0.17293  Biso   1.000  O
  O4       1.0000 0.25050  0.92760  0.82707  Biso   1.000  O
  O5       1.0000 0.88550  0.97900  0.82290  Biso   1.000  O
  O6       1.0000 0.11450  0.02100  0.17710  Biso   1.000  O
  O7       1.0000 0.06450  0.20858  0.03155  Biso   1.000  O
  O8       1.0000 0.93550  0.79142  0.96845  Biso   1.000  O
  N1       1.0000 0.70790  0.49490  0.70250  Biso   1.000  N
  N2       1.0000 0.29210  0.50510  0.29750  Biso   1.000  N
  N3       1.0000 0.78660  0.38430  0.44610  Biso   1.000  N
  N4       1.0000 0.21340  0.61570  0.55390  Biso   1.000  N
  H1       1.0000 0.81290  0.29870  0.37730  Biso   1.000  H
  H2       1.0000 0.18710  0.70130  0.62270  Biso   1.000  H
  N5       1.0000 0.80220  0.67000  0.51690  Biso   1.000  N
  N6       1.0000 0.19780  0.33000  0.48310  Biso   1.000  N
  C1       1.0000 0.52770  0.89730  0.91310  Biso   1.000  C
  C2       1.0000 0.47230  0.10270  0.08690  Biso   1.000  C
  C3       1.0000 0.61390  0.03210  0.07800  Biso   1.000  C
  C4       1.0000 0.38610  0.96790  0.92200  Biso   1.000  C
  C5       1.0000 0.98610  0.05430  0.95840  Biso   1.000  C
  C6       1.0000 0.01390  0.94570  0.04160  Biso   1.000  C
  C7       1.0000 0.64710  0.46590  0.82270  Biso   1.000  C
  C8       1.0000 0.35290  0.53410  0.17730  Biso   1.000  C
  H3       1.0000 0.63030  0.55610  0.91140  Biso   1.000  H
  H4       1.0000 0.36970  0.44390  0.08860  Biso   1.000  H
  C9       1.0000 0.60900  0.31090  0.82070  Biso   1.000  C
  C10      1.0000 0.39100  0.68910  0.17930  Biso   1.000  C
  H5       1.0000 0.56690  0.29590  0.90560  Biso   1.000  H
  H6       1.0000 0.43310  0.70410  0.09440  Biso   1.000  H
  C11      1.0000 0.63480  0.17620  0.68860  Biso   1.000  C
  C12      1.0000 0.36520  0.82380  0.31140  Biso   1.000  C
  H7       1.0000 0.61330  0.07000  0.68520  Biso   1.000  H
  H8       1.0000 0.38670  0.93000  0.31480  Biso   1.000  H
  C13      1.0000 0.69200  0.20140  0.56350  Biso   1.000  C
  C14      1.0000 0.30800  0.79860  0.43650  Biso   1.000  C
  H9       1.0000 0.70710  0.11170  0.47300  Biso   1.000  H
  H10      1.0000 0.29290  0.88830  0.52700  Biso   1.000  H
  C15      1.0000 0.72770  0.36330  0.57260  Biso   1.000  C
  C16      1.0000 0.27230  0.63670  0.42740  Biso   1.000  C
  C17      1.0000 0.81090  0.51820  0.40970  Biso   1.000  C
  C18      1.0000 0.18910  0.48180  0.59030  Biso   1.000  C
  C19      1.0000 0.85010  0.49040  0.25620  Biso   1.000  C
  C20      1.0000 0.14990  0.50960  0.74380  Biso   1.000  C
  H11      1.0000 0.85880  0.38520  0.18430  Biso   1.000  H
  H12      1.0000 0.14120  0.61480  0.81570  Biso   1.000  H
  C21      1.0000 0.87530  0.61900  0.21360  Biso   1.000  C
  C22      1.0000 0.12470  0.38100  0.78640  Biso   1.000  C
  H13      1.0000 0.90400  0.60290  0.11360  Biso   1.000  H
  H14      1.0000 0.09600  0.39710  0.88640  Biso   1.000  H
  C23      1.0000 0.85760  0.77410  0.32100  Biso   1.000  C
  C24      1.0000 0.14240  0.22590  0.67900  Biso   1.000  C
  H15      1.0000 0.86900  0.86180  0.29250  Biso   1.000  H
  H16      1.0000 0.13100  0.13820  0.70750  Biso   1.000  H
  C25      1.0000 0.82310  0.79410  0.46910  Biso   1.000  C
  C26      1.0000 0.17690  0.20590  0.53090  Biso   1.000  C
  H17      1.0000 0.81330  0.89860  0.54170  Biso   1.000  H
  H18      1.0000 0.18670  0.10140  0.45830  Biso   1.000  H
