data_image0
_cell_length_a       16.289
_cell_length_b       7.5231
_cell_length_c       21.034
_cell_angle_alpha    90
_cell_angle_beta     90
_cell_angle_gamma    90

_symmetry_space_group_name_H-M    "P 1"
_symmetry_int_tables_number       1

loop_
  _symmetry_equiv_pos_as_xyz
  'x, y, z'

loop_
  _atom_site_label
  _atom_site_occupancy
  _atom_site_fract_x
  _atom_site_fract_y
  _atom_site_fract_z
  _atom_site_thermal_displace_type
  _atom_site_B_iso_or_equiv
  _atom_site_type_symbol
  C1       1.0000 0.36870  0.32370  0.31020  Biso   1.000  C
  C2       1.0000 0.13130  0.17630  0.81020  Biso   1.000  C
  C3       1.0000 0.63130  0.32370  0.18980  Biso   1.000  C
  C4       1.0000 0.86870  0.17630  0.68980  Biso   1.000  C
  C5       1.0000 0.63130  0.67630  0.68980  Biso   1.000  C
  C6       1.0000 0.86870  0.82370  0.18980  Biso   1.000  C
  C7       1.0000 0.36870  0.67630  0.81020  Biso   1.000  C
  C8       1.0000 0.13130  0.82370  0.31020  Biso   1.000  C
  C9       1.0000 0.29200  0.33870  0.27755  Biso   1.000  C
  C10      1.0000 0.20800  0.16130  0.77755  Biso   1.000  C
  C11      1.0000 0.70800  0.33870  0.22245  Biso   1.000  C
  C12      1.0000 0.79200  0.16130  0.72245  Biso   1.000  C
  C13      1.0000 0.70800  0.66130  0.72245  Biso   1.000  C
  C14      1.0000 0.79200  0.83870  0.22245  Biso   1.000  C
  C15      1.0000 0.29200  0.66130  0.77755  Biso   1.000  C
  C16      1.0000 0.20800  0.83870  0.27755  Biso   1.000  C
  C17      1.0000 0.22140  0.38780  0.31160  Biso   1.000  C
  C18      1.0000 0.27860  0.11220  0.81160  Biso   1.000  C
  C19      1.0000 0.77860  0.38780  0.18840  Biso   1.000  C
  C20      1.0000 0.72140  0.11220  0.68840  Biso   1.000  C
  C21      1.0000 0.77860  0.61220  0.68840  Biso   1.000  C
  C22      1.0000 0.72140  0.88780  0.18840  Biso   1.000  C
  C23      1.0000 0.22140  0.61220  0.81160  Biso   1.000  C
  C24      1.0000 0.27860  0.88780  0.31160  Biso   1.000  C
  H1       1.0000 0.17100  0.39410  0.29110  Biso   1.000  H
  H2       1.0000 0.32900  0.10590  0.79110  Biso   1.000  H
  H3       1.0000 0.82900  0.39410  0.20890  Biso   1.000  H
  H4       1.0000 0.67100  0.10590  0.70890  Biso   1.000  H
  H5       1.0000 0.82900  0.60590  0.70890  Biso   1.000  H
  H6       1.0000 0.67100  0.89410  0.20890  Biso   1.000  H
  H7       1.0000 0.17100  0.60590  0.79110  Biso   1.000  H
  H8       1.0000 0.32900  0.89410  0.29110  Biso   1.000  H
  C25      1.0000 0.22690  0.42600  0.37470  Biso   1.000  C
  C26      1.0000 0.27310  0.07400  0.87470  Biso   1.000  C
  C27      1.0000 0.77310  0.42600  0.12530  Biso   1.000  C
  C28      1.0000 0.72690  0.07400  0.62530  Biso   1.000  C
  C29      1.0000 0.77310  0.57400  0.62530  Biso   1.000  C
  C30      1.0000 0.72690  0.92600  0.12530  Biso   1.000  C
  C31      1.0000 0.22690  0.57400  0.87470  Biso   1.000  C
  C32      1.0000 0.27310  0.92600  0.37470  Biso   1.000  C
  C33      1.0000 0.29820  0.40980  0.40740  Biso   1.000  C
  C34      1.0000 0.20180  0.09020  0.90740  Biso   1.000  C
  C35      1.0000 0.70180  0.40980  0.09260  Biso   1.000  C
  C36      1.0000 0.79820  0.09020  0.59260  Biso   1.000  C
  C37      1.0000 0.70180  0.59020  0.59260  Biso   1.000  C
  C38      1.0000 0.79820  0.90980  0.09260  Biso   1.000  C
  C39      1.0000 0.29820  0.59020  0.90740  Biso   1.000  C
  C40      1.0000 0.20180  0.90980  0.40740  Biso   1.000  C
  H9       1.0000 0.29940  0.43430  0.45070  Biso   1.000  H
  H10      1.0000 0.20060  0.06570  0.95070  Biso   1.000  H
  H11      1.0000 0.70060  0.43430  0.04930  Biso   1.000  H
  H12      1.0000 0.79940  0.06570  0.54930  Biso   1.000  H
  H13      1.0000 0.70060  0.56570  0.54930  Biso   1.000  H
  H14      1.0000 0.79940  0.93430  0.04930  Biso   1.000  H
  H15      1.0000 0.29940  0.56570  0.95070  Biso   1.000  H
  H16      1.0000 0.20060  0.93430  0.45070  Biso   1.000  H
  C41      1.0000 0.37040  0.35620  0.37620  Biso   1.000  C
  C42      1.0000 0.12960  0.14380  0.87620  Biso   1.000  C
  C43      1.0000 0.62960  0.35620  0.12380  Biso   1.000  C
  C44      1.0000 0.87040  0.14380  0.62380  Biso   1.000  C
  C45      1.0000 0.62960  0.64380  0.62380  Biso   1.000  C
  C46      1.0000 0.87040  0.85620  0.12380  Biso   1.000  C
  C47      1.0000 0.37040  0.64380  0.87620  Biso   1.000  C
  C48      1.0000 0.12960  0.85620  0.37620  Biso   1.000  C
  C49      1.0000 0.43970  0.31980  0.41680  Biso   1.000  C
  C50      1.0000 0.06030  0.18020  0.91680  Biso   1.000  C
  C51      1.0000 0.56030  0.31980  0.08320  Biso   1.000  C
  C52      1.0000 0.93970  0.18020  0.58320  Biso   1.000  C
  C53      1.0000 0.56030  0.68020  0.58320  Biso   1.000  C
  C54      1.0000 0.93970  0.81980  0.08320  Biso   1.000  C
  C55      1.0000 0.43970  0.68020  0.91680  Biso   1.000  C
  C56      1.0000 0.06030  0.81980  0.41680  Biso   1.000  C
  H17      1.0000 0.43170  0.33960  0.46000  Biso   1.000  H
  H18      1.0000 0.06830  0.16040  0.96000  Biso   1.000  H
  H19      1.0000 0.56830  0.33960  0.04000  Biso   1.000  H
  H20      1.0000 0.93170  0.16040  0.54000  Biso   1.000  H
  H21      1.0000 0.56830  0.66040  0.54000  Biso   1.000  H
  H22      1.0000 0.93170  0.83960  0.04000  Biso   1.000  H
  H23      1.0000 0.43170  0.66040  0.96000  Biso   1.000  H
  H24      1.0000 0.06830  0.83960  0.46000  Biso   1.000  H
  C57      1.0000 0.28040  0.28960  0.21230  Biso   1.000  C
  C58      1.0000 0.21960  0.21040  0.71230  Biso   1.000  C
  C59      1.0000 0.71960  0.28960  0.28770  Biso   1.000  C
  C60      1.0000 0.78040  0.21040  0.78770  Biso   1.000  C
  C61      1.0000 0.71960  0.71040  0.78770  Biso   1.000  C
  C62      1.0000 0.78040  0.78960  0.28770  Biso   1.000  C
  C63      1.0000 0.28040  0.71040  0.71230  Biso   1.000  C
  C64      1.0000 0.21960  0.78960  0.21230  Biso   1.000  C
  H25      1.0000 0.22630  0.28920  0.19810  Biso   1.000  H
  H26      1.0000 0.27370  0.21080  0.69810  Biso   1.000  H
  H27      1.0000 0.77370  0.28920  0.30190  Biso   1.000  H
  H28      1.0000 0.72630  0.21080  0.80190  Biso   1.000  H
  H29      1.0000 0.77370  0.71080  0.80190  Biso   1.000  H
  H30      1.0000 0.72630  0.78920  0.30190  Biso   1.000  H
  H31      1.0000 0.22630  0.71080  0.69810  Biso   1.000  H
  H32      1.0000 0.27370  0.78920  0.19810  Biso   1.000  H
  C65      1.0000 0.56440  0.20630  0.45380  Biso   1.000  C
  C66      1.0000 0.93560  0.29370  0.95380  Biso   1.000  C
  C67      1.0000 0.43560  0.20630  0.04620  Biso   1.000  C
  C68      1.0000 0.06440  0.29370  0.54620  Biso   1.000  C
  C69      1.0000 0.43560  0.79370  0.54620  Biso   1.000  C
  C70      1.0000 0.06440  0.70630  0.04620  Biso   1.000  C
  C71      1.0000 0.56440  0.79370  0.95380  Biso   1.000  C
  C72      1.0000 0.93560  0.70630  0.45380  Biso   1.000  C
  H33      1.0000 0.56400  0.07750  0.45610  Biso   1.000  H
  H34      1.0000 0.93600  0.42250  0.95610  Biso   1.000  H
  H35      1.0000 0.43600  0.07750  0.04390  Biso   1.000  H
  H36      1.0000 0.06400  0.42250  0.54390  Biso   1.000  H
  H37      1.0000 0.43600  0.92250  0.54390  Biso   1.000  H
  H38      1.0000 0.06400  0.57750  0.04390  Biso   1.000  H
  H39      1.0000 0.56400  0.92250  0.95610  Biso   1.000  H
  H40      1.0000 0.93600  0.57750  0.45610  Biso   1.000  H
  H41      1.0000 0.54250  0.25150  0.49350  Biso   1.000  H
  H42      1.0000 0.95750  0.24850  0.99350  Biso   1.000  H
  H43      1.0000 0.45750  0.25150  0.00650  Biso   1.000  H
  H44      1.0000 0.04250  0.24850  0.50650  Biso   1.000  H
  H45      1.0000 0.45750  0.74850  0.50650  Biso   1.000  H
  H46      1.0000 0.04250  0.75150  0.00650  Biso   1.000  H
  H47      1.0000 0.54250  0.74850  0.99350  Biso   1.000  H
  H48      1.0000 0.95750  0.75150  0.49350  Biso   1.000  H
  C73      1.0000 0.65160  0.26890  0.44650  Biso   1.000  C
  C74      1.0000 0.84840  0.23110  0.94650  Biso   1.000  C
  C75      1.0000 0.34840  0.26890  0.05350  Biso   1.000  C
  C76      1.0000 0.15160  0.23110  0.55350  Biso   1.000  C
  C77      1.0000 0.34840  0.73110  0.55350  Biso   1.000  C
  C78      1.0000 0.15160  0.76890  0.05350  Biso   1.000  C
  C79      1.0000 0.65160  0.73110  0.94650  Biso   1.000  C
  C80      1.0000 0.84840  0.76890  0.44650  Biso   1.000  C
  H49      1.0000 0.68050  0.22690  0.48450  Biso   1.000  H
  H50      1.0000 0.81950  0.27310  0.98450  Biso   1.000  H
  H51      1.0000 0.31950  0.22690  0.01550  Biso   1.000  H
  H52      1.0000 0.18050  0.27310  0.51550  Biso   1.000  H
  H53      1.0000 0.31950  0.77310  0.51550  Biso   1.000  H
  H54      1.0000 0.18050  0.72690  0.01550  Biso   1.000  H
  H55      1.0000 0.68050  0.77310  0.98450  Biso   1.000  H
  H56      1.0000 0.81950  0.72690  0.48450  Biso   1.000  H
  C81      1.0000 0.69620  0.18610  0.39070  Biso   1.000  C
  C82      1.0000 0.80380  0.31390  0.89070  Biso   1.000  C
  C83      1.0000 0.30380  0.18610  0.10930  Biso   1.000  C
  C84      1.0000 0.19620  0.31390  0.60930  Biso   1.000  C
  C85      1.0000 0.30380  0.81390  0.60930  Biso   1.000  C
  C86      1.0000 0.19620  0.68610  0.10930  Biso   1.000  C
  C87      1.0000 0.69620  0.81390  0.89070  Biso   1.000  C
  C88      1.0000 0.80380  0.68610  0.39070  Biso   1.000  C
  H57      1.0000 0.75410  0.21420  0.39400  Biso   1.000  H
  H58      1.0000 0.74590  0.28580  0.89400  Biso   1.000  H
  H59      1.0000 0.24590  0.21420  0.10600  Biso   1.000  H
  H60      1.0000 0.25410  0.28580  0.60600  Biso   1.000  H
  H61      1.0000 0.24590  0.78580  0.60600  Biso   1.000  H
  H62      1.0000 0.25410  0.71420  0.10600  Biso   1.000  H
  H63      1.0000 0.75410  0.78580  0.89400  Biso   1.000  H
  H64      1.0000 0.74590  0.71420  0.39400  Biso   1.000  H
  H65      1.0000 0.69060  0.05790  0.39320  Biso   1.000  H
  H66      1.0000 0.80940  0.44210  0.89320  Biso   1.000  H
  H67      1.0000 0.30940  0.05790  0.10680  Biso   1.000  H
  H68      1.0000 0.19060  0.44210  0.60680  Biso   1.000  H
  H69      1.0000 0.30940  0.94210  0.60680  Biso   1.000  H
  H70      1.0000 0.19060  0.55790  0.10680  Biso   1.000  H
  H71      1.0000 0.69060  0.94210  0.89320  Biso   1.000  H
  H72      1.0000 0.80940  0.55790  0.39320  Biso   1.000  H
  Cl1      1.0000 0.54131  0.75034  0.34668  Biso   1.000  Cl
  Cl2      1.0000 0.95869  0.74966  0.84668  Biso   1.000  Cl
  Cl3      1.0000 0.45869  0.75034  0.15332  Biso   1.000  Cl
  Cl4      1.0000 0.04131  0.74966  0.65332  Biso   1.000  Cl
  Cl5      1.0000 0.45869  0.24966  0.65332  Biso   1.000  Cl
  Cl6      1.0000 0.04131  0.25034  0.15332  Biso   1.000  Cl
  Cl7      1.0000 0.54131  0.24966  0.84668  Biso   1.000  Cl
  Cl8      1.0000 0.95869  0.25034  0.34668  Biso   1.000  Cl
  Cu1      1.0000 0.54761  0.25989  0.31237  Biso   1.000  Cu
  Cu2      1.0000 0.95239  0.24011  0.81237  Biso   1.000  Cu
  Cu3      1.0000 0.45239  0.25989  0.18763  Biso   1.000  Cu
  Cu4      1.0000 0.04761  0.24011  0.68763  Biso   1.000  Cu
  Cu5      1.0000 0.45239  0.74011  0.68763  Biso   1.000  Cu
  Cu6      1.0000 0.04761  0.75989  0.18763  Biso   1.000  Cu
  Cu7      1.0000 0.54761  0.74011  0.81237  Biso   1.000  Cu
  Cu8      1.0000 0.95239  0.75989  0.31237  Biso   1.000  Cu
  F1       1.0000 0.15797  0.47290  0.40752  Biso   1.000  F
  F2       1.0000 0.34203  0.02710  0.90752  Biso   1.000  F
  F3       1.0000 0.84203  0.47290  0.09248  Biso   1.000  F
  F4       1.0000 0.65797  0.02710  0.59248  Biso   1.000  F
  F5       1.0000 0.84203  0.52710  0.59248  Biso   1.000  F
  F6       1.0000 0.65797  0.97290  0.09248  Biso   1.000  F
  F7       1.0000 0.15797  0.52710  0.90752  Biso   1.000  F
  F8       1.0000 0.34203  0.97290  0.40752  Biso   1.000  F
  N1       1.0000 0.51030  0.26400  0.40083  Biso   1.000  N
  N2       1.0000 0.98970  0.23600  0.90083  Biso   1.000  N
  N3       1.0000 0.48970  0.26400  0.09917  Biso   1.000  N
  N4       1.0000 0.01030  0.23600  0.59917  Biso   1.000  N
  N5       1.0000 0.48970  0.73600  0.59917  Biso   1.000  N
  N6       1.0000 0.01030  0.76400  0.09917  Biso   1.000  N
  N7       1.0000 0.51030  0.73600  0.90083  Biso   1.000  N
  N8       1.0000 0.98970  0.76400  0.40083  Biso   1.000  N
  N9       1.0000 0.33430  0.24660  0.17134  Biso   1.000  N
  N10      1.0000 0.16570  0.25340  0.67134  Biso   1.000  N
  N11      1.0000 0.66570  0.24660  0.32866  Biso   1.000  N
  N12      1.0000 0.83430  0.25340  0.82866  Biso   1.000  N
  N13      1.0000 0.66570  0.75340  0.82866  Biso   1.000  N
  N14      1.0000 0.83430  0.74660  0.32866  Biso   1.000  N
  N15      1.0000 0.33430  0.75340  0.67134  Biso   1.000  N
  N16      1.0000 0.16570  0.74660  0.17134  Biso   1.000  N
  O1       1.0000 0.43544  0.27330  0.27950  Biso   1.000  O
  O2       1.0000 0.06456  0.22670  0.77950  Biso   1.000  O
  O3       1.0000 0.56456  0.27330  0.22050  Biso   1.000  O
  O4       1.0000 0.93544  0.22670  0.72050  Biso   1.000  O
  O5       1.0000 0.56456  0.72670  0.72050  Biso   1.000  O
  O6       1.0000 0.93544  0.77330  0.22050  Biso   1.000  O
  O7       1.0000 0.43544  0.72670  0.77950  Biso   1.000  O
  O8       1.0000 0.06456  0.77330  0.27950  Biso   1.000  O
  O9       1.0000 0.65810  0.45130  0.44801  Biso   1.000  O
  O10      1.0000 0.84190  0.04870  0.94801  Biso   1.000  O
  O11      1.0000 0.34190  0.45130  0.05199  Biso   1.000  O
  O12      1.0000 0.15810  0.04870  0.55199  Biso   1.000  O
  O13      1.0000 0.34190  0.54870  0.55199  Biso   1.000  O
  O14      1.0000 0.15810  0.95130  0.05199  Biso   1.000  O
  O15      1.0000 0.65810  0.54870  0.94801  Biso   1.000  O
  O16      1.0000 0.84190  0.95130  0.44801  Biso   1.000  O
  H73      1.0000 0.61230  0.49460  0.45280  Biso   1.000  H
  H74      1.0000 0.88770  0.00540  0.95280  Biso   1.000  H
  H75      1.0000 0.38770  0.49460  0.04720  Biso   1.000  H
  H76      1.0000 0.11230  0.00540  0.54720  Biso   1.000  H
  H77      1.0000 0.38770  0.50540  0.54720  Biso   1.000  H
  H78      1.0000 0.11230  0.99460  0.04720  Biso   1.000  H
  H79      1.0000 0.61230  0.50540  0.95280  Biso   1.000  H
  H80      1.0000 0.88770  0.99460  0.45280  Biso   1.000  H
  O17      1.0000 0.56525  0.90990  0.31558  Biso   1.000  O
  O18      1.0000 0.93475  0.59010  0.81558  Biso   1.000  O
  O19      1.0000 0.43475  0.90990  0.18442  Biso   1.000  O
  O20      1.0000 0.06525  0.59010  0.68442  Biso   1.000  O
  O21      1.0000 0.43475  0.09010  0.68442  Biso   1.000  O
  O22      1.0000 0.06525  0.40990  0.18442  Biso   1.000  O
  O23      1.0000 0.56525  0.09010  0.81558  Biso   1.000  O
  O24      1.0000 0.93475  0.40990  0.31558  Biso   1.000  O
  O25      1.0000 0.58759  0.60620  0.32185  Biso   1.000  O
  O26      1.0000 0.91241  0.89380  0.82185  Biso   1.000  O
  O27      1.0000 0.41241  0.60620  0.17815  Biso   1.000  O
  O28      1.0000 0.08759  0.89380  0.67815  Biso   1.000  O
  O29      1.0000 0.41241  0.39380  0.67815  Biso   1.000  O
  O30      1.0000 0.08759  0.10620  0.17815  Biso   1.000  O
  O31      1.0000 0.58759  0.39380  0.82185  Biso   1.000  O
  O32      1.0000 0.91241  0.10620  0.32185  Biso   1.000  O
  O33      1.0000 0.56230  0.76560  0.41169  Biso   1.000  O
  O34      1.0000 0.93770  0.73440  0.91169  Biso   1.000  O
  O35      1.0000 0.43770  0.76560  0.08831  Biso   1.000  O
  O36      1.0000 0.06230  0.73440  0.58831  Biso   1.000  O
  O37      1.0000 0.43770  0.23440  0.58831  Biso   1.000  O
  O38      1.0000 0.06230  0.26560  0.08831  Biso   1.000  O
  O39      1.0000 0.56230  0.23440  0.91169  Biso   1.000  O
  O40      1.0000 0.93770  0.26560  0.41169  Biso   1.000  O
  O41      1.0000 0.45957  0.71740  0.33960  Biso   1.000  O
  O42      1.0000 0.04043  0.78260  0.83960  Biso   1.000  O
  O43      1.0000 0.54043  0.71740  0.16040  Biso   1.000  O
  O44      1.0000 0.95957  0.78260  0.66040  Biso   1.000  O
  O45      1.0000 0.54043  0.28260  0.66040  Biso   1.000  O
  O46      1.0000 0.95957  0.21740  0.16040  Biso   1.000  O
  O47      1.0000 0.45957  0.28260  0.83960  Biso   1.000  O
  O48      1.0000 0.04043  0.21740  0.33960  Biso   1.000  O
  H81      1.0000 0.68590  0.36780  0.45640  Biso   1.000  H
  H82      1.0000 0.81410  0.13220  0.95640  Biso   1.000  H
  H83      1.0000 0.31410  0.36780  0.04360  Biso   1.000  H
  H84      1.0000 0.18590  0.13220  0.54360  Biso   1.000  H
  H85      1.0000 0.31410  0.63220  0.54360  Biso   1.000  H
  H86      1.0000 0.18590  0.86780  0.04360  Biso   1.000  H
  H87      1.0000 0.68590  0.63220  0.95640  Biso   1.000  H
  H88      1.0000 0.81410  0.86780  0.45640  Biso   1.000  H
  H89      1.0000 0.66970  0.26800  0.52700  Biso   1.000  H
  H90      1.0000 0.83030  0.23200  0.02700  Biso   1.000  H
  H91      1.0000 0.33030  0.26800  0.97300  Biso   1.000  H
  H92      1.0000 0.16970  0.23200  0.47300  Biso   1.000  H
  H93      1.0000 0.33030  0.73200  0.47300  Biso   1.000  H
  H94      1.0000 0.16970  0.76800  0.97300  Biso   1.000  H
  H95      1.0000 0.66970  0.73200  0.02700  Biso   1.000  H
  H96      1.0000 0.83030  0.76800  0.52700  Biso   1.000  H
  O49      1.0000 0.69610  0.29100  0.49480  Biso   1.000  O
  O50      1.0000 0.80390  0.20900  0.99480  Biso   1.000  O
  O51      1.0000 0.30390  0.29100  0.00520  Biso   1.000  O
  O52      1.0000 0.19610  0.20900  0.50520  Biso   1.000  O
  O53      1.0000 0.30390  0.70900  0.50520  Biso   1.000  O
  O54      1.0000 0.19610  0.79100  0.00520  Biso   1.000  O
  O55      1.0000 0.69610  0.70900  0.99480  Biso   1.000  O
  O56      1.0000 0.80390  0.79100  0.49480  Biso   1.000  O
