data_image0
_cell_length_a       16.3067
_cell_length_b       7.4246
_cell_length_c       20.5712
_cell_angle_alpha    90
_cell_angle_beta     90
_cell_angle_gamma    90

_symmetry_space_group_name_H-M    "P 1"
_symmetry_int_tables_number       1

loop_
  _symmetry_equiv_pos_as_xyz
  'x, y, z'

loop_
  _atom_site_label
  _atom_site_occupancy
  _atom_site_fract_x
  _atom_site_fract_y
  _atom_site_fract_z
  _atom_site_thermal_displace_type
  _atom_site_B_iso_or_equiv
  _atom_site_type_symbol
  C1       1.0000 0.37160  0.30890  0.81659  Biso   1.000  C
  C2       1.0000 0.12840  0.19110  0.31659  Biso   1.000  C
  C3       1.0000 0.62840  0.30890  0.68341  Biso   1.000  C
  C4       1.0000 0.87160  0.19110  0.18341  Biso   1.000  C
  C5       1.0000 0.62840  0.69110  0.18341  Biso   1.000  C
  C6       1.0000 0.87160  0.80890  0.68341  Biso   1.000  C
  C7       1.0000 0.37160  0.69110  0.31659  Biso   1.000  C
  C8       1.0000 0.12840  0.80890  0.81659  Biso   1.000  C
  C9       1.0000 0.29300  0.32040  0.78616  Biso   1.000  C
  C10      1.0000 0.20700  0.17960  0.28616  Biso   1.000  C
  C11      1.0000 0.70700  0.32040  0.71384  Biso   1.000  C
  C12      1.0000 0.79300  0.17960  0.21384  Biso   1.000  C
  C13      1.0000 0.70700  0.67960  0.21384  Biso   1.000  C
  C14      1.0000 0.79300  0.82040  0.71384  Biso   1.000  C
  C15      1.0000 0.29300  0.67960  0.28616  Biso   1.000  C
  C16      1.0000 0.20700  0.82040  0.78616  Biso   1.000  C
  C17      1.0000 0.22500  0.37170  0.82236  Biso   1.000  C
  C18      1.0000 0.27500  0.12830  0.32236  Biso   1.000  C
  C19      1.0000 0.77500  0.37170  0.67764  Biso   1.000  C
  C20      1.0000 0.72500  0.12830  0.17764  Biso   1.000  C
  C21      1.0000 0.77500  0.62830  0.17764  Biso   1.000  C
  C22      1.0000 0.72500  0.87170  0.67764  Biso   1.000  C
  C23      1.0000 0.22500  0.62830  0.32236  Biso   1.000  C
  C24      1.0000 0.27500  0.87170  0.82236  Biso   1.000  C
  H1       1.0000 0.17390  0.37930  0.80250  Biso   1.000  H
  H2       1.0000 0.32610  0.12070  0.30250  Biso   1.000  H
  H3       1.0000 0.82610  0.37930  0.69750  Biso   1.000  H
  H4       1.0000 0.67390  0.12070  0.19750  Biso   1.000  H
  H5       1.0000 0.82610  0.62070  0.19750  Biso   1.000  H
  H6       1.0000 0.67390  0.87930  0.69750  Biso   1.000  H
  H7       1.0000 0.17390  0.62070  0.30250  Biso   1.000  H
  H8       1.0000 0.32610  0.87930  0.80250  Biso   1.000  H
  C25      1.0000 0.23270  0.41080  0.88661  Biso   1.000  C
  C26      1.0000 0.26730  0.08920  0.38661  Biso   1.000  C
  C27      1.0000 0.76730  0.41080  0.61339  Biso   1.000  C
  C28      1.0000 0.73270  0.08920  0.11339  Biso   1.000  C
  C29      1.0000 0.76730  0.58920  0.11339  Biso   1.000  C
  C30      1.0000 0.73270  0.91080  0.61339  Biso   1.000  C
  C31      1.0000 0.23270  0.58920  0.38661  Biso   1.000  C
  C32      1.0000 0.26730  0.91080  0.88661  Biso   1.000  C
  C33      1.0000 0.30620  0.39530  0.91800  Biso   1.000  C
  C34      1.0000 0.19380  0.10470  0.41800  Biso   1.000  C
  C35      1.0000 0.69380  0.39530  0.58200  Biso   1.000  C
  C36      1.0000 0.80620  0.10470  0.08200  Biso   1.000  C
  C37      1.0000 0.69380  0.60470  0.08200  Biso   1.000  C
  C38      1.0000 0.80620  0.89530  0.58200  Biso   1.000  C
  C39      1.0000 0.30620  0.60470  0.41800  Biso   1.000  C
  C40      1.0000 0.19380  0.89530  0.91800  Biso   1.000  C
  H9       1.0000 0.30990  0.41950  0.96230  Biso   1.000  H
  H10      1.0000 0.19010  0.08050  0.46230  Biso   1.000  H
  H11      1.0000 0.69010  0.41950  0.53770  Biso   1.000  H
  H12      1.0000 0.80990  0.08050  0.03770  Biso   1.000  H
  H13      1.0000 0.69010  0.58050  0.03770  Biso   1.000  H
  H14      1.0000 0.80990  0.91950  0.53770  Biso   1.000  H
  H15      1.0000 0.30990  0.58050  0.46230  Biso   1.000  H
  H16      1.0000 0.19010  0.91950  0.96230  Biso   1.000  H
  C41      1.0000 0.37590  0.34290  0.88312  Biso   1.000  C
  C42      1.0000 0.12410  0.15710  0.38312  Biso   1.000  C
  C43      1.0000 0.62410  0.34290  0.61688  Biso   1.000  C
  C44      1.0000 0.87590  0.15710  0.11688  Biso   1.000  C
  C45      1.0000 0.62410  0.65710  0.11688  Biso   1.000  C
  C46      1.0000 0.87590  0.84290  0.61688  Biso   1.000  C
  C47      1.0000 0.37590  0.65710  0.38312  Biso   1.000  C
  C48      1.0000 0.12410  0.84290  0.88312  Biso   1.000  C
  C49      1.0000 0.44880  0.30710  0.92235  Biso   1.000  C
  C50      1.0000 0.05120  0.19290  0.42235  Biso   1.000  C
  C51      1.0000 0.55120  0.30710  0.57765  Biso   1.000  C
  C52      1.0000 0.94880  0.19290  0.07765  Biso   1.000  C
  C53      1.0000 0.55120  0.69290  0.07765  Biso   1.000  C
  C54      1.0000 0.94880  0.80710  0.57765  Biso   1.000  C
  C55      1.0000 0.44880  0.69290  0.42235  Biso   1.000  C
  C56      1.0000 0.05120  0.80710  0.92235  Biso   1.000  C
  H17      1.0000 0.44300  0.32530  0.96680  Biso   1.000  H
  H18      1.0000 0.05700  0.17470  0.46680  Biso   1.000  H
  H19      1.0000 0.55700  0.32530  0.53320  Biso   1.000  H
  H20      1.0000 0.94300  0.17470  0.03320  Biso   1.000  H
  H21      1.0000 0.55700  0.67470  0.03320  Biso   1.000  H
  H22      1.0000 0.94300  0.82530  0.53320  Biso   1.000  H
  H23      1.0000 0.44300  0.67470  0.46680  Biso   1.000  H
  H24      1.0000 0.05700  0.82530  0.96680  Biso   1.000  H
  C57      1.0000 0.27720  0.27200  0.71916  Biso   1.000  C
  C58      1.0000 0.22280  0.22800  0.21916  Biso   1.000  C
  C59      1.0000 0.72280  0.27200  0.78084  Biso   1.000  C
  C60      1.0000 0.77720  0.22800  0.28084  Biso   1.000  C
  C61      1.0000 0.72280  0.72800  0.28084  Biso   1.000  C
  C62      1.0000 0.77720  0.77200  0.78084  Biso   1.000  C
  C63      1.0000 0.27720  0.72800  0.21916  Biso   1.000  C
  C64      1.0000 0.22280  0.77200  0.71916  Biso   1.000  C
  H25      1.0000 0.22260  0.27330  0.70600  Biso   1.000  H
  H26      1.0000 0.27740  0.22670  0.20600  Biso   1.000  H
  H27      1.0000 0.77740  0.27330  0.79400  Biso   1.000  H
  H28      1.0000 0.72260  0.22670  0.29400  Biso   1.000  H
  H29      1.0000 0.77740  0.72670  0.29400  Biso   1.000  H
  H30      1.0000 0.72260  0.77330  0.79400  Biso   1.000  H
  H31      1.0000 0.22260  0.72670  0.20600  Biso   1.000  H
  H32      1.0000 0.27740  0.77330  0.70600  Biso   1.000  H
  C65      1.0000 0.29730  0.17510  0.61195  Biso   1.000  C
  C66      1.0000 0.20270  0.32490  0.11195  Biso   1.000  C
  C67      1.0000 0.70270  0.17510  0.88805  Biso   1.000  C
  C68      1.0000 0.79730  0.32490  0.38805  Biso   1.000  C
  C69      1.0000 0.70270  0.82490  0.38805  Biso   1.000  C
  C70      1.0000 0.79730  0.67510  0.88805  Biso   1.000  C
  C71      1.0000 0.29730  0.82490  0.11195  Biso   1.000  C
  C72      1.0000 0.20270  0.67510  0.61195  Biso   1.000  C
  H33      1.0000 0.23860  0.19590  0.61080  Biso   1.000  H
  H34      1.0000 0.26140  0.30410  0.11080  Biso   1.000  H
  H35      1.0000 0.76140  0.19590  0.88920  Biso   1.000  H
  H36      1.0000 0.73860  0.30410  0.38920  Biso   1.000  H
  H37      1.0000 0.76140  0.80410  0.38920  Biso   1.000  H
  H38      1.0000 0.73860  0.69590  0.88920  Biso   1.000  H
  H39      1.0000 0.23860  0.80410  0.11080  Biso   1.000  H
  H40      1.0000 0.26140  0.69590  0.61080  Biso   1.000  H
  H41      1.0000 0.30670  0.04740  0.60540  Biso   1.000  H
  H42      1.0000 0.19330  0.45260  0.10540  Biso   1.000  H
  H43      1.0000 0.69330  0.04740  0.89460  Biso   1.000  H
  H44      1.0000 0.80670  0.45260  0.39460  Biso   1.000  H
  H45      1.0000 0.69330  0.95260  0.39460  Biso   1.000  H
  H46      1.0000 0.80670  0.54740  0.89460  Biso   1.000  H
  H47      1.0000 0.30670  0.95260  0.10540  Biso   1.000  H
  H48      1.0000 0.19330  0.54740  0.60540  Biso   1.000  H
  C73      1.0000 0.33780  0.27970  0.55732  Biso   1.000  C
  C74      1.0000 0.16220  0.22030  0.05732  Biso   1.000  C
  C75      1.0000 0.66220  0.27970  0.94268  Biso   1.000  C
  C76      1.0000 0.83780  0.22030  0.44268  Biso   1.000  C
  C77      1.0000 0.66220  0.72030  0.44268  Biso   1.000  C
  C78      1.0000 0.83780  0.77970  0.94268  Biso   1.000  C
  C79      1.0000 0.33780  0.72030  0.05732  Biso   1.000  C
  C80      1.0000 0.16220  0.77970  0.55732  Biso   1.000  C
  H49      1.0000 0.30450  0.27000  0.51840  Biso   1.000  H
  H50      1.0000 0.19550  0.23000  0.01840  Biso   1.000  H
  H51      1.0000 0.69550  0.27000  0.98160  Biso   1.000  H
  H52      1.0000 0.80450  0.23000  0.48160  Biso   1.000  H
  H53      1.0000 0.69550  0.73000  0.48160  Biso   1.000  H
  H54      1.0000 0.80450  0.77000  0.98160  Biso   1.000  H
  H55      1.0000 0.30450  0.73000  0.01840  Biso   1.000  H
  H56      1.0000 0.19550  0.77000  0.51840  Biso   1.000  H
  H57      1.0000 0.34080  0.40600  0.56920  Biso   1.000  H
  H58      1.0000 0.15920  0.09400  0.06920  Biso   1.000  H
  H59      1.0000 0.65920  0.40600  0.93080  Biso   1.000  H
  H60      1.0000 0.84080  0.09400  0.43080  Biso   1.000  H
  H61      1.0000 0.65920  0.59400  0.43080  Biso   1.000  H
  H62      1.0000 0.84080  0.90600  0.93080  Biso   1.000  H
  H63      1.0000 0.34080  0.59400  0.06920  Biso   1.000  H
  H64      1.0000 0.15920  0.90600  0.56920  Biso   1.000  H
  C81      1.0000 0.42290  0.21040  0.54328  Biso   1.000  C
  C82      1.0000 0.07710  0.28960  0.04328  Biso   1.000  C
  C83      1.0000 0.57710  0.21040  0.95672  Biso   1.000  C
  C84      1.0000 0.92290  0.28960  0.45672  Biso   1.000  C
  C85      1.0000 0.57710  0.78960  0.45672  Biso   1.000  C
  C86      1.0000 0.92290  0.71040  0.95672  Biso   1.000  C
  C87      1.0000 0.42290  0.78960  0.04328  Biso   1.000  C
  C88      1.0000 0.07710  0.71040  0.54328  Biso   1.000  C
  H65      1.0000 0.42080  0.08060  0.53800  Biso   1.000  H
  H66      1.0000 0.07920  0.41940  0.03800  Biso   1.000  H
  H67      1.0000 0.57920  0.08060  0.96200  Biso   1.000  H
  H68      1.0000 0.92080  0.41940  0.46200  Biso   1.000  H
  H69      1.0000 0.57920  0.91940  0.46200  Biso   1.000  H
  H70      1.0000 0.92080  0.58060  0.96200  Biso   1.000  H
  H71      1.0000 0.42080  0.91940  0.03800  Biso   1.000  H
  H72      1.0000 0.07920  0.58060  0.53800  Biso   1.000  H
  H73      1.0000 0.44210  0.26190  0.50270  Biso   1.000  H
  H74      1.0000 0.05790  0.23810  0.00270  Biso   1.000  H
  H75      1.0000 0.55790  0.26190  0.99730  Biso   1.000  H
  H76      1.0000 0.94210  0.23810  0.49730  Biso   1.000  H
  H77      1.0000 0.55790  0.73810  0.49730  Biso   1.000  H
  H78      1.0000 0.94210  0.76190  0.99730  Biso   1.000  H
  H79      1.0000 0.44210  0.73810  0.00270  Biso   1.000  H
  H80      1.0000 0.05790  0.76190  0.50270  Biso   1.000  H
  Cl1      1.0000 0.45367  0.73399  0.64910  Biso   1.000  Cl
  Cl2      1.0000 0.04633  0.76601  0.14910  Biso   1.000  Cl
  Cl3      1.0000 0.54633  0.73399  0.85090  Biso   1.000  Cl
  Cl4      1.0000 0.95367  0.76601  0.35090  Biso   1.000  Cl
  Cl5      1.0000 0.54633  0.26601  0.35090  Biso   1.000  Cl
  Cl6      1.0000 0.95367  0.23399  0.85090  Biso   1.000  Cl
  Cl7      1.0000 0.45367  0.26601  0.14910  Biso   1.000  Cl
  Cl8      1.0000 0.04633  0.23399  0.64910  Biso   1.000  Cl
  Cu1      1.0000 0.44877  0.24769  0.68760  Biso   1.000  Cu
  Cu2      1.0000 0.05123  0.25231  0.18760  Biso   1.000  Cu
  Cu3      1.0000 0.55123  0.24769  0.81240  Biso   1.000  Cu
  Cu4      1.0000 0.94877  0.25231  0.31240  Biso   1.000  Cu
  Cu5      1.0000 0.55123  0.75231  0.31240  Biso   1.000  Cu
  Cu6      1.0000 0.94877  0.74769  0.81240  Biso   1.000  Cu
  Cu7      1.0000 0.44877  0.75231  0.18760  Biso   1.000  Cu
  Cu8      1.0000 0.05123  0.74769  0.68760  Biso   1.000  Cu
  F1       1.0000 0.16624  0.46140  0.92242  Biso   1.000  F
  F2       1.0000 0.33376  0.03860  0.42242  Biso   1.000  F
  F3       1.0000 0.83376  0.46140  0.57758  Biso   1.000  F
  F4       1.0000 0.66624  0.03860  0.07758  Biso   1.000  F
  F5       1.0000 0.83376  0.53860  0.07758  Biso   1.000  F
  F6       1.0000 0.66624  0.96140  0.57758  Biso   1.000  F
  F7       1.0000 0.16624  0.53860  0.42242  Biso   1.000  F
  F8       1.0000 0.33376  0.96140  0.92242  Biso   1.000  F
  N1       1.0000 0.32950  0.22810  0.67643  Biso   1.000  N
  N2       1.0000 0.17050  0.27190  0.17643  Biso   1.000  N
  N3       1.0000 0.67050  0.22810  0.82357  Biso   1.000  N
  N4       1.0000 0.82950  0.27190  0.32357  Biso   1.000  N
  N5       1.0000 0.67050  0.77190  0.32357  Biso   1.000  N
  N6       1.0000 0.82950  0.72810  0.82357  Biso   1.000  N
  N7       1.0000 0.32950  0.77190  0.17643  Biso   1.000  N
  N8       1.0000 0.17050  0.72810  0.67643  Biso   1.000  N
  N9       1.0000 0.51800  0.25540  0.90406  Biso   1.000  N
  N10      1.0000 0.98200  0.24460  0.40406  Biso   1.000  N
  N11      1.0000 0.48200  0.25540  0.59594  Biso   1.000  N
  N12      1.0000 0.01800  0.24460  0.09594  Biso   1.000  N
  N13      1.0000 0.48200  0.74460  0.09594  Biso   1.000  N
  N14      1.0000 0.01800  0.75540  0.59594  Biso   1.000  N
  N15      1.0000 0.51800  0.74460  0.40406  Biso   1.000  N
  N16      1.0000 0.98200  0.75540  0.90406  Biso   1.000  N
  O1       1.0000 0.43695  0.25900  0.78176  Biso   1.000  O
  O2       1.0000 0.06305  0.24100  0.28176  Biso   1.000  O
  O3       1.0000 0.56305  0.25900  0.71824  Biso   1.000  O
  O4       1.0000 0.93695  0.24100  0.21824  Biso   1.000  O
  O5       1.0000 0.56305  0.74100  0.21824  Biso   1.000  O
  O6       1.0000 0.93695  0.75900  0.71824  Biso   1.000  O
  O7       1.0000 0.43695  0.74100  0.28176  Biso   1.000  O
  O8       1.0000 0.06305  0.75900  0.78176  Biso   1.000  O
  O9       1.0000 0.41825  0.58780  0.68457  Biso   1.000  O
  O10      1.0000 0.08175  0.91220  0.18457  Biso   1.000  O
  O11      1.0000 0.58175  0.58780  0.81543  Biso   1.000  O
  O12      1.0000 0.91825  0.91220  0.31543  Biso   1.000  O
  O13      1.0000 0.58175  0.41220  0.31543  Biso   1.000  O
  O14      1.0000 0.91825  0.08780  0.81543  Biso   1.000  O
  O15      1.0000 0.41825  0.41220  0.18457  Biso   1.000  O
  O16      1.0000 0.08175  0.08780  0.68457  Biso   1.000  O
  O17      1.0000 0.43248  0.89600  0.68184  Biso   1.000  O
  O18      1.0000 0.06752  0.60400  0.18184  Biso   1.000  O
  O19      1.0000 0.56752  0.89600  0.81816  Biso   1.000  O
  O20      1.0000 0.93248  0.60400  0.31816  Biso   1.000  O
  O21      1.0000 0.56752  0.10400  0.31816  Biso   1.000  O
  O22      1.0000 0.93248  0.39600  0.81816  Biso   1.000  O
  O23      1.0000 0.43248  0.10400  0.18184  Biso   1.000  O
  O24      1.0000 0.06752  0.39600  0.68184  Biso   1.000  O
  O25      1.0000 0.53782  0.71590  0.64375  Biso   1.000  O
  O26      1.0000 0.96218  0.78410  0.14375  Biso   1.000  O
  O27      1.0000 0.46218  0.71590  0.85625  Biso   1.000  O
  O28      1.0000 0.03782  0.78410  0.35625  Biso   1.000  O
  O29      1.0000 0.46218  0.28410  0.35625  Biso   1.000  O
  O30      1.0000 0.03782  0.21590  0.85625  Biso   1.000  O
  O31      1.0000 0.53782  0.28410  0.14375  Biso   1.000  O
  O32      1.0000 0.96218  0.21590  0.64375  Biso   1.000  O
  O33      1.0000 0.41652  0.73720  0.58613  Biso   1.000  O
  O34      1.0000 0.08348  0.76280  0.08613  Biso   1.000  O
  O35      1.0000 0.58348  0.73720  0.91387  Biso   1.000  O
  O36      1.0000 0.91652  0.76280  0.41387  Biso   1.000  O
  O37      1.0000 0.58348  0.26280  0.41387  Biso   1.000  O
  O38      1.0000 0.91652  0.23720  0.91387  Biso   1.000  O
  O39      1.0000 0.41652  0.26280  0.08613  Biso   1.000  O
  O40      1.0000 0.08348  0.23720  0.58613  Biso   1.000  O
