data_image0
_cell_length_a       9.26
_cell_length_b       12.833
_cell_length_c       15.274
_cell_angle_alpha    76.18
_cell_angle_beta     82.75
_cell_angle_gamma    82.31

_symmetry_space_group_name_H-M    "P 1"
_symmetry_int_tables_number       1

loop_
  _symmetry_equiv_pos_as_xyz
  'x, y, z'

loop_
  _atom_site_label
  _atom_site_occupancy
  _atom_site_fract_x
  _atom_site_fract_y
  _atom_site_fract_z
  _atom_site_thermal_displace_type
  _atom_site_B_iso_or_equiv
  _atom_site_type_symbol
  Mn1      1.0000 0.13602  0.20724  0.79929  Biso   1.000  Mn
  Mn2      1.0000 0.86398  0.79276  0.20071  Biso   1.000  Mn
  Cu1      1.0000 0.03509  0.62307  0.83524  Biso   1.000  Cu
  Cu2      1.0000 0.96491  0.37693  0.16476  Biso   1.000  Cu
  Cu3      1.0000 0.66978  0.96306  0.82154  Biso   1.000  Cu
  Cu4      1.0000 0.33022  0.03694  0.17846  Biso   1.000  Cu
  O1       1.0000 0.87870  0.73220  0.81100  Biso   1.000  O
  O2       1.0000 0.12130  0.26780  0.18900  Biso   1.000  O
  O3       1.0000 0.71320  0.83910  0.73210  Biso   1.000  O
  O4       1.0000 0.28680  0.16090  0.26790  Biso   1.000  O
  O5       1.0000 0.04480  0.36610  0.72830  Biso   1.000  O
  O6       1.0000 0.95520  0.63390  0.27170  Biso   1.000  O
  O7       1.0000 0.20190  0.31750  0.87320  Biso   1.000  O
  O8       1.0000 0.79810  0.68250  0.12680  Biso   1.000  O
  O9       1.0000 0.86170  0.01300  0.79150  Biso   1.000  O
  O10      1.0000 0.13830  0.98700  0.20850  Biso   1.000  O
  O11      1.0000 0.03030  0.12220  0.72770  Biso   1.000  O
  O12      1.0000 0.96970  0.87780  0.27230  Biso   1.000  O
  O13      1.0000 0.35290  0.18890  0.72220  Biso   1.000  O
  O14      1.0000 0.64710  0.81110  0.27780  Biso   1.000  O
  O15      1.0000 0.25320  0.06710  0.88410  Biso   1.000  O
  O16      1.0000 0.74680  0.93290  0.11590  Biso   1.000  O
  O17      1.0000 0.21490  0.73520  0.74260  Biso   1.000  O
  O18      1.0000 0.78510  0.26480  0.25740  Biso   1.000  O
  O19      1.0000 0.68830  0.32630  0.85170  Biso   1.000  O
  O20      1.0000 0.31170  0.67370  0.14830  Biso   1.000  O
  O21      1.0000 0.94190  0.18950  0.89940  Biso   1.000  O
  O22      1.0000 0.05810  0.81050  0.10060  Biso   1.000  O
  H1       1.0000 0.86000  0.22380  0.88510  Biso   1.000  H
  H2       1.0000 0.14000  0.77620  0.11490  Biso   1.000  H
  H3       1.0000 0.96760  0.15010  0.94930  Biso   1.000  H
  H4       1.0000 0.03240  0.84990  0.05070  Biso   1.000  H
  O23      1.0000 0.93810  0.08940  0.08120  Biso   1.000  O
  O24      1.0000 0.06190  0.91060  0.91880  Biso   1.000  O
  H5       1.0000 0.01680  0.06790  0.10650  Biso   1.000  H
  H6       1.0000 0.98320  0.93210  0.89350  Biso   1.000  H
  H7       1.0000 0.86640  0.05360  0.08310  Biso   1.000  H
  H8       1.0000 0.13360  0.94640  0.91690  Biso   1.000  H
  N1       1.0000 0.98440  0.54010  0.75190  Biso   1.000  N
  N2       1.0000 0.01560  0.45990  0.24810  Biso   1.000  N
  N3       1.0000 0.15520  0.49350  0.88310  Biso   1.000  N
  N4       1.0000 0.84480  0.50650  0.11690  Biso   1.000  N
  N5       1.0000 0.09810  0.67270  0.94000  Biso   1.000  N
  N6       1.0000 0.90190  0.32730  0.06000  Biso   1.000  N
  H9       1.0000 0.10760  0.74380  0.92420  Biso   1.000  H
  H10      1.0000 0.89240  0.25620  0.07580  Biso   1.000  H
  H11      1.0000 0.03130  0.66020  0.98850  Biso   1.000  H
  H12      1.0000 0.96870  0.33980  0.01150  Biso   1.000  H
  N7       1.0000 0.58090  0.08810  0.73560  Biso   1.000  N
  N8       1.0000 0.41910  0.91190  0.26440  Biso   1.000  N
  N9       1.0000 0.47000  0.95510  0.87710  Biso   1.000  N
  N10      1.0000 0.53000  0.04490  0.12290  Biso   1.000  N
  N11      1.0000 0.71270  0.85120  0.93620  Biso   1.000  N
  N12      1.0000 0.28730  0.14880  0.06380  Biso   1.000  N
  H13      1.0000 0.78920  0.80360  0.92460  Biso   1.000  H
  H14      1.0000 0.21080  0.19640  0.07540  Biso   1.000  H
  H15      1.0000 0.73460  0.88320  0.97850  Biso   1.000  H
  H16      1.0000 0.26540  0.11680  0.02150  Biso   1.000  H
  N13      1.0000 0.25800  0.89230  0.64610  Biso   1.000  N
  N14      1.0000 0.74200  0.10770  0.35390  Biso   1.000  N
  N15      1.0000 0.54990  0.44740  0.75640  Biso   1.000  N
  N16      1.0000 0.45010  0.55260  0.24360  Biso   1.000  N
  C1       1.0000 0.82820  0.69390  0.66920  Biso   1.000  C
  C2       1.0000 0.17180  0.30610  0.33080  Biso   1.000  C
  C3       1.0000 0.90020  0.58750  0.67810  Biso   1.000  C
  C4       1.0000 0.09980  0.41250  0.32190  Biso   1.000  C
  C5       1.0000 0.89160  0.53400  0.60870  Biso   1.000  C
  C6       1.0000 0.10840  0.46600  0.39130  Biso   1.000  C
  H17      1.0000 0.93530  0.46350  0.61430  Biso   1.000  H
  H18      1.0000 0.06470  0.53650  0.38570  Biso   1.000  H
  C7       1.0000 0.82090  0.58230  0.53300  Biso   1.000  C
  C8       1.0000 0.17910  0.41770  0.46700  Biso   1.000  C
  H19      1.0000 0.81370  0.54320  0.49000  Biso   1.000  H
  H20      1.0000 0.18630  0.45680  0.51000  Biso   1.000  H
  C9       1.0000 0.76030  0.68870  0.52040  Biso   1.000  C
  C10      1.0000 0.23970  0.31130  0.47960  Biso   1.000  C
  H21      1.0000 0.72000  0.72430  0.46710  Biso   1.000  H
  H22      1.0000 0.28000  0.27570  0.53290  Biso   1.000  H
  C11      1.0000 0.76180  0.74000  0.58990  Biso   1.000  C
  C12      1.0000 0.23820  0.26000  0.41010  Biso   1.000  C
  H23      1.0000 0.71560  0.81000  0.58340  Biso   1.000  H
  H24      1.0000 0.28440  0.19000  0.41660  Biso   1.000  H
  C13      1.0000 0.80650  0.75970  0.74180  Biso   1.000  C
  C14      1.0000 0.19350  0.24030  0.25820  Biso   1.000  C
  C15      1.0000 0.05110  0.43990  0.76840  Biso   1.000  C
  C16      1.0000 0.94890  0.56010  0.23160  Biso   1.000  C
  C17      1.0000 0.14380  0.41180  0.84840  Biso   1.000  C
  C18      1.0000 0.85620  0.58820  0.15160  Biso   1.000  C
  C19      1.0000 0.23400  0.49240  0.95940  Biso   1.000  C
  C20      1.0000 0.76600  0.50760  0.04060  Biso   1.000  C
  H25      1.0000 0.33200  0.45590  0.95230  Biso   1.000  H
  H26      1.0000 0.66800  0.54410  0.04770  Biso   1.000  H
  H27      1.0000 0.18350  0.45510  0.01530  Biso   1.000  H
  H28      1.0000 0.81650  0.54490  0.98470  Biso   1.000  H
  C21      1.0000 0.24050  0.60990  0.96130  Biso   1.000  C
  C22      1.0000 0.75950  0.39010  0.03870  Biso   1.000  C
  H29      1.0000 0.26180  0.61440  0.02080  Biso   1.000  H
  H30      1.0000 0.73820  0.38560  0.97920  Biso   1.000  H
  H31      1.0000 0.31790  0.63950  0.91720  Biso   1.000  H
  H32      1.0000 0.68210  0.36050  0.08280  Biso   1.000  H
  C23      1.0000 0.81110  0.15230  0.65780  Biso   1.000  C
  C24      1.0000 0.18890  0.84770  0.34220  Biso   1.000  C
  C25      1.0000 0.66080  0.14800  0.65800  Biso   1.000  C
  C26      1.0000 0.33920  0.85200  0.34200  Biso   1.000  C
  C27      1.0000 0.59180  0.20160  0.58220  Biso   1.000  C
  C28      1.0000 0.40820  0.79840  0.41780  Biso   1.000  C
  H33      1.0000 0.49350  0.19440  0.58090  Biso   1.000  H
  H34      1.0000 0.50650  0.80560  0.41910  Biso   1.000  H
  C29      1.0000 0.66420  0.26600  0.50770  Biso   1.000  C
  C30      1.0000 0.33580  0.73400  0.49230  Biso   1.000  C
  H35      1.0000 0.61500  0.30200  0.45770  Biso   1.000  H
  H36      1.0000 0.38500  0.69800  0.54230  Biso   1.000  H
  C31      1.0000 0.81030  0.27520  0.50930  Biso   1.000  C
  C32      1.0000 0.18970  0.72480  0.49070  Biso   1.000  C
  H37      1.0000 0.86060  0.31910  0.46090  Biso   1.000  H
  H38      1.0000 0.13940  0.68090  0.53910  Biso   1.000  H
  C33      1.0000 0.88090  0.21930  0.58270  Biso   1.000  C
  C34      1.0000 0.11910  0.78070  0.41730  Biso   1.000  C
  H39      1.0000 0.97970  0.22610  0.58280  Biso   1.000  H
  H40      1.0000 0.02030  0.77390  0.41720  Biso   1.000  H
  C35      1.0000 0.90620  0.09290  0.73120  Biso   1.000  C
  C36      1.0000 0.09380  0.90710  0.26880  Biso   1.000  C
  C37      1.0000 0.44080  0.11330  0.76000  Biso   1.000  C
  C38      1.0000 0.55920  0.88670  0.24000  Biso   1.000  C
  C39      1.0000 0.38110  0.04000  0.84770  Biso   1.000  C
  C40      1.0000 0.61890  0.96000  0.15230  Biso   1.000  C
  C41      1.0000 0.44550  0.87590  0.96270  Biso   1.000  C
  C42      1.0000 0.55450  0.12410  0.03730  Biso   1.000  C
  H41      1.0000 0.35890  0.84070  0.96320  Biso   1.000  H
  H42      1.0000 0.64110  0.15930  0.03680  Biso   1.000  H
  H43      1.0000 0.43260  0.91070  0.01340  Biso   1.000  H
  H44      1.0000 0.56740  0.08930  0.98660  Biso   1.000  H
  C43      1.0000 0.57950  0.79550  0.96850  Biso   1.000  C
  C44      1.0000 0.42050  0.20450  0.03150  Biso   1.000  C
  H45      1.0000 0.58520  0.75570  0.03080  Biso   1.000  H
  H46      1.0000 0.41480  0.24430  0.96920  Biso   1.000  H
  H47      1.0000 0.57310  0.74430  0.93190  Biso   1.000  H
  H48      1.0000 0.42690  0.25570  0.06810  Biso   1.000  H
  C45      1.0000 0.16250  0.82130  0.68630  Biso   1.000  C
  C46      1.0000 0.83750  0.17870  0.31370  Biso   1.000  C
  H49      1.0000 0.06480  0.83270  0.67470  Biso   1.000  H
  H50      1.0000 0.93520  0.16730  0.32530  Biso   1.000  H
  C47      1.0000 0.40400  0.87950  0.66110  Biso   1.000  C
  C48      1.0000 0.59600  0.12050  0.33890  Biso   1.000  C
  H51      1.0000 0.41350  0.85180  0.72450  Biso   1.000  H
  H52      1.0000 0.58650  0.14820  0.27550  Biso   1.000  H
  H53      1.0000 0.44270  0.94800  0.64160  Biso   1.000  H
  H54      1.0000 0.55730  0.05200  0.35840  Biso   1.000  H
  H55      1.0000 0.45740  0.82990  0.62750  Biso   1.000  H
  H56      1.0000 0.54260  0.17010  0.37250  Biso   1.000  H
  C49      1.0000 0.19990  0.98370  0.57710  Biso   1.000  C
  C50      1.0000 0.80010  0.01630  0.42290  Biso   1.000  C
  H57      1.0000 0.09500  0.98770  0.58280  Biso   1.000  H
  H58      1.0000 0.90500  0.01230  0.41720  Biso   1.000  H
  H59      1.0000 0.23790  0.97360  0.51790  Biso   1.000  H
  H60      1.0000 0.76210  0.02640  0.48210  Biso   1.000  H
  H61      1.0000 0.22890  0.04940  0.58550  Biso   1.000  H
  H62      1.0000 0.77110  0.95060  0.41450  Biso   1.000  H
  C51      1.0000 0.32000  0.80300  0.70900  Biso   1.000  C
  C52      1.0000 0.68000  0.19700  0.29100  Biso   1.000  C
  H63      1.0000 0.41600  0.79280  0.72420  Biso   1.000  H
  H64      1.0000 0.58400  0.20720  0.27580  Biso   1.000  H
  C53      1.0000 0.13000  0.91100  0.62400  Biso   1.000  C
  C54      1.0000 0.87000  0.08900  0.37600  Biso   1.000  C
  H65      1.0000 0.06300  0.88630  0.67610  Biso   1.000  H
  H66      1.0000 0.93700  0.11370  0.32390  Biso   1.000  H
  H67      1.0000 0.12110  0.87320  0.57790  Biso   1.000  H
  H68      1.0000 0.87890  0.12680  0.42210  Biso   1.000  H
  H69      1.0000 0.10700  0.98690  0.60120  Biso   1.000  H
  H70      1.0000 0.89300  0.01310  0.39880  Biso   1.000  H
  C55      1.0000 0.36400  0.96500  0.60800  Biso   1.000  C
  C56      1.0000 0.63600  0.03500  0.39200  Biso   1.000  C
  H71      1.0000 0.44200  0.95280  0.64640  Biso   1.000  H
  H72      1.0000 0.55800  0.04720  0.35360  Biso   1.000  H
  H73      1.0000 0.31910  0.03820  0.60220  Biso   1.000  H
  H74      1.0000 0.68090  0.96180  0.39780  Biso   1.000  H
  H75      1.0000 0.40340  0.95430  0.54910  Biso   1.000  H
  H76      1.0000 0.59660  0.04570  0.45090  Biso   1.000  H
  C57      1.0000 0.61730  0.35270  0.78500  Biso   1.000  C
  C58      1.0000 0.38270  0.64730  0.21500  Biso   1.000  C
  H77      1.0000 0.61210  0.30040  0.75290  Biso   1.000  H
  H78      1.0000 0.38790  0.69960  0.24710  Biso   1.000  H
  C59      1.0000 0.46550  0.46690  0.67940  Biso   1.000  C
  C60      1.0000 0.53450  0.53310  0.32060  Biso   1.000  C
  H79      1.0000 0.49100  0.40910  0.64840  Biso   1.000  H
  H80      1.0000 0.50900  0.59090  0.35160  Biso   1.000  H
  H81      1.0000 0.48650  0.53380  0.63870  Biso   1.000  H
  H82      1.0000 0.51350  0.46620  0.36130  Biso   1.000  H
  H83      1.0000 0.36300  0.47060  0.69990  Biso   1.000  H
  H84      1.0000 0.63700  0.52940  0.30010  Biso   1.000  H
  C61      1.0000 0.55670  0.53670  0.79840  Biso   1.000  C
  C62      1.0000 0.44330  0.46330  0.20160  Biso   1.000  C
  H85      1.0000 0.46030  0.55960  0.82290  Biso   1.000  H
  H86      1.0000 0.53970  0.44040  0.17710  Biso   1.000  H
  H87      1.0000 0.59430  0.59560  0.75380  Biso   1.000  H
  H88      1.0000 0.40570  0.40440  0.24620  Biso   1.000  H
  H89      1.0000 0.62000  0.51390  0.84620  Biso   1.000  H
  H90      1.0000 0.38000  0.48610  0.15380  Biso   1.000  H
