data_image0
_cell_length_a       8.3436
_cell_length_b       9.4433
_cell_length_c       22.347
_cell_angle_alpha    90
_cell_angle_beta     90
_cell_angle_gamma    90

_symmetry_space_group_name_H-M    "P 1"
_symmetry_int_tables_number       1

loop_
  _symmetry_equiv_pos_as_xyz
  'x, y, z'

loop_
  _atom_site_label
  _atom_site_occupancy
  _atom_site_fract_x
  _atom_site_fract_y
  _atom_site_fract_z
  _atom_site_thermal_displace_type
  _atom_site_B_iso_or_equiv
  _atom_site_type_symbol
  Cu1      1.0000 0.15457  0.94875  0.95717  Biso   1.000  Cu
  Cu2      1.0000 0.34543  0.05125  0.45717  Biso   1.000  Cu
  Cu3      1.0000 0.84543  0.44875  0.54283  Biso   1.000  Cu
  Cu4      1.0000 0.65457  0.55125  0.04283  Biso   1.000  Cu
  S1       1.0000 0.97794  0.75992  0.89727  Biso   1.000  S
  S2       1.0000 0.52206  0.24008  0.39727  Biso   1.000  S
  S3       1.0000 0.02206  0.25992  0.60273  Biso   1.000  S
  S4       1.0000 0.47794  0.74008  0.10273  Biso   1.000  S
  C1       1.0000 0.85980  0.70810  0.95083  Biso   1.000  C
  C2       1.0000 0.64020  0.29190  0.45083  Biso   1.000  C
  C3       1.0000 0.14020  0.20810  0.54917  Biso   1.000  C
  C4       1.0000 0.35980  0.79190  0.04917  Biso   1.000  C
  N1       1.0000 0.77600  0.67070  0.98828  Biso   1.000  N
  N2       1.0000 0.72400  0.32930  0.48828  Biso   1.000  N
  N3       1.0000 0.22400  0.17070  0.51172  Biso   1.000  N
  N4       1.0000 0.27600  0.82930  0.01172  Biso   1.000  N
  S5       1.0000 0.92605  0.09398  0.13623  Biso   1.000  S
  S6       1.0000 0.57395  0.90602  0.63623  Biso   1.000  S
  S7       1.0000 0.07395  0.59398  0.36377  Biso   1.000  S
  S8       1.0000 0.42605  0.40602  0.86377  Biso   1.000  S
  C5       1.0000 0.98400  0.04500  0.07066  Biso   1.000  C
  C6       1.0000 0.51600  0.95500  0.57066  Biso   1.000  C
  C7       1.0000 0.01600  0.54500  0.42934  Biso   1.000  C
  C8       1.0000 0.48400  0.45500  0.92934  Biso   1.000  C
  N5       1.0000 0.02600  0.01200  0.02387  Biso   1.000  N
  N6       1.0000 0.47400  0.98800  0.52387  Biso   1.000  N
  N7       1.0000 0.97400  0.51200  0.47613  Biso   1.000  N
  N8       1.0000 0.52600  0.48800  0.97613  Biso   1.000  N
  C9       1.0000 0.43970  0.82980  0.89119  Biso   1.000  C
  C10      1.0000 0.06030  0.17020  0.39119  Biso   1.000  C
  C11      1.0000 0.56030  0.32980  0.60881  Biso   1.000  C
  C12      1.0000 0.93970  0.67020  0.10881  Biso   1.000  C
  H1       1.0000 0.45240  0.77050  0.92410  Biso   1.000  H
  H2       1.0000 0.04760  0.22950  0.42410  Biso   1.000  H
  H3       1.0000 0.54760  0.27050  0.57590  Biso   1.000  H
  H4       1.0000 0.95240  0.72950  0.07590  Biso   1.000  H
  C13      1.0000 0.54270  0.81510  0.84286  Biso   1.000  C
  C14      1.0000 0.95730  0.18490  0.34286  Biso   1.000  C
  C15      1.0000 0.45730  0.31510  0.65714  Biso   1.000  C
  C16      1.0000 0.04270  0.68490  0.15714  Biso   1.000  C
  H5       1.0000 0.62260  0.74640  0.84310  Biso   1.000  H
  H6       1.0000 0.87740  0.25360  0.34310  Biso   1.000  H
  H7       1.0000 0.37740  0.24640  0.65690  Biso   1.000  H
  H8       1.0000 0.12260  0.75360  0.15690  Biso   1.000  H
  C17      1.0000 0.52470  0.90350  0.79473  Biso   1.000  C
  C18      1.0000 0.97530  0.09650  0.29473  Biso   1.000  C
  C19      1.0000 0.47530  0.40350  0.70527  Biso   1.000  C
  C20      1.0000 0.02470  0.59650  0.20527  Biso   1.000  C
  H9       1.0000 0.59330  0.89610  0.76210  Biso   1.000  H
  H10      1.0000 0.90670  0.10390  0.26210  Biso   1.000  H
  H11      1.0000 0.40670  0.39610  0.73790  Biso   1.000  H
  H12      1.0000 0.09330  0.60390  0.23790  Biso   1.000  H
  C21      1.0000 0.40450  0.00370  0.79489  Biso   1.000  C
  C22      1.0000 0.09550  0.99630  0.29489  Biso   1.000  C
  C23      1.0000 0.59550  0.50370  0.70511  Biso   1.000  C
  C24      1.0000 0.90450  0.49630  0.20511  Biso   1.000  C
  H13      1.0000 0.39060  0.06410  0.76240  Biso   1.000  H
  H14      1.0000 0.10940  0.93590  0.26240  Biso   1.000  H
  H15      1.0000 0.60940  0.56410  0.73760  Biso   1.000  H
  H16      1.0000 0.89060  0.43590  0.23760  Biso   1.000  H
  C25      1.0000 0.30500  0.01280  0.84417  Biso   1.000  C
  C26      1.0000 0.19500  0.98720  0.34417  Biso   1.000  C
  C27      1.0000 0.69500  0.51280  0.65583  Biso   1.000  C
  C28      1.0000 0.80500  0.48720  0.15583  Biso   1.000  C
  C29      1.0000 0.16680  0.10560  0.85187  Biso   1.000  C
  C30      1.0000 0.33320  0.89440  0.35187  Biso   1.000  C
  C31      1.0000 0.83320  0.60560  0.64813  Biso   1.000  C
  C32      1.0000 0.66680  0.39440  0.14813  Biso   1.000  C
  C33      1.0000 0.94610  0.24970  0.82872  Biso   1.000  C
  C34      1.0000 0.55390  0.75030  0.32872  Biso   1.000  C
  C35      1.0000 0.05390  0.74970  0.67128  Biso   1.000  C
  C36      1.0000 0.44610  0.25030  0.17128  Biso   1.000  C
  C37      1.0000 0.82860  0.16780  0.79032  Biso   1.000  C
  C38      1.0000 0.67140  0.83220  0.29032  Biso   1.000  C
  C39      1.0000 0.17140  0.66780  0.70968  Biso   1.000  C
  C40      1.0000 0.32860  0.33220  0.20968  Biso   1.000  C
  H17      1.0000 0.83580  0.20010  0.74970  Biso   1.000  H
  H18      1.0000 0.66420  0.79990  0.24970  Biso   1.000  H
  H19      1.0000 0.16420  0.70010  0.75030  Biso   1.000  H
  H20      1.0000 0.33580  0.29990  0.25030  Biso   1.000  H
  H21      1.0000 0.72170  0.18270  0.80490  Biso   1.000  H
  H22      1.0000 0.77830  0.81730  0.30490  Biso   1.000  H
  H23      1.0000 0.27830  0.68270  0.69510  Biso   1.000  H
  H24      1.0000 0.22170  0.31730  0.19510  Biso   1.000  H
  H25      1.0000 0.85380  0.06870  0.79200  Biso   1.000  H
  H26      1.0000 0.64620  0.93130  0.29200  Biso   1.000  H
  H27      1.0000 0.14620  0.56870  0.70800  Biso   1.000  H
  H28      1.0000 0.35380  0.43130  0.20800  Biso   1.000  H
  C41      1.0000 0.92990  0.40850  0.81693  Biso   1.000  C
  C42      1.0000 0.57010  0.59150  0.31693  Biso   1.000  C
  C43      1.0000 0.07010  0.90850  0.68307  Biso   1.000  C
  C44      1.0000 0.42990  0.09150  0.18307  Biso   1.000  C
  H29      1.0000 0.93130  0.42550  0.77460  Biso   1.000  H
  H30      1.0000 0.56870  0.57450  0.27460  Biso   1.000  H
  H31      1.0000 0.06870  0.92550  0.72540  Biso   1.000  H
  H32      1.0000 0.43130  0.07450  0.22540  Biso   1.000  H
  H33      1.0000 0.01760  0.45770  0.83540  Biso   1.000  H
  H34      1.0000 0.48240  0.54230  0.33540  Biso   1.000  H
  H35      1.0000 0.98240  0.95770  0.66460  Biso   1.000  H
  H36      1.0000 0.51760  0.04230  0.16460  Biso   1.000  H
  H37      1.0000 0.83060  0.44200  0.83340  Biso   1.000  H
  H38      1.0000 0.66940  0.55800  0.33340  Biso   1.000  H
  H39      1.0000 0.16940  0.94200  0.66660  Biso   1.000  H
  H40      1.0000 0.33060  0.05800  0.16660  Biso   1.000  H
  C45      1.0000 0.94610  0.20420  0.89705  Biso   1.000  C
  C46      1.0000 0.55390  0.79580  0.39705  Biso   1.000  C
  C47      1.0000 0.05390  0.70420  0.60295  Biso   1.000  C
  C48      1.0000 0.44610  0.29580  0.10295  Biso   1.000  C
  C49      1.0000 0.78950  0.13700  0.91722  Biso   1.000  C
  C50      1.0000 0.71050  0.86300  0.41722  Biso   1.000  C
  C51      1.0000 0.21050  0.63700  0.58278  Biso   1.000  C
  C52      1.0000 0.28950  0.36300  0.08278  Biso   1.000  C
  H41      1.0000 0.79650  0.11290  0.95890  Biso   1.000  H
  H42      1.0000 0.70350  0.88710  0.45890  Biso   1.000  H
  H43      1.0000 0.20350  0.61290  0.54110  Biso   1.000  H
  H44      1.0000 0.29650  0.38710  0.04110  Biso   1.000  H
  H45      1.0000 0.76980  0.05290  0.89420  Biso   1.000  H
  H46      1.0000 0.73020  0.94710  0.39420  Biso   1.000  H
  H47      1.0000 0.23020  0.55290  0.60580  Biso   1.000  H
  H48      1.0000 0.26980  0.44710  0.10580  Biso   1.000  H
  H49      1.0000 0.70320  0.20270  0.91130  Biso   1.000  H
  H50      1.0000 0.79680  0.79730  0.41130  Biso   1.000  H
  H51      1.0000 0.29680  0.70270  0.58870  Biso   1.000  H
  H52      1.0000 0.20320  0.29730  0.08870  Biso   1.000  H
  C53      1.0000 0.99360  0.32450  0.93908  Biso   1.000  C
  C54      1.0000 0.50640  0.67550  0.43908  Biso   1.000  C
  C55      1.0000 0.00640  0.82450  0.56092  Biso   1.000  C
  C56      1.0000 0.49360  0.17550  0.06092  Biso   1.000  C
  H53      1.0000 0.99090  0.29150  0.97970  Biso   1.000  H
  H54      1.0000 0.50910  0.70850  0.47970  Biso   1.000  H
  H55      1.0000 0.00910  0.79150  0.52030  Biso   1.000  H
  H56      1.0000 0.49090  0.20850  0.02030  Biso   1.000  H
  H57      1.0000 0.91990  0.40180  0.93450  Biso   1.000  H
  H58      1.0000 0.58010  0.59820  0.43450  Biso   1.000  H
  H59      1.0000 0.08010  0.90180  0.56550  Biso   1.000  H
  H60      1.0000 0.41990  0.09820  0.06550  Biso   1.000  H
  H61      1.0000 0.10000  0.35600  0.92950  Biso   1.000  H
  H62      1.0000 0.40000  0.64400  0.42950  Biso   1.000  H
  H63      1.0000 0.90000  0.85600  0.57050  Biso   1.000  H
  H64      1.0000 0.60000  0.14400  0.07050  Biso   1.000  H
  N9       1.0000 0.32360  0.92590  0.89194  Biso   1.000  N
  N10      1.0000 0.17640  0.07410  0.39194  Biso   1.000  N
  N11      1.0000 0.67640  0.42590  0.60806  Biso   1.000  N
  N12      1.0000 0.82360  0.57410  0.10806  Biso   1.000  N
  N13      1.0000 0.07940  0.09820  0.89926  Biso   1.000  N
  N14      1.0000 0.42060  0.90180  0.39926  Biso   1.000  N
  N15      1.0000 0.92060  0.59820  0.60074  Biso   1.000  N
  N16      1.0000 0.57940  0.40180  0.10074  Biso   1.000  N
  N17      1.0000 0.10850  0.20090  0.81053  Biso   1.000  N
  N18      1.0000 0.39150  0.79910  0.31053  Biso   1.000  N
  N19      1.0000 0.89150  0.70090  0.68947  Biso   1.000  N
  N20      1.0000 0.60850  0.29910  0.18947  Biso   1.000  N
  O1       1.0000 0.17410  0.23300  0.76124  Biso   1.000  O
  O2       1.0000 0.32590  0.76700  0.26124  Biso   1.000  O
  O3       1.0000 0.82590  0.73300  0.73876  Biso   1.000  O
  O4       1.0000 0.67410  0.26700  0.23876  Biso   1.000  O
