data_image0
_cell_length_a       12.683
_cell_length_b       9.7708
_cell_length_c       8.0736
_cell_angle_alpha    90
_cell_angle_beta     101.934
_cell_angle_gamma    90

_symmetry_space_group_name_H-M    "P 1"
_symmetry_int_tables_number       1

loop_
  _symmetry_equiv_pos_as_xyz
  'x, y, z'

loop_
  _atom_site_label
  _atom_site_occupancy
  _atom_site_fract_x
  _atom_site_fract_y
  _atom_site_fract_z
  _atom_site_thermal_displace_type
  _atom_site_B_iso_or_equiv
  _atom_site_type_symbol
  Cu1      1.0000 0.54439  0.05825  0.18027  Biso   1.000  Cu
  Cu2      1.0000 0.45561  0.55825  0.31973  Biso   1.000  Cu
  Cu3      1.0000 0.45561  0.94175  0.81973  Biso   1.000  Cu
  Cu4      1.0000 0.54439  0.44175  0.68027  Biso   1.000  Cu
  O1       1.0000 0.97479  0.82768  0.77970  Biso   1.000  O
  O2       1.0000 0.02521  0.32768  0.72030  Biso   1.000  O
  O3       1.0000 0.02521  0.17232  0.22030  Biso   1.000  O
  O4       1.0000 0.97479  0.67232  0.27970  Biso   1.000  O
  N1       1.0000 0.68610  0.02693  0.33620  Biso   1.000  N
  N2       1.0000 0.31390  0.52693  0.16380  Biso   1.000  N
  N3       1.0000 0.31390  0.97307  0.66380  Biso   1.000  N
  N4       1.0000 0.68610  0.47307  0.83620  Biso   1.000  N
  N5       1.0000 0.01996  0.04720  0.80340  Biso   1.000  N
  N6       1.0000 0.98004  0.54720  0.69660  Biso   1.000  N
  N7       1.0000 0.98004  0.95280  0.19660  Biso   1.000  N
  N8       1.0000 0.01996  0.45280  0.30340  Biso   1.000  N
  N9       1.0000 0.47209  0.12120  0.36090  Biso   1.000  N
  N10      1.0000 0.52791  0.62120  0.13910  Biso   1.000  N
  N11      1.0000 0.52791  0.87880  0.63910  Biso   1.000  N
  N12      1.0000 0.47209  0.37880  0.86090  Biso   1.000  N
  N13      1.0000 0.52314  0.17101  0.48550  Biso   1.000  N
  N14      1.0000 0.47686  0.67101  0.01450  Biso   1.000  N
  N15      1.0000 0.47686  0.82899  0.51450  Biso   1.000  N
  N16      1.0000 0.52314  0.32899  0.98550  Biso   1.000  N
  N17      1.0000 0.57073  0.21840  0.60970  Biso   1.000  N
  N18      1.0000 0.42927  0.71840  0.89030  Biso   1.000  N
  N19      1.0000 0.42927  0.78160  0.39030  Biso   1.000  N
  N20      1.0000 0.57073  0.28160  0.10970  Biso   1.000  N
  N21      1.0000 0.40510  0.03120  0.01500  Biso   1.000  N
  N22      1.0000 0.59490  0.53120  0.48500  Biso   1.000  N
  N23      1.0000 0.59490  0.96880  0.98500  Biso   1.000  N
  N24      1.0000 0.40510  0.46880  0.51500  Biso   1.000  N
  N25      1.0000 0.31775  0.01500  0.04690  Biso   1.000  N
  N26      1.0000 0.68225  0.51500  0.45310  Biso   1.000  N
  N27      1.0000 0.68225  0.98500  0.95310  Biso   1.000  N
  N28      1.0000 0.31775  0.48500  0.54690  Biso   1.000  N
  N29      1.0000 0.23416  0.00120  0.07420  Biso   1.000  N
  N30      1.0000 0.76584  0.50120  0.42580  Biso   1.000  N
  N31      1.0000 0.76584  0.99880  0.92580  Biso   1.000  N
  N32      1.0000 0.23416  0.49880  0.57420  Biso   1.000  N
  C1       1.0000 0.71152  0.90000  0.39300  Biso   1.000  C
  C2       1.0000 0.28848  0.40000  0.10700  Biso   1.000  C
  C3       1.0000 0.28848  0.10000  0.60700  Biso   1.000  C
  C4       1.0000 0.71152  0.60000  0.89300  Biso   1.000  C
  C5       1.0000 0.80032  0.87310  0.51740  Biso   1.000  C
  C6       1.0000 0.19968  0.37310  0.98260  Biso   1.000  C
  C7       1.0000 0.19968  0.12690  0.48260  Biso   1.000  C
  C8       1.0000 0.80032  0.62690  0.01740  Biso   1.000  C
  C9       1.0000 0.86631  0.97930  0.58850  Biso   1.000  C
  C10      1.0000 0.13369  0.47930  0.91150  Biso   1.000  C
  C11      1.0000 0.13369  0.02070  0.41150  Biso   1.000  C
  C12      1.0000 0.86631  0.52070  0.08850  Biso   1.000  C
  C13      1.0000 0.84191  0.10950  0.52580  Biso   1.000  C
  C14      1.0000 0.15809  0.60950  0.97420  Biso   1.000  C
  C15      1.0000 0.15809  0.89050  0.47420  Biso   1.000  C
  C16      1.0000 0.84191  0.39050  0.02580  Biso   1.000  C
  C17      1.0000 0.75117  0.12870  0.40100  Biso   1.000  C
  C18      1.0000 0.24883  0.62870  0.09900  Biso   1.000  C
  C19      1.0000 0.24883  0.87130  0.59900  Biso   1.000  C
  C20      1.0000 0.75117  0.37130  0.90100  Biso   1.000  C
  C21      1.0000 0.95928  0.94610  0.73170  Biso   1.000  C
  C22      1.0000 0.04072  0.44610  0.76830  Biso   1.000  C
  C23      1.0000 0.04072  0.05390  0.26830  Biso   1.000  C
  C24      1.0000 0.95928  0.55390  0.23170  Biso   1.000  C
  H1       1.0000 0.66750  0.82770  0.34650  Biso   1.000  H
  H2       1.0000 0.33250  0.32770  0.15350  Biso   1.000  H
  H3       1.0000 0.33250  0.17230  0.65350  Biso   1.000  H
  H4       1.0000 0.66750  0.67230  0.84650  Biso   1.000  H
  H5       1.0000 0.81610  0.78380  0.55380  Biso   1.000  H
  H6       1.0000 0.18390  0.28380  0.94620  Biso   1.000  H
  H7       1.0000 0.18390  0.21620  0.44620  Biso   1.000  H
  H8       1.0000 0.81610  0.71620  0.05380  Biso   1.000  H
  H9       1.0000 0.88610  0.18310  0.56710  Biso   1.000  H
  H10      1.0000 0.11390  0.68310  0.93290  Biso   1.000  H
  H11      1.0000 0.11390  0.81690  0.43290  Biso   1.000  H
  H12      1.0000 0.88610  0.31690  0.06710  Biso   1.000  H
  H13      1.0000 0.73470  0.21680  0.36030  Biso   1.000  H
  H14      1.0000 0.26530  0.71680  0.13970  Biso   1.000  H
  H15      1.0000 0.26530  0.78320  0.63970  Biso   1.000  H
  H16      1.0000 0.73470  0.28320  0.86030  Biso   1.000  H
  H17      1.0000 0.06970  0.02900  0.88800  Biso   1.000  H
  H18      1.0000 0.93030  0.52900  0.61200  Biso   1.000  H
  H19      1.0000 0.93030  0.97100  0.11200  Biso   1.000  H
  H20      1.0000 0.06970  0.47100  0.38800  Biso   1.000  H
  H21      1.0000 0.01200  0.13200  0.77300  Biso   1.000  H
  H22      1.0000 0.98800  0.63200  0.72700  Biso   1.000  H
  H23      1.0000 0.98800  0.86800  0.22700  Biso   1.000  H
  H24      1.0000 0.01200  0.36800  0.27300  Biso   1.000  H
