data_image0
_cell_length_a       4.9131
_cell_length_b       24.1094
_cell_length_c       7.5583
_cell_angle_alpha    90
_cell_angle_beta     97.791
_cell_angle_gamma    90

_symmetry_space_group_name_H-M    "P 1"
_symmetry_int_tables_number       1

loop_
  _symmetry_equiv_pos_as_xyz
  'x, y, z'

loop_
  _atom_site_label
  _atom_site_occupancy
  _atom_site_fract_x
  _atom_site_fract_y
  _atom_site_fract_z
  _atom_site_thermal_displace_type
  _atom_site_B_iso_or_equiv
  _atom_site_type_symbol
  Cu1      1.0000 0.04997  0.25000  0.78979  Biso   1.000  Cu
  Cu2      1.0000 0.95003  0.75000  0.21021  Biso   1.000  Cu
  S1       1.0000 0.65687  0.25000  0.06300  Biso   1.000  S
  S2       1.0000 0.34313  0.75000  0.93700  Biso   1.000  S
  O1       1.0000 0.53970  0.51675  0.72080  Biso   1.000  O
  O2       1.0000 0.46030  0.01675  0.27920  Biso   1.000  O
  O3       1.0000 0.46030  0.48325  0.27920  Biso   1.000  O
  O4       1.0000 0.53970  0.98325  0.72080  Biso   1.000  O
  O5       1.0000 0.95370  0.25000  0.03420  Biso   1.000  O
  O6       1.0000 0.04630  0.75000  0.96580  Biso   1.000  O
  O7       1.0000 0.48970  0.25000  0.88620  Biso   1.000  O
  O8       1.0000 0.51030  0.75000  0.11380  Biso   1.000  O
  O9       1.0000 0.60980  0.19984  0.16290  Biso   1.000  O
  O10      1.0000 0.39020  0.69984  0.83710  Biso   1.000  O
  O11      1.0000 0.39020  0.80016  0.83710  Biso   1.000  O
  O12      1.0000 0.60980  0.30016  0.16290  Biso   1.000  O
  O13      1.0000 0.12880  0.25000  0.54190  Biso   1.000  O
  O14      1.0000 0.87120  0.75000  0.45810  Biso   1.000  O
  N1       1.0000 0.98310  0.33169  0.76590  Biso   1.000  N
  N2       1.0000 0.01690  0.83169  0.23410  Biso   1.000  N
  N3       1.0000 0.01690  0.66831  0.23410  Biso   1.000  N
  N4       1.0000 0.98310  0.16831  0.76590  Biso   1.000  N
  N5       1.0000 0.97680  0.54088  0.71550  Biso   1.000  N
  N6       1.0000 0.02320  0.04088  0.28450  Biso   1.000  N
  N7       1.0000 0.02320  0.45912  0.28450  Biso   1.000  N
  N8       1.0000 0.97680  0.95912  0.71550  Biso   1.000  N
  C1       1.0000 0.14600  0.36922  0.85720  Biso   1.000  C
  C2       1.0000 0.85400  0.86922  0.14280  Biso   1.000  C
  C3       1.0000 0.85400  0.63078  0.14280  Biso   1.000  C
  C4       1.0000 0.14600  0.13078  0.85720  Biso   1.000  C
  C5       1.0000 0.09380  0.42545  0.84340  Biso   1.000  C
  C6       1.0000 0.90620  0.92545  0.15660  Biso   1.000  C
  C7       1.0000 0.90620  0.57455  0.15660  Biso   1.000  C
  C8       1.0000 0.09380  0.07455  0.84340  Biso   1.000  C
  C9       1.0000 0.86220  0.44375  0.73530  Biso   1.000  C
  C10      1.0000 0.13780  0.94375  0.26470  Biso   1.000  C
  C11      1.0000 0.13780  0.55625  0.26470  Biso   1.000  C
  C12      1.0000 0.86220  0.05625  0.73530  Biso   1.000  C
  C13      1.0000 0.69220  0.40484  0.64110  Biso   1.000  C
  C14      1.0000 0.30780  0.90484  0.35890  Biso   1.000  C
  C15      1.0000 0.30780  0.59516  0.35890  Biso   1.000  C
  C16      1.0000 0.69220  0.09516  0.64110  Biso   1.000  C
  C17      1.0000 0.76020  0.34974  0.65790  Biso   1.000  C
  C18      1.0000 0.23980  0.84974  0.34210  Biso   1.000  C
  C19      1.0000 0.23980  0.65026  0.34210  Biso   1.000  C
  C20      1.0000 0.76020  0.15026  0.65790  Biso   1.000  C
  C21      1.0000 0.78100  0.50395  0.72240  Biso   1.000  C
  C22      1.0000 0.21900  0.00395  0.27760  Biso   1.000  C
  C23      1.0000 0.21900  0.49605  0.27760  Biso   1.000  C
  C24      1.0000 0.78100  0.99605  0.72240  Biso   1.000  C
  O15      1.0000 0.85050  0.83688  0.68450  Biso   1.000  O
  O16      1.0000 0.14950  0.33688  0.31550  Biso   1.000  O
  O17      1.0000 0.14950  0.16312  0.31550  Biso   1.000  O
  O18      1.0000 0.85050  0.66312  0.68450  Biso   1.000  O
  H1       1.0000 0.29970  0.35710  0.93270  Biso   1.000  H
  H2       1.0000 0.70030  0.85710  0.06730  Biso   1.000  H
  H3       1.0000 0.70030  0.64290  0.06730  Biso   1.000  H
  H4       1.0000 0.29970  0.14290  0.93270  Biso   1.000  H
  H5       1.0000 0.93800  0.57480  0.71600  Biso   1.000  H
  H6       1.0000 0.06200  0.07480  0.28400  Biso   1.000  H
  H7       1.0000 0.06200  0.42520  0.28400  Biso   1.000  H
  H8       1.0000 0.93800  0.92520  0.71600  Biso   1.000  H
  H9       1.0000 0.21340  0.45070  0.90620  Biso   1.000  H
  H10      1.0000 0.78660  0.95070  0.09380  Biso   1.000  H
  H11      1.0000 0.78660  0.54930  0.09380  Biso   1.000  H
  H12      1.0000 0.21340  0.04930  0.90620  Biso   1.000  H
  H13      1.0000 0.14800  0.53330  0.70900  Biso   1.000  H
  H14      1.0000 0.85200  0.03330  0.29100  Biso   1.000  H
  H15      1.0000 0.85200  0.46670  0.29100  Biso   1.000  H
  H16      1.0000 0.14800  0.96670  0.70900  Biso   1.000  H
  H17      1.0000 0.53440  0.41590  0.56750  Biso   1.000  H
  H18      1.0000 0.46560  0.91590  0.43250  Biso   1.000  H
  H19      1.0000 0.46560  0.58410  0.43250  Biso   1.000  H
  H20      1.0000 0.53440  0.08410  0.56750  Biso   1.000  H
  H21      1.0000 0.64820  0.32390  0.59210  Biso   1.000  H
  H22      1.0000 0.35180  0.82390  0.40790  Biso   1.000  H
  H23      1.0000 0.35180  0.67610  0.40790  Biso   1.000  H
  H24      1.0000 0.64820  0.17610  0.59210  Biso   1.000  H
  H25      1.0000 0.13900  0.27690  0.47300  Biso   1.000  H
  H26      1.0000 0.86100  0.77690  0.52700  Biso   1.000  H
  H27      1.0000 0.86100  0.72310  0.52700  Biso   1.000  H
  H28      1.0000 0.13900  0.22310  0.47300  Biso   1.000  H
  H29      1.0000 0.72000  0.82540  0.73200  Biso   1.000  H
  H30      1.0000 0.28000  0.32540  0.26800  Biso   1.000  H
  H31      1.0000 0.28000  0.17460  0.26800  Biso   1.000  H
  H32      1.0000 0.72000  0.67460  0.73200  Biso   1.000  H
  H33      1.0000 0.00000  0.82850  0.74200  Biso   1.000  H
  H34      1.0000 0.00000  0.32850  0.25800  Biso   1.000  H
  H35      1.0000 0.00000  0.17150  0.25800  Biso   1.000  H
  H36      1.0000 0.00000  0.67150  0.74200  Biso   1.000  H
