data_image0
_cell_length_a       11.4189
_cell_length_b       9.2717
_cell_length_c       8.1398
_cell_angle_alpha    90
_cell_angle_beta     90.949
_cell_angle_gamma    90

_symmetry_space_group_name_H-M    "P 1"
_symmetry_int_tables_number       1

loop_
  _symmetry_equiv_pos_as_xyz
  'x, y, z'

loop_
  _atom_site_label
  _atom_site_occupancy
  _atom_site_fract_x
  _atom_site_fract_y
  _atom_site_fract_z
  _atom_site_thermal_displace_type
  _atom_site_B_iso_or_equiv
  _atom_site_type_symbol
  Cu1      1.0000 0.50000  0.00000  0.00000  Biso   1.000  Cu
  Cu2      1.0000 0.50000  0.50000  0.50000  Biso   1.000  Cu
  S1       1.0000 0.36992  0.44422  0.19039  Biso   1.000  S
  S2       1.0000 0.63008  0.94422  0.30961  Biso   1.000  S
  S3       1.0000 0.63008  0.55578  0.80961  Biso   1.000  S
  S4       1.0000 0.36992  0.05578  0.69039  Biso   1.000  S
  O1       1.0000 0.95528  0.05771  0.32324  Biso   1.000  O
  O2       1.0000 0.04472  0.55771  0.17676  Biso   1.000  O
  O3       1.0000 0.04472  0.94229  0.67676  Biso   1.000  O
  O4       1.0000 0.95528  0.44229  0.82324  Biso   1.000  O
  N1       1.0000 0.48049  0.19897  0.07200  Biso   1.000  N
  N2       1.0000 0.51951  0.69897  0.42800  Biso   1.000  N
  N3       1.0000 0.51951  0.80103  0.92800  Biso   1.000  N
  N4       1.0000 0.48049  0.30103  0.57200  Biso   1.000  N
  N5       1.0000 0.34418  0.94827  0.10519  Biso   1.000  N
  N6       1.0000 0.65582  0.44827  0.39481  Biso   1.000  N
  N7       1.0000 0.65582  0.05173  0.89481  Biso   1.000  N
  N8       1.0000 0.34418  0.55173  0.60519  Biso   1.000  N
  N9       1.0000 0.92384  0.82730  0.24650  Biso   1.000  N
  N10      1.0000 0.07616  0.32730  0.25350  Biso   1.000  N
  N11      1.0000 0.07616  0.17270  0.75350  Biso   1.000  N
  N12      1.0000 0.92384  0.67270  0.74650  Biso   1.000  N
  C1       1.0000 0.43536  0.30085  0.12198  Biso   1.000  C
  C2       1.0000 0.56464  0.80085  0.37802  Biso   1.000  C
  C3       1.0000 0.56464  0.69915  0.87802  Biso   1.000  C
  C4       1.0000 0.43536  0.19915  0.62198  Biso   1.000  C
  C5       1.0000 0.26263  0.87628  0.01944  Biso   1.000  C
  C6       1.0000 0.73737  0.37628  0.48056  Biso   1.000  C
  C7       1.0000 0.73737  0.12372  0.98056  Biso   1.000  C
  C8       1.0000 0.26263  0.62372  0.51944  Biso   1.000  C
  C9       1.0000 0.14759  0.86476  0.07075  Biso   1.000  C
  C10      1.0000 0.85241  0.36476  0.42925  Biso   1.000  C
  C11      1.0000 0.85241  0.13524  0.92925  Biso   1.000  C
  C12      1.0000 0.14759  0.63524  0.57075  Biso   1.000  C
  C13      1.0000 0.11628  0.93045  0.21646  Biso   1.000  C
  C14      1.0000 0.88372  0.43045  0.28354  Biso   1.000  C
  C15      1.0000 0.88372  0.06955  0.78354  Biso   1.000  C
  C16      1.0000 0.11628  0.56955  0.71646  Biso   1.000  C
  C17      1.0000 0.20270  0.99700  0.31047  Biso   1.000  C
  C18      1.0000 0.79730  0.49700  0.18953  Biso   1.000  C
  C19      1.0000 0.79730  0.00300  0.68953  Biso   1.000  C
  C20      1.0000 0.20270  0.50300  0.81047  Biso   1.000  C
  C21      1.0000 0.31553  0.00342  0.25128  Biso   1.000  C
  C22      1.0000 0.68447  0.50342  0.24872  Biso   1.000  C
  C23      1.0000 0.68447  0.99658  0.74872  Biso   1.000  C
  C24      1.0000 0.31553  0.49658  0.75128  Biso   1.000  C
  C25      1.0000 0.99072  0.94278  0.26817  Biso   1.000  C
  C26      1.0000 0.00928  0.44278  0.23183  Biso   1.000  C
  C27      1.0000 0.00928  0.05722  0.73183  Biso   1.000  C
  C28      1.0000 0.99072  0.55722  0.76817  Biso   1.000  C
  H1       1.0000 0.28360  0.83210  0.92160  Biso   1.000  H
  H2       1.0000 0.71640  0.33210  0.57840  Biso   1.000  H
  H3       1.0000 0.71640  0.16790  0.07840  Biso   1.000  H
  H4       1.0000 0.28360  0.66790  0.42160  Biso   1.000  H
  H5       1.0000 0.09260  0.81380  0.00840  Biso   1.000  H
  H6       1.0000 0.90740  0.31380  0.49160  Biso   1.000  H
  H7       1.0000 0.90740  0.18620  0.99160  Biso   1.000  H
  H8       1.0000 0.09260  0.68620  0.50840  Biso   1.000  H
  H9       1.0000 0.18520  0.03680  0.41200  Biso   1.000  H
  H10      1.0000 0.81480  0.53680  0.08800  Biso   1.000  H
  H11      1.0000 0.81480  0.96320  0.58800  Biso   1.000  H
  H12      1.0000 0.18520  0.46320  0.91200  Biso   1.000  H
  H13      1.0000 0.37350  0.04760  0.31520  Biso   1.000  H
  H14      1.0000 0.62650  0.54760  0.18480  Biso   1.000  H
  H15      1.0000 0.62650  0.95240  0.68480  Biso   1.000  H
  H16      1.0000 0.37350  0.45240  0.81520  Biso   1.000  H
  H17      1.0000 0.95400  0.74800  0.21800  Biso   1.000  H
  H18      1.0000 0.04600  0.24800  0.28200  Biso   1.000  H
  H19      1.0000 0.04600  0.25200  0.78200  Biso   1.000  H
  H20      1.0000 0.95400  0.75200  0.71800  Biso   1.000  H
  H21      1.0000 0.85300  0.83700  0.26800  Biso   1.000  H
  H22      1.0000 0.14700  0.33700  0.23200  Biso   1.000  H
  H23      1.0000 0.14700  0.16300  0.73200  Biso   1.000  H
  H24      1.0000 0.85300  0.66300  0.76800  Biso   1.000  H
