data_image0
_cell_length_a       7.5198
_cell_length_b       17.7822
_cell_length_c       14.5604
_cell_angle_alpha    90
_cell_angle_beta     94.501
_cell_angle_gamma    90

_symmetry_space_group_name_H-M    "P 1"
_symmetry_int_tables_number       1

loop_
  _symmetry_equiv_pos_as_xyz
  'x, y, z'

loop_
  _atom_site_label
  _atom_site_occupancy
  _atom_site_fract_x
  _atom_site_fract_y
  _atom_site_fract_z
  _atom_site_thermal_displace_type
  _atom_site_B_iso_or_equiv
  _atom_site_type_symbol
  Hg1      1.0000 0.61875  0.79105  0.05835  Biso   1.000  Hg
  Hg2      1.0000 0.38125  0.29105  0.44166  Biso   1.000  Hg
  Hg3      1.0000 0.38125  0.20895  0.94166  Biso   1.000  Hg
  Hg4      1.0000 0.61875  0.70895  0.55834  Biso   1.000  Hg
  S1       1.0000 0.60952  0.80751  0.23748  Biso   1.000  S
  S2       1.0000 0.39048  0.30751  0.26252  Biso   1.000  S
  S3       1.0000 0.39048  0.19249  0.76252  Biso   1.000  S
  S4       1.0000 0.60952  0.69249  0.73748  Biso   1.000  S
  C1       1.0000 0.45310  0.87261  0.23830  Biso   1.000  C
  C2       1.0000 0.54690  0.37261  0.26170  Biso   1.000  C
  C3       1.0000 0.54690  0.12739  0.76170  Biso   1.000  C
  C4       1.0000 0.45310  0.62739  0.73830  Biso   1.000  C
  N1       1.0000 0.34650  0.91917  0.24170  Biso   1.000  N
  N2       1.0000 0.65350  0.41917  0.25830  Biso   1.000  N
  N3       1.0000 0.65350  0.08083  0.75830  Biso   1.000  N
  N4       1.0000 0.34650  0.58083  0.74170  Biso   1.000  N
  S5       1.0000 0.93871  0.79577  0.02459  Biso   1.000  S
  S6       1.0000 0.06129  0.29577  0.47541  Biso   1.000  S
  S7       1.0000 0.06129  0.20423  0.97541  Biso   1.000  S
  S8       1.0000 0.93871  0.70423  0.52459  Biso   1.000  S
  C5       1.0000 0.98060  0.87920  0.07410  Biso   1.000  C
  C6       1.0000 0.01940  0.37920  0.42590  Biso   1.000  C
  C7       1.0000 0.01940  0.12080  0.92590  Biso   1.000  C
  C8       1.0000 0.98060  0.62080  0.57410  Biso   1.000  C
  N5       1.0000 0.01380  0.93610  0.10820  Biso   1.000  N
  N6       1.0000 0.98620  0.43610  0.39180  Biso   1.000  N
  N7       1.0000 0.98620  0.06390  0.89180  Biso   1.000  N
  N8       1.0000 0.01380  0.56390  0.60820  Biso   1.000  N
  S9       1.0000 0.42827  0.89764  0.98494  Biso   1.000  S
  S10      1.0000 0.57173  0.39764  0.51506  Biso   1.000  S
  S11      1.0000 0.57173  0.10236  0.01506  Biso   1.000  S
  S12      1.0000 0.42827  0.60236  0.48494  Biso   1.000  S
  C9       1.0000 0.57420  0.92457  0.91140  Biso   1.000  C
  C10      1.0000 0.42580  0.42457  0.58860  Biso   1.000  C
  C11      1.0000 0.42580  0.07543  0.08860  Biso   1.000  C
  C12      1.0000 0.57420  0.57543  0.41140  Biso   1.000  C
  N9       1.0000 0.66770  0.94508  0.85810  Biso   1.000  N
  N10      1.0000 0.33230  0.44508  0.64190  Biso   1.000  N
  N11      1.0000 0.33230  0.05492  0.14190  Biso   1.000  N
  N12      1.0000 0.66770  0.55492  0.35810  Biso   1.000  N
  S13      1.0000 0.44541  0.67369  0.01523  Biso   1.000  S
  S14      1.0000 0.55459  0.17369  0.48477  Biso   1.000  S
  S15      1.0000 0.55459  0.32631  0.98477  Biso   1.000  S
  S16      1.0000 0.44541  0.82631  0.51523  Biso   1.000  S
  C13      1.0000 0.55160  0.61340  0.08740  Biso   1.000  C
  C14      1.0000 0.44840  0.11340  0.41260  Biso   1.000  C
  C15      1.0000 0.44840  0.38660  0.91260  Biso   1.000  C
  C16      1.0000 0.55160  0.88660  0.58740  Biso   1.000  C
  N13      1.0000 0.62180  0.57000  0.13640  Biso   1.000  N
  N14      1.0000 0.37820  0.07000  0.36360  Biso   1.000  N
  N15      1.0000 0.37820  0.43000  0.86360  Biso   1.000  N
  N16      1.0000 0.62180  0.93000  0.63640  Biso   1.000  N
  Cu1      1.0000 0.17245  0.00449  0.22495  Biso   1.000  Cu
  Cu2      1.0000 0.82755  0.50449  0.27505  Biso   1.000  Cu
  Cu3      1.0000 0.82755  0.99551  0.77505  Biso   1.000  Cu
  Cu4      1.0000 0.17245  0.49551  0.72495  Biso   1.000  Cu
  N17      1.0000 0.02270  0.96023  0.32041  Biso   1.000  N
  N18      1.0000 0.97730  0.46023  0.17959  Biso   1.000  N
  N19      1.0000 0.97730  0.03977  0.67959  Biso   1.000  N
  N20      1.0000 0.02270  0.53977  0.82041  Biso   1.000  N
  N21      1.0000 0.84940  0.98002  0.32717  Biso   1.000  N
  N22      1.0000 0.15060  0.48002  0.17283  Biso   1.000  N
  N23      1.0000 0.15060  0.01998  0.67283  Biso   1.000  N
  N24      1.0000 0.84940  0.51998  0.82717  Biso   1.000  N
  C17      1.0000 0.78680  0.95120  0.40390  Biso   1.000  C
  C18      1.0000 0.21320  0.45120  0.09610  Biso   1.000  C
  C19      1.0000 0.21320  0.04880  0.59610  Biso   1.000  C
  C20      1.0000 0.78680  0.54880  0.90390  Biso   1.000  C
  H1       1.0000 0.67230  0.95710  0.42280  Biso   1.000  H
  H2       1.0000 0.32770  0.45710  0.07720  Biso   1.000  H
  H3       1.0000 0.32770  0.04290  0.57720  Biso   1.000  H
  H4       1.0000 0.67230  0.54290  0.92280  Biso   1.000  H
  C21      1.0000 0.92300  0.91170  0.44870  Biso   1.000  C
  C22      1.0000 0.07700  0.41170  0.05130  Biso   1.000  C
  C23      1.0000 0.07700  0.08830  0.55130  Biso   1.000  C
  C24      1.0000 0.92300  0.58830  0.94870  Biso   1.000  C
  H5       1.0000 0.92010  0.88510  0.50360  Biso   1.000  H
  H6       1.0000 0.07990  0.38510  0.99640  Biso   1.000  H
  H7       1.0000 0.07990  0.11490  0.49640  Biso   1.000  H
  H8       1.0000 0.92010  0.61490  0.00360  Biso   1.000  H
  C25      1.0000 0.06690  0.91940  0.39510  Biso   1.000  C
  C26      1.0000 0.93310  0.41940  0.10490  Biso   1.000  C
  C27      1.0000 0.93310  0.08060  0.60490  Biso   1.000  C
  C28      1.0000 0.06690  0.58060  0.89510  Biso   1.000  C
  H9       1.0000 0.17920  0.89870  0.40960  Biso   1.000  H
  H10      1.0000 0.82080  0.39870  0.09040  Biso   1.000  H
  H11      1.0000 0.82080  0.10130  0.59040  Biso   1.000  H
  H12      1.0000 0.17920  0.60130  0.90960  Biso   1.000  H
  C29      1.0000 0.75690  0.02230  0.25330  Biso   1.000  C
  C30      1.0000 0.24310  0.52230  0.24670  Biso   1.000  C
  C31      1.0000 0.24310  0.97770  0.74670  Biso   1.000  C
  C32      1.0000 0.75690  0.47770  0.75330  Biso   1.000  C
  H13      1.0000 0.63380  0.02990  0.26660  Biso   1.000  H
  H14      1.0000 0.36620  0.52990  0.23340  Biso   1.000  H
  H15      1.0000 0.36620  0.97010  0.73340  Biso   1.000  H
  H16      1.0000 0.63380  0.47010  0.76660  Biso   1.000  H
  H17      1.0000 0.75760  0.99430  0.19620  Biso   1.000  H
  H18      1.0000 0.24240  0.49430  0.30380  Biso   1.000  H
  H19      1.0000 0.24240  0.00570  0.80380  Biso   1.000  H
  H20      1.0000 0.75760  0.50570  0.69620  Biso   1.000  H
  N25      1.0000 0.01560  0.09608  0.22147  Biso   1.000  N
  N26      1.0000 0.98440  0.59608  0.27853  Biso   1.000  N
  N27      1.0000 0.98440  0.90392  0.77853  Biso   1.000  N
  N28      1.0000 0.01560  0.40392  0.72147  Biso   1.000  N
  N29      1.0000 0.84260  0.09436  0.24325  Biso   1.000  N
  N30      1.0000 0.15740  0.59436  0.25675  Biso   1.000  N
  N31      1.0000 0.15740  0.90564  0.75675  Biso   1.000  N
  N32      1.0000 0.84260  0.40564  0.74325  Biso   1.000  N
  C33      1.0000 0.77670  0.16460  0.24930  Biso   1.000  C
  C34      1.0000 0.22330  0.66460  0.25070  Biso   1.000  C
  C35      1.0000 0.22330  0.83540  0.75070  Biso   1.000  C
  C36      1.0000 0.77670  0.33540  0.74930  Biso   1.000  C
  H21      1.0000 0.66190  0.17730  0.26320  Biso   1.000  H
  H22      1.0000 0.33810  0.67730  0.23680  Biso   1.000  H
  H23      1.0000 0.33810  0.82270  0.73680  Biso   1.000  H
  H24      1.0000 0.66190  0.32270  0.76320  Biso   1.000  H
  C37      1.0000 0.90880  0.21350  0.23150  Biso   1.000  C
  C38      1.0000 0.09120  0.71350  0.26850  Biso   1.000  C
  C39      1.0000 0.09120  0.78650  0.76850  Biso   1.000  C
  C40      1.0000 0.90880  0.28650  0.73150  Biso   1.000  C
  H25      1.0000 0.90280  0.26570  0.23080  Biso   1.000  H
  H26      1.0000 0.09720  0.76570  0.26920  Biso   1.000  H
  H27      1.0000 0.09720  0.73430  0.76920  Biso   1.000  H
  H28      1.0000 0.90280  0.23430  0.73080  Biso   1.000  H
  C41      1.0000 0.05510  0.16890  0.21460  Biso   1.000  C
  C42      1.0000 0.94490  0.66890  0.28540  Biso   1.000  C
  C43      1.0000 0.94490  0.83110  0.78540  Biso   1.000  C
  C44      1.0000 0.05510  0.33110  0.71460  Biso   1.000  C
  H29      1.0000 0.16530  0.18740  0.20040  Biso   1.000  H
  H30      1.0000 0.83470  0.68740  0.29960  Biso   1.000  H
  H31      1.0000 0.83470  0.81260  0.79960  Biso   1.000  H
  H32      1.0000 0.16530  0.31260  0.70040  Biso   1.000  H
