data_image0
_cell_length_a       7.8345
_cell_length_b       18.0559
_cell_length_c       15.9748
_cell_angle_alpha    90
_cell_angle_beta     96.27
_cell_angle_gamma    90

_symmetry_space_group_name_H-M    "P 1"
_symmetry_int_tables_number       1

loop_
  _symmetry_equiv_pos_as_xyz
  'x, y, z'

loop_
  _atom_site_label
  _atom_site_occupancy
  _atom_site_fract_x
  _atom_site_fract_y
  _atom_site_fract_z
  _atom_site_thermal_displace_type
  _atom_site_B_iso_or_equiv
  _atom_site_type_symbol
  Cu1      1.0000 0.34429  0.30940  0.63430  Biso   1.000  Cu
  Cu2      1.0000 0.15571  0.80940  0.86570  Biso   1.000  Cu
  Cu3      1.0000 0.65571  0.69060  0.36570  Biso   1.000  Cu
  Cu4      1.0000 0.84429  0.19060  0.13430  Biso   1.000  Cu
  Hg1      1.0000 0.44984  0.09868  0.38004  Biso   1.000  Hg
  Hg2      1.0000 0.05016  0.59868  0.11996  Biso   1.000  Hg
  Hg3      1.0000 0.55016  0.90132  0.61996  Biso   1.000  Hg
  Hg4      1.0000 0.94984  0.40132  0.88004  Biso   1.000  Hg
  N1       1.0000 0.67860  0.21620  0.21530  Biso   1.000  N
  N2       1.0000 0.82140  0.71620  0.28470  Biso   1.000  N
  N3       1.0000 0.32140  0.78380  0.78470  Biso   1.000  N
  N4       1.0000 0.17860  0.28380  0.71530  Biso   1.000  N
  C1       1.0000 0.58240  0.22370  0.26390  Biso   1.000  C
  C2       1.0000 0.91760  0.72370  0.23610  Biso   1.000  C
  C3       1.0000 0.41760  0.77630  0.73610  Biso   1.000  C
  C4       1.0000 0.08240  0.27630  0.76390  Biso   1.000  C
  S1       1.0000 0.44321  0.23515  0.33382  Biso   1.000  S
  S2       1.0000 0.05679  0.73515  0.16618  Biso   1.000  S
  S3       1.0000 0.55679  0.76485  0.66618  Biso   1.000  S
  S4       1.0000 0.94321  0.26485  0.83382  Biso   1.000  S
  N5       1.0000 0.99060  0.14400  0.23020  Biso   1.000  N
  N6       1.0000 0.50940  0.64400  0.26980  Biso   1.000  N
  N7       1.0000 0.00940  0.85600  0.76980  Biso   1.000  N
  N8       1.0000 0.49060  0.35600  0.73020  Biso   1.000  N
  C5       1.0000 0.05860  0.10660  0.28220  Biso   1.000  C
  C6       1.0000 0.44140  0.60660  0.21780  Biso   1.000  C
  C7       1.0000 0.94140  0.89340  0.71780  Biso   1.000  C
  C8       1.0000 0.55860  0.39340  0.78220  Biso   1.000  C
  S5       1.0000 0.14764  0.04871  0.35501  Biso   1.000  S
  S6       1.0000 0.35236  0.54871  0.14499  Biso   1.000  S
  S7       1.0000 0.85236  0.95129  0.64499  Biso   1.000  S
  S8       1.0000 0.64764  0.45129  0.85501  Biso   1.000  S
  N9       1.0000 0.55860  0.02350  0.14200  Biso   1.000  N
  N10      1.0000 0.94140  0.52350  0.35800  Biso   1.000  N
  N11      1.0000 0.44140  0.97650  0.85800  Biso   1.000  N
  N12      1.0000 0.05860  0.47650  0.64200  Biso   1.000  N
  C9       1.0000 0.59980  0.02430  0.21340  Biso   1.000  C
  C10      1.0000 0.90020  0.52430  0.28660  Biso   1.000  C
  C11      1.0000 0.40020  0.97570  0.78660  Biso   1.000  C
  C12      1.0000 0.09980  0.47570  0.71340  Biso   1.000  C
  S9       1.0000 0.66986  0.02040  0.31543  Biso   1.000  S
  S10      1.0000 0.83014  0.52040  0.18457  Biso   1.000  S
  S11      1.0000 0.33014  0.97960  0.68457  Biso   1.000  S
  S12      1.0000 0.16986  0.47960  0.81543  Biso   1.000  S
  N13      1.0000 0.48410  0.20600  0.61850  Biso   1.000  N
  N14      1.0000 0.01590  0.70600  0.88150  Biso   1.000  N
  N15      1.0000 0.51590  0.79400  0.38150  Biso   1.000  N
  N16      1.0000 0.98410  0.29400  0.11850  Biso   1.000  N
  C13      1.0000 0.53070  0.15750  0.58050  Biso   1.000  C
  C14      1.0000 0.96930  0.65750  0.91950  Biso   1.000  C
  C15      1.0000 0.46930  0.84250  0.41950  Biso   1.000  C
  C16      1.0000 0.03070  0.34250  0.08050  Biso   1.000  C
  S13      1.0000 0.60131  0.08646  0.52917  Biso   1.000  S
  S14      1.0000 0.89869  0.58646  0.97083  Biso   1.000  S
  S15      1.0000 0.39869  0.91354  0.47083  Biso   1.000  S
  S16      1.0000 0.10131  0.41354  0.02917  Biso   1.000  S
  N17      1.0000 0.47660  0.36410  0.55260  Biso   1.000  N
  N18      1.0000 0.02340  0.86410  0.94740  Biso   1.000  N
  N19      1.0000 0.52340  0.63590  0.44740  Biso   1.000  N
  N20      1.0000 0.97660  0.13590  0.05260  Biso   1.000  N
  N21      1.0000 0.39310  0.39700  0.48240  Biso   1.000  N
  N22      1.0000 0.10690  0.89700  0.01760  Biso   1.000  N
  N23      1.0000 0.60690  0.60300  0.51760  Biso   1.000  N
  N24      1.0000 0.89310  0.10300  0.98240  Biso   1.000  N
  N25      1.0000 0.13660  0.32720  0.47000  Biso   1.000  N
  N26      1.0000 0.36340  0.82720  0.03000  Biso   1.000  N
  N27      1.0000 0.86340  0.67280  0.53000  Biso   1.000  N
  N28      1.0000 0.63660  0.17280  0.97000  Biso   1.000  N
  N29      1.0000 0.16530  0.28180  0.53780  Biso   1.000  N
  N30      1.0000 0.33470  0.78180  0.96220  Biso   1.000  N
  N31      1.0000 0.83470  0.71820  0.46220  Biso   1.000  N
  N32      1.0000 0.66530  0.21820  0.03780  Biso   1.000  N
  C17      1.0000 0.64500  0.36860  0.54440  Biso   1.000  C
  C18      1.0000 0.85500  0.86860  0.95560  Biso   1.000  C
  C19      1.0000 0.35500  0.63140  0.45560  Biso   1.000  C
  C20      1.0000 0.14500  0.13140  0.04440  Biso   1.000  C
  C21      1.0000 0.66710  0.40510  0.46920  Biso   1.000  C
  C22      1.0000 0.83290  0.90510  0.03080  Biso   1.000  C
  C23      1.0000 0.33290  0.59490  0.53080  Biso   1.000  C
  C24      1.0000 0.16710  0.09490  0.96920  Biso   1.000  C
  H1       1.0000 0.77130  0.41600  0.44910  Biso   1.000  H
  H2       1.0000 0.72870  0.91600  0.05090  Biso   1.000  H
  H3       1.0000 0.22870  0.58400  0.55090  Biso   1.000  H
  H4       1.0000 0.27130  0.08400  0.94910  Biso   1.000  H
  C25      1.0000 0.50590  0.42190  0.43010  Biso   1.000  C
  C26      1.0000 0.99410  0.92190  0.06990  Biso   1.000  C
  C27      1.0000 0.49410  0.57810  0.56990  Biso   1.000  C
  C28      1.0000 0.00590  0.07810  0.93010  Biso   1.000  C
  C29      1.0000 0.77830  0.33570  0.60620  Biso   1.000  C
  C30      1.0000 0.72170  0.83570  0.89380  Biso   1.000  C
  C31      1.0000 0.22170  0.66430  0.39380  Biso   1.000  C
  C32      1.0000 0.27830  0.16430  0.10620  Biso   1.000  C
  H5       1.0000 0.79220  0.36580  0.65600  Biso   1.000  H
  H6       1.0000 0.70780  0.86580  0.84400  Biso   1.000  H
  H7       1.0000 0.20780  0.63420  0.34400  Biso   1.000  H
  H8       1.0000 0.29220  0.13420  0.15600  Biso   1.000  H
  H9       1.0000 0.88520  0.33330  0.58200  Biso   1.000  H
  H10      1.0000 0.61480  0.83330  0.91800  Biso   1.000  H
  H11      1.0000 0.11480  0.66670  0.41800  Biso   1.000  H
  H12      1.0000 0.38520  0.16670  0.08200  Biso   1.000  H
  H13      1.0000 0.74410  0.28660  0.62050  Biso   1.000  H
  H14      1.0000 0.75590  0.78660  0.87950  Biso   1.000  H
  H15      1.0000 0.25590  0.71340  0.37950  Biso   1.000  H
  H16      1.0000 0.24410  0.21340  0.12050  Biso   1.000  H
  C33      1.0000 0.44980  0.45690  0.34720  Biso   1.000  C
  C34      1.0000 0.05020  0.95690  0.15280  Biso   1.000  C
  C35      1.0000 0.55020  0.54310  0.65280  Biso   1.000  C
  C36      1.0000 0.94980  0.04310  0.84720  Biso   1.000  C
  H17      1.0000 0.39500  0.42050  0.30960  Biso   1.000  H
  H18      1.0000 0.10500  0.92050  0.19040  Biso   1.000  H
  H19      1.0000 0.60500  0.57950  0.69040  Biso   1.000  H
  H20      1.0000 0.89500  0.07950  0.80960  Biso   1.000  H
  H21      1.0000 0.54790  0.47670  0.32380  Biso   1.000  H
  H22      1.0000 0.95210  0.97670  0.17620  Biso   1.000  H
  H23      1.0000 0.45210  0.52330  0.67620  Biso   1.000  H
  H24      1.0000 0.04790  0.02330  0.82380  Biso   1.000  H
  H25      1.0000 0.37030  0.49620  0.35480  Biso   1.000  H
  H26      1.0000 0.12970  0.99620  0.14520  Biso   1.000  H
  H27      1.0000 0.62970  0.50380  0.64520  Biso   1.000  H
  H28      1.0000 0.87030  0.00380  0.85480  Biso   1.000  H
  C37      1.0000 0.07890  0.21960  0.51780  Biso   1.000  C
  C38      1.0000 0.42110  0.71960  0.98220  Biso   1.000  C
  C39      1.0000 0.92110  0.78040  0.48220  Biso   1.000  C
  C40      1.0000 0.57890  0.28040  0.01780  Biso   1.000  C
  C41      1.0000 0.99370  0.22670  0.43730  Biso   1.000  C
  C42      1.0000 0.50630  0.72670  0.06270  Biso   1.000  C
  C43      1.0000 0.00630  0.77330  0.56270  Biso   1.000  C
  C44      1.0000 0.49370  0.27330  0.93730  Biso   1.000  C
  H29      1.0000 0.92280  0.19140  0.40890  Biso   1.000  H
  H30      1.0000 0.57720  0.69140  0.09110  Biso   1.000  H
  H31      1.0000 0.07720  0.80860  0.59110  Biso   1.000  H
  H32      1.0000 0.42280  0.30860  0.90890  Biso   1.000  H
  C45      1.0000 0.03280  0.29480  0.40720  Biso   1.000  C
  C46      1.0000 0.46720  0.79480  0.09280  Biso   1.000  C
  C47      1.0000 0.96720  0.70520  0.59280  Biso   1.000  C
  C48      1.0000 0.53280  0.20520  0.90720  Biso   1.000  C
  C49      1.0000 0.07680  0.15480  0.57620  Biso   1.000  C
  C50      1.0000 0.42320  0.65480  0.92380  Biso   1.000  C
  C51      1.0000 0.92320  0.84520  0.42380  Biso   1.000  C
  C52      1.0000 0.57680  0.34520  0.07620  Biso   1.000  C
  H33      1.0000 0.17590  0.15670  0.61710  Biso   1.000  H
  H34      1.0000 0.32410  0.65670  0.88290  Biso   1.000  H
  H35      1.0000 0.82410  0.84330  0.38290  Biso   1.000  H
  H36      1.0000 0.67590  0.34330  0.11710  Biso   1.000  H
  H37      1.0000 0.07840  0.10970  0.54450  Biso   1.000  H
  H38      1.0000 0.42160  0.60970  0.95550  Biso   1.000  H
  H39      1.0000 0.92160  0.89030  0.45550  Biso   1.000  H
  H40      1.0000 0.57840  0.39030  0.04450  Biso   1.000  H
  H41      1.0000 0.97460  0.15650  0.60430  Biso   1.000  H
  H42      1.0000 0.52540  0.65650  0.89570  Biso   1.000  H
  H43      1.0000 0.02540  0.84350  0.39570  Biso   1.000  H
  H44      1.0000 0.47460  0.34350  0.10430  Biso   1.000  H
  C53      1.0000 0.98540  0.33070  0.32400  Biso   1.000  C
  C54      1.0000 0.51460  0.83070  0.17600  Biso   1.000  C
  C55      1.0000 0.01460  0.66930  0.67600  Biso   1.000  C
  C56      1.0000 0.48540  0.16930  0.82400  Biso   1.000  C
  H45      1.0000 0.91830  0.37420  0.33130  Biso   1.000  H
  H46      1.0000 0.58170  0.87420  0.16870  Biso   1.000  H
  H47      1.0000 0.08170  0.62580  0.66870  Biso   1.000  H
  H48      1.0000 0.41830  0.12580  0.83130  Biso   1.000  H
  H49      1.0000 0.91950  0.29670  0.28720  Biso   1.000  H
  H50      1.0000 0.58050  0.79670  0.21280  Biso   1.000  H
  H51      1.0000 0.08050  0.70330  0.71280  Biso   1.000  H
  H52      1.0000 0.41950  0.20330  0.78720  Biso   1.000  H
  H53      1.0000 0.08780  0.34430  0.29970  Biso   1.000  H
  H54      1.0000 0.41220  0.84430  0.20030  Biso   1.000  H
  H55      1.0000 0.91220  0.65570  0.70030  Biso   1.000  H
  H56      1.0000 0.58780  0.15570  0.79970  Biso   1.000  H
  C57      1.0000 0.20870  0.40100  0.47500  Biso   1.000  C
  C58      1.0000 0.29130  0.90100  0.02500  Biso   1.000  C
  C59      1.0000 0.79130  0.59900  0.52500  Biso   1.000  C
  C60      1.0000 0.70870  0.09900  0.97500  Biso   1.000  C
  H57      1.0000 0.16720  0.42870  0.42480  Biso   1.000  H
  H58      1.0000 0.33280  0.92870  0.07520  Biso   1.000  H
  H59      1.0000 0.83280  0.57130  0.57520  Biso   1.000  H
  H60      1.0000 0.66720  0.07130  0.92480  Biso   1.000  H
  H61      1.0000 0.17250  0.42660  0.52340  Biso   1.000  H
  H62      1.0000 0.32750  0.92660  0.97660  Biso   1.000  H
  H63      1.0000 0.82750  0.57340  0.47660  Biso   1.000  H
  H64      1.0000 0.67250  0.07340  0.02340  Biso   1.000  H
