data_image0
_cell_length_a       7.4549
_cell_length_b       21.5045
_cell_length_c       13.0239
_cell_angle_alpha    90
_cell_angle_beta     103.314
_cell_angle_gamma    90

_symmetry_space_group_name_H-M    "P 1"
_symmetry_int_tables_number       1

loop_
  _symmetry_equiv_pos_as_xyz
  'x, y, z'

loop_
  _atom_site_label
  _atom_site_occupancy
  _atom_site_fract_x
  _atom_site_fract_y
  _atom_site_fract_z
  _atom_site_thermal_displace_type
  _atom_site_B_iso_or_equiv
  _atom_site_type_symbol
  Cu1      1.0000 0.88425  0.70497  0.81777  Biso   1.000  Cu
  Cu2      1.0000 0.61575  0.20497  0.68223  Biso   1.000  Cu
  Cu3      1.0000 0.11575  0.29503  0.18223  Biso   1.000  Cu
  Cu4      1.0000 0.38425  0.79503  0.31777  Biso   1.000  Cu
  Hg1      1.0000 0.45134  0.89244  0.90117  Biso   1.000  Hg
  Hg2      1.0000 0.04866  0.39244  0.59883  Biso   1.000  Hg
  Hg3      1.0000 0.54866  0.10756  0.09883  Biso   1.000  Hg
  Hg4      1.0000 0.95134  0.60756  0.40117  Biso   1.000  Hg
  S1       1.0000 0.68384  0.82510  0.02011  Biso   1.000  S
  S2       1.0000 0.81616  0.32510  0.47989  Biso   1.000  S
  S3       1.0000 0.31616  0.17490  0.97989  Biso   1.000  S
  S4       1.0000 0.18384  0.67490  0.52011  Biso   1.000  S
  C1       1.0000 0.56650  0.81560  0.11430  Biso   1.000  C
  C2       1.0000 0.93350  0.31560  0.38570  Biso   1.000  C
  C3       1.0000 0.43350  0.18440  0.88570  Biso   1.000  C
  C4       1.0000 0.06650  0.68440  0.61430  Biso   1.000  C
  N1       1.0000 0.48870  0.80750  0.17910  Biso   1.000  N
  N2       1.0000 0.01130  0.30750  0.32090  Biso   1.000  N
  N3       1.0000 0.51130  0.19250  0.82090  Biso   1.000  N
  N4       1.0000 0.98870  0.69250  0.67910  Biso   1.000  N
  N5       1.0000 0.41690  0.99990  0.64970  Biso   1.000  N
  N6       1.0000 0.08310  0.49990  0.85030  Biso   1.000  N
  N7       1.0000 0.58310  0.00010  0.35030  Biso   1.000  N
  N8       1.0000 0.91690  0.50010  0.14970  Biso   1.000  N
  C5       1.0000 0.47470  0.00040  0.73950  Biso   1.000  C
  C6       1.0000 0.02530  0.50040  0.76050  Biso   1.000  C
  C7       1.0000 0.52530  0.99960  0.26050  Biso   1.000  C
  C8       1.0000 0.97470  0.49960  0.23950  Biso   1.000  C
  S5       1.0000 0.55680  0.00038  0.86961  Biso   1.000  S
  S6       1.0000 0.94320  0.50038  0.63039  Biso   1.000  S
  S7       1.0000 0.44320  0.99962  0.13039  Biso   1.000  S
  S8       1.0000 0.05680  0.49962  0.36961  Biso   1.000  S
  N9       1.0000 0.65150  0.74960  0.75640  Biso   1.000  N
  N10      1.0000 0.84850  0.24960  0.74360  Biso   1.000  N
  N11      1.0000 0.34850  0.25040  0.24360  Biso   1.000  N
  N12      1.0000 0.15150  0.75040  0.25640  Biso   1.000  N
  C9       1.0000 0.53160  0.78370  0.74200  Biso   1.000  C
  C10      1.0000 0.96840  0.28370  0.75800  Biso   1.000  C
  C11      1.0000 0.46840  0.21630  0.25800  Biso   1.000  C
  C12      1.0000 0.03160  0.71630  0.24200  Biso   1.000  C
  S9       1.0000 0.35662  0.83335  0.72100  Biso   1.000  S
  S10      1.0000 0.14338  0.33335  0.77900  Biso   1.000  S
  S11      1.0000 0.64338  0.16665  0.27900  Biso   1.000  S
  S12      1.0000 0.85662  0.66665  0.22100  Biso   1.000  S
  S13      1.0000 0.12981  0.90475  0.93887  Biso   1.000  S
  S14      1.0000 0.37019  0.40475  0.56113  Biso   1.000  S
  S15      1.0000 0.87019  0.09525  0.06113  Biso   1.000  S
  S16      1.0000 0.62981  0.59525  0.43887  Biso   1.000  S
  N13      1.0000 0.99170  0.78800  0.86430  Biso   1.000  N
  N14      1.0000 0.50830  0.28800  0.63570  Biso   1.000  N
  N15      1.0000 0.00830  0.21200  0.13570  Biso   1.000  N
  N16      1.0000 0.49170  0.71200  0.36430  Biso   1.000  N
  C13      1.0000 0.04940  0.83570  0.89410  Biso   1.000  C
  C14      1.0000 0.45060  0.33570  0.60590  Biso   1.000  C
  C15      1.0000 0.95060  0.16430  0.10590  Biso   1.000  C
  C16      1.0000 0.54940  0.66430  0.39410  Biso   1.000  C
  N17      1.0000 0.09470  0.66464  0.91710  Biso   1.000  N
  N18      1.0000 0.40530  0.16464  0.58290  Biso   1.000  N
  N19      1.0000 0.90530  0.33536  0.08290  Biso   1.000  N
  N20      1.0000 0.59470  0.83536  0.41710  Biso   1.000  N
  N21      1.0000 0.74580  0.62594  0.81380  Biso   1.000  N
  N22      1.0000 0.75420  0.12594  0.68620  Biso   1.000  N
  N23      1.0000 0.25420  0.37406  0.18620  Biso   1.000  N
  N24      1.0000 0.24580  0.87406  0.31380  Biso   1.000  N
  N25      1.0000 0.90120  0.59853  0.98580  Biso   1.000  N
  N26      1.0000 0.59880  0.09853  0.51420  Biso   1.000  N
  N27      1.0000 0.09880  0.40147  0.01420  Biso   1.000  N
  N28      1.0000 0.40120  0.90147  0.48580  Biso   1.000  N
  H1       1.0000 0.89960  0.56920  0.04000  Biso   1.000  H
  H2       1.0000 0.60040  0.06920  0.46000  Biso   1.000  H
  H3       1.0000 0.10040  0.43080  0.96000  Biso   1.000  H
  H4       1.0000 0.39960  0.93080  0.54000  Biso   1.000  H
  C17      1.0000 0.26700  0.68620  0.92250  Biso   1.000  C
  C18      1.0000 0.23300  0.18620  0.57750  Biso   1.000  C
  C19      1.0000 0.73300  0.31380  0.07750  Biso   1.000  C
  C20      1.0000 0.76700  0.81380  0.42250  Biso   1.000  C
  H5       1.0000 0.28630  0.71160  0.86820  Biso   1.000  H
  H6       1.0000 0.21370  0.21160  0.63180  Biso   1.000  H
  H7       1.0000 0.71370  0.28840  0.13180  Biso   1.000  H
  H8       1.0000 0.78630  0.78840  0.36820  Biso   1.000  H
  C21      1.0000 0.41350  0.67260  0.00280  Biso   1.000  C
  C22      1.0000 0.08650  0.17260  0.49720  Biso   1.000  C
  C23      1.0000 0.58650  0.32740  0.99720  Biso   1.000  C
  C24      1.0000 0.91350  0.82740  0.50280  Biso   1.000  C
  H9       1.0000 0.53090  0.68730  0.00290  Biso   1.000  H
  H10      1.0000 0.96910  0.18730  0.49710  Biso   1.000  H
  H11      1.0000 0.46910  0.31270  0.99710  Biso   1.000  H
  H12      1.0000 0.03090  0.81270  0.50290  Biso   1.000  H
  C25      1.0000 0.38210  0.63620  0.08480  Biso   1.000  C
  C26      1.0000 0.11790  0.13620  0.41520  Biso   1.000  C
  C27      1.0000 0.61790  0.36380  0.91520  Biso   1.000  C
  C28      1.0000 0.88210  0.86380  0.58480  Biso   1.000  C
  H13      1.0000 0.47780  0.62830  0.14310  Biso   1.000  H
  H14      1.0000 0.02220  0.12830  0.35690  Biso   1.000  H
  H15      1.0000 0.52220  0.37170  0.85690  Biso   1.000  H
  H16      1.0000 0.97780  0.87170  0.64310  Biso   1.000  H
  C29      1.0000 0.21310  0.61230  0.08040  Biso   1.000  C
  C30      1.0000 0.28690  0.11230  0.41960  Biso   1.000  C
  C31      1.0000 0.78690  0.38770  0.91960  Biso   1.000  C
  C32      1.0000 0.71310  0.88770  0.58040  Biso   1.000  C
  H17      1.0000 0.19180  0.58710  0.13440  Biso   1.000  H
  H18      1.0000 0.30820  0.08710  0.36560  Biso   1.000  H
  H19      1.0000 0.80820  0.41290  0.86560  Biso   1.000  H
  H20      1.0000 0.69180  0.91290  0.63440  Biso   1.000  H
  C33      1.0000 0.07010  0.62620  0.99250  Biso   1.000  C
  C34      1.0000 0.42990  0.12620  0.50750  Biso   1.000  C
  C35      1.0000 0.92990  0.37380  0.00750  Biso   1.000  C
  C36      1.0000 0.57010  0.87380  0.49250  Biso   1.000  C
  C37      1.0000 0.76330  0.58850  0.89750  Biso   1.000  C
  C38      1.0000 0.73670  0.08850  0.60250  Biso   1.000  C
  C39      1.0000 0.23670  0.41150  0.10250  Biso   1.000  C
  C40      1.0000 0.26330  0.91150  0.39750  Biso   1.000  C
  C41      1.0000 0.64190  0.53880  0.89760  Biso   1.000  C
  C42      1.0000 0.85810  0.03880  0.60240  Biso   1.000  C
  C43      1.0000 0.35810  0.46120  0.10240  Biso   1.000  C
  C44      1.0000 0.14190  0.96120  0.39760  Biso   1.000  C
  H21      1.0000 0.65240  0.51420  0.95730  Biso   1.000  H
  H22      1.0000 0.84760  0.01420  0.54270  Biso   1.000  H
  H23      1.0000 0.34760  0.48580  0.04270  Biso   1.000  H
  H24      1.0000 0.15240  0.98580  0.45730  Biso   1.000  H
  C45      1.0000 0.50880  0.52710  0.80950  Biso   1.000  C
  C46      1.0000 0.99120  0.02710  0.69050  Biso   1.000  C
  C47      1.0000 0.49120  0.47290  0.19050  Biso   1.000  C
  C48      1.0000 0.00880  0.97290  0.30950  Biso   1.000  C
  H25      1.0000 0.42680  0.49450  0.80900  Biso   1.000  H
  H26      1.0000 0.07320  0.99450  0.69100  Biso   1.000  H
  H27      1.0000 0.57320  0.50550  0.19100  Biso   1.000  H
  H28      1.0000 0.92680  0.00550  0.30900  Biso   1.000  H
  C49      1.0000 0.49450  0.56370  0.71970  Biso   1.000  C
  C50      1.0000 0.00550  0.06370  0.78030  Biso   1.000  C
  C51      1.0000 0.50550  0.43630  0.28030  Biso   1.000  C
  C52      1.0000 0.99450  0.93630  0.21970  Biso   1.000  C
  H29      1.0000 0.40760  0.55500  0.65780  Biso   1.000  H
  H30      1.0000 0.09240  0.05500  0.84220  Biso   1.000  H
  H31      1.0000 0.59240  0.44500  0.34220  Biso   1.000  H
  H32      1.0000 0.90760  0.94500  0.15780  Biso   1.000  H
  C53      1.0000 0.61210  0.61250  0.72580  Biso   1.000  C
  C54      1.0000 0.88790  0.11250  0.77420  Biso   1.000  C
  C55      1.0000 0.38790  0.38750  0.27420  Biso   1.000  C
  C56      1.0000 0.11210  0.88750  0.22580  Biso   1.000  C
  H33      1.0000 0.60090  0.63810  0.66710  Biso   1.000  H
  H34      1.0000 0.89910  0.13810  0.83290  Biso   1.000  H
  H35      1.0000 0.39910  0.36190  0.33290  Biso   1.000  H
  H36      1.0000 0.10090  0.86190  0.16710  Biso   1.000  H
