data_image0
_cell_length_a       8.554
_cell_length_b       9.25
_cell_length_c       10.322
_cell_angle_alpha    88.79
_cell_angle_beta     72.78
_cell_angle_gamma    65.83

_symmetry_space_group_name_H-M    "P 1"
_symmetry_int_tables_number       1

loop_
  _symmetry_equiv_pos_as_xyz
  'x, y, z'

loop_
  _atom_site_label
  _atom_site_occupancy
  _atom_site_fract_x
  _atom_site_fract_y
  _atom_site_fract_z
  _atom_site_thermal_displace_type
  _atom_site_B_iso_or_equiv
  _atom_site_type_symbol
  Cu1      1.0000 0.27850  0.34060  0.30466  Biso   1.000  Cu
  Cu2      1.0000 0.72150  0.65940  0.69534  Biso   1.000  Cu
  Cl1      1.0000 0.18199  0.28786  0.14038  Biso   1.000  Cl
  Cl2      1.0000 0.81801  0.71214  0.85962  Biso   1.000  Cl
  Cl3      1.0000 0.22337  0.44624  0.51270  Biso   1.000  Cl
  Cl4      1.0000 0.77663  0.55376  0.48730  Biso   1.000  Cl
  N1       1.0000 0.49550  0.86360  0.31240  Biso   1.000  N
  N2       1.0000 0.50450  0.13640  0.68760  Biso   1.000  N
  N3       1.0000 0.48210  0.00230  0.26380  Biso   1.000  N
  N4       1.0000 0.51790  0.99770  0.73620  Biso   1.000  N
  N5       1.0000 0.34870  0.11710  0.35290  Biso   1.000  N
  N6       1.0000 0.65130  0.88290  0.64710  Biso   1.000  N
  C1       1.0000 0.26800  0.05430  0.46070  Biso   1.000  C
  C2       1.0000 0.73200  0.94570  0.53930  Biso   1.000  C
  C3       1.0000 0.11600  0.12520  0.57580  Biso   1.000  C
  C4       1.0000 0.88400  0.87480  0.42420  Biso   1.000  C
  H1       1.0000 0.05130  0.23770  0.59590  Biso   1.000  H
  H2       1.0000 0.94870  0.76230  0.40410  Biso   1.000  H
  C5       1.0000 0.06520  0.02310  0.65830  Biso   1.000  C
  C6       1.0000 0.93480  0.97690  0.34170  Biso   1.000  C
  H3       1.0000 0.96160  0.06660  0.73700  Biso   1.000  H
  H4       1.0000 0.03840  0.93340  0.26300  Biso   1.000  H
  C7       1.0000 0.16210  0.85560  0.63000  Biso   1.000  C
  C8       1.0000 0.83790  0.14440  0.37000  Biso   1.000  C
  H5       1.0000 0.12050  0.79000  0.68950  Biso   1.000  H
  H6       1.0000 0.87950  0.21000  0.31050  Biso   1.000  H
  C9       1.0000 0.31370  0.78510  0.51980  Biso   1.000  C
  C10      1.0000 0.68630  0.21490  0.48020  Biso   1.000  C
  H7       1.0000 0.38100  0.67260  0.50220  Biso   1.000  H
  H8       1.0000 0.61900  0.32740  0.49780  Biso   1.000  H
  C11      1.0000 0.36350  0.88900  0.43470  Biso   1.000  C
  C12      1.0000 0.63650  0.11100  0.56530  Biso   1.000  C
  C13      1.0000 0.61230  0.71490  0.22420  Biso   1.000  C
  C14      1.0000 0.38770  0.28510  0.77580  Biso   1.000  C
  H9       1.0000 0.68870  0.63790  0.27260  Biso   1.000  H
  H10      1.0000 0.31130  0.36210  0.72740  Biso   1.000  H
  H11      1.0000 0.69250  0.73410  0.14130  Biso   1.000  H
  H12      1.0000 0.30750  0.26590  0.85870  Biso   1.000  H
  N7       1.0000 0.50100  0.65030  0.18630  Biso   1.000  N
  N8       1.0000 0.49900  0.34970  0.81370  Biso   1.000  N
  N9       1.0000 0.47500  0.53060  0.25040  Biso   1.000  N
  N10      1.0000 0.52500  0.46940  0.74960  Biso   1.000  N
  N11      1.0000 0.35150  0.50920  0.21430  Biso   1.000  N
  N12      1.0000 0.64850  0.49080  0.78570  Biso   1.000  N
  C15      1.0000 0.29260  0.61840  0.12620  Biso   1.000  C
  C16      1.0000 0.70740  0.38160  0.87380  Biso   1.000  C
  C17      1.0000 0.16270  0.64670  0.06070  Biso   1.000  C
  C18      1.0000 0.83730  0.35330  0.93930  Biso   1.000  C
  H13      1.0000 0.09560  0.58460  0.07150  Biso   1.000  H
  H14      1.0000 0.90440  0.41540  0.92850  Biso   1.000  H
  C19      1.0000 0.13750  0.76880  0.98010  Biso   1.000  C
  C20      1.0000 0.86250  0.23120  0.01990  Biso   1.000  C
  H15      1.0000 0.04990  0.79240  0.93440  Biso   1.000  H
  H16      1.0000 0.95010  0.20760  0.06560  Biso   1.000  H
  C21      1.0000 0.23800  0.86000  0.96340  Biso   1.000  C
  C22      1.0000 0.76200  0.14000  0.03660  Biso   1.000  C
  H17      1.0000 0.21740  0.94200  0.90510  Biso   1.000  H
  H18      1.0000 0.78260  0.05800  0.09490  Biso   1.000  H
  C23      1.0000 0.36350  0.83560  0.02740  Biso   1.000  C
  C24      1.0000 0.63650  0.16440  0.97260  Biso   1.000  C
  H19      1.0000 0.42910  0.89910  0.01710  Biso   1.000  H
  H20      1.0000 0.57090  0.10090  0.98290  Biso   1.000  H
  C25      1.0000 0.38950  0.71100  0.10910  Biso   1.000  C
  C26      1.0000 0.61050  0.28900  0.89090  Biso   1.000  C
