data_image0
_cell_length_a       7.8926
_cell_length_b       10.1888
_cell_length_c       14.0856
_cell_angle_alpha    96.655
_cell_angle_beta     97.344
_cell_angle_gamma    90.346

_symmetry_space_group_name_H-M    "P 1"
_symmetry_int_tables_number       1

loop_
  _symmetry_equiv_pos_as_xyz
  'x, y, z'

loop_
  _atom_site_label
  _atom_site_occupancy
  _atom_site_fract_x
  _atom_site_fract_y
  _atom_site_fract_z
  _atom_site_thermal_displace_type
  _atom_site_B_iso_or_equiv
  _atom_site_type_symbol
  Cu1      1.0000 0.23410  0.30290  0.44510  Biso   1.000  Cu
  O1       1.0000 0.49700  0.47200  0.52500  Biso   1.000  O
  H1       1.0000 0.48550  0.55160  0.53680  Biso   1.000  H
  O2       1.0000 0.29800  0.28200  0.31700  Biso   1.000  O
  O3       1.0000 0.42700  0.14500  0.21400  Biso   1.000  O
  N1       1.0000 0.39800  0.15500  0.46600  Biso   1.000  N
  H2       1.0000 0.35970  0.10190  0.50650  Biso   1.000  H
  N2       1.0000 0.16000  0.33900  0.57700  Biso   1.000  N
  N3       1.0000 0.12200  0.47500  0.42700  Biso   1.000  N
  C1       1.0000 0.53900  0.41900  0.61000  Biso   1.000  C
  C2       1.0000 0.53900  0.49200  0.69900  Biso   1.000  C
  H3       1.0000 0.51160  0.58080  0.70430  Biso   1.000  H
  C3       1.0000 0.57900  0.43000  0.78000  Biso   1.000  C
  H4       1.0000 0.57440  0.47770  0.84050  Biso   1.000  H
  C4       1.0000 0.62400  0.30100  0.77600  Biso   1.000  C
  H5       1.0000 0.65330  0.26190  0.83250  Biso   1.000  H
  C5       1.0000 0.62600  0.22800  0.68600  Biso   1.000  C
  H6       1.0000 0.65840  0.14060  0.68160  Biso   1.000  H
  C6       1.0000 0.58100  0.28500  0.60200  Biso   1.000  C
  C7       1.0000 0.57600  0.20600  0.50600  Biso   1.000  C
  H7       1.0000 0.65160  0.13150  0.51130  Biso   1.000  H
  H8       1.0000 0.61770  0.26010  0.46090  Biso   1.000  H
  C8       1.0000 0.40100  0.07900  0.36900  Biso   1.000  C
  H9       1.0000 0.51280  0.03820  0.36670  Biso   1.000  H
  C9       1.0000 0.37600  0.17500  0.29300  Biso   1.000  C
  C10      1.0000 0.26300  0.97000  0.34900  Biso   1.000  C
  H10      1.0000 0.29050  0.90340  0.39090  Biso   1.000  H
  H11      1.0000 0.25590  0.93160  0.28310  Biso   1.000  H
  H12      1.0000 0.15450  0.00740  0.36040  Biso   1.000  H
  C11      1.0000 0.18200  0.27000  0.65100  Biso   1.000  C
  H13      1.0000 0.24060  0.19090  0.64430  Biso   1.000  H
  C12      1.0000 0.12300  0.31000  0.73800  Biso   1.000  C
  H14      1.0000 0.14250  0.25960  0.78930  Biso   1.000  H
  C13      1.0000 0.03700  0.42400  0.74700  Biso   1.000  C
  H15      1.0000 0.99550  0.45140  0.80530  Biso   1.000  H
  C14      1.0000 0.00800  0.50200  0.67100  Biso   1.000  C
  C15      1.0000 0.92000  0.62300  0.67400  Biso   1.000  C
  H16      1.0000 0.87300  0.65400  0.72940  Biso   1.000  H
  C16      1.0000 0.90400  0.69400  0.59800  Biso   1.000  C
  H17      1.0000 0.84710  0.77420  0.60280  Biso   1.000  H
  C17      1.0000 0.97000  0.64900  0.51200  Biso   1.000  C
  C18      1.0000 0.96000  0.71600  0.43200  Biso   1.000  C
  H18      1.0000 0.90800  0.79780  0.43360  Biso   1.000  H
  C19      1.0000 0.02600  0.66500  0.35100  Biso   1.000  C
  H19      1.0000 0.01770  0.70980  0.29710  Biso   1.000  H
  C20      1.0000 0.10800  0.54100  0.35200  Biso   1.000  C
  H20      1.0000 0.15430  0.50640  0.29710  Biso   1.000  H
  C21      1.0000 0.05300  0.52700  0.50700  Biso   1.000  C
  C22      1.0000 0.07400  0.45400  0.58700  Biso   1.000  C
  Cu2      1.0000 0.66960  0.02860  0.17730  Biso   1.000  Cu
  O4       1.0000 0.91000  0.86500  0.09700  Biso   1.000  O
  H21      1.0000 0.84850  0.79850  0.08500  Biso   1.000  H
  O5       1.0000 0.79300  0.04600  0.30700  Biso   1.000  O
  O6       1.0000 0.96500  0.18200  0.41200  Biso   1.000  O
  N4       1.0000 0.83000  0.17800  0.16100  Biso   1.000  N
  H22      1.0000 0.77470  0.23230  0.12050  Biso   1.000  H
  N5       1.0000 0.54100  0.99200  0.04500  Biso   1.000  N
  N6       1.0000 0.56700  0.85300  0.19200  Biso   1.000  N
  C23      1.0000 0.91500  0.92300  0.01400  Biso   1.000  C
  C24      1.0000 0.87500  0.85200  0.92300  Biso   1.000  C
  H23      1.0000 0.84790  0.76220  0.91630  Biso   1.000  H
  C25      1.0000 0.87600  0.92000  0.84400  Biso   1.000  C
  H24      1.0000 0.84380  0.87550  0.78230  Biso   1.000  H
  C26      1.0000 0.92400  0.05100  0.85300  Biso   1.000  C
  H25      1.0000 0.92960  0.09340  0.79870  Biso   1.000  H
  C27      1.0000 0.96400  0.11800  0.94400  Biso   1.000  C
  H26      1.0000 0.99550  0.20730  0.95030  Biso   1.000  H
  C28      1.0000 0.95700  0.05500  0.02600  Biso   1.000  C
  C29      1.0000 0.99100  0.13000  0.12300  Biso   1.000  C
  H27      1.0000 0.06550  0.20550  0.12070  Biso   1.000  H
  H28      1.0000 0.05000  0.07420  0.16740  Biso   1.000  H
  C30      1.0000 0.87100  0.25100  0.25800  Biso   1.000  C
  H29      1.0000 0.98490  0.29270  0.26170  Biso   1.000  H
  C31      1.0000 0.87900  0.15400  0.33100  Biso   1.000  C
  C32      1.0000 0.74300  0.36000  0.27900  Biso   1.000  C
  H30      1.0000 0.75400  0.42800  0.23790  Biso   1.000  H
  H31      1.0000 0.76640  0.39680  0.34490  Biso   1.000  H
  H32      1.0000 0.62940  0.32290  0.26610  Biso   1.000  H
  C33      1.0000 0.52400  0.06400  0.97200  Biso   1.000  C
  H33      1.0000 0.57830  0.14660  0.98090  Biso   1.000  H
  C34      1.0000 0.42900  0.02400  0.88400  Biso   1.000  C
  H34      1.0000 0.41860  0.07890  0.83490  Biso   1.000  H
  C35      1.0000 0.35200  0.90100  0.87000  Biso   1.000  C
  H35      1.0000 0.29210  0.87030  0.80990  Biso   1.000  H
  C36      1.0000 0.36400  0.82300  0.94300  Biso   1.000  C
  C37      1.0000 0.28600  0.69400  0.93500  Biso   1.000  C
  H36      1.0000 0.22490  0.65860  0.87670  Biso   1.000  H
  C38      1.0000 0.30100  0.62300  0.00900  Biso   1.000  C
  H37      1.0000 0.24870  0.53990  0.00180  Biso   1.000  H
  C39      1.0000 0.39500  0.67200  0.10100  Biso   1.000  C
  C40      1.0000 0.41600  0.60500  0.18300  Biso   1.000  C
  H38      1.0000 0.36620  0.52190  0.18080  Biso   1.000  H
  C41      1.0000 0.50800  0.66100  0.26500  Biso   1.000  C
  H39      1.0000 0.52070  0.61640  0.31950  Biso   1.000  H
  C42      1.0000 0.58300  0.78500  0.26800  Biso   1.000  C
  H40      1.0000 0.64750  0.82200  0.32440  Biso   1.000  H
  C43      1.0000 0.47500  0.79600  0.11000  Biso   1.000  C
  C44      1.0000 0.45800  0.87300  0.03100  Biso   1.000  C
  Cl1      1.0000 0.44900  0.84470  0.58890  Biso   1.000  Cl
  O7       1.0000 0.54500  0.83100  0.67800  Biso   1.000  O
  O8       1.0000 0.36800  0.72400  0.54900  Biso   1.000  O
  O9       1.0000 0.55800  0.88400  0.52400  Biso   1.000  O
  O10      1.0000 0.32300  0.94300  0.59800  Biso   1.000  O
  Cl2      1.0000 0.84900  0.49220  0.04440  Biso   1.000  Cl
  O11      1.0000 0.78800  0.61400  0.08600  Biso   1.000  O
  O12      1.0000 0.98400  0.45900  0.11200  Biso   1.000  O
  O13      1.0000 0.71400  0.39500  0.03200  Biso   1.000  O
  O14      1.0000 0.90500  0.50700  0.95500  Biso   1.000  O
  O15      1.0000 0.95400  0.01800  0.56800  Biso   1.000  O
  H41      1.0000 0.94000  0.93000  0.53000  Biso   1.000  H
  H42      1.0000 0.97000  0.06000  0.51000  Biso   1.000  H
  O16      1.0000 0.36000  0.31000  0.05800  Biso   1.000  O
