data_image0
_cell_length_a       19.7
_cell_length_b       16.834
_cell_length_c       15.274
_cell_angle_alpha    90
_cell_angle_beta     119.073
_cell_angle_gamma    90

_symmetry_space_group_name_H-M    "P 1"
_symmetry_int_tables_number       1

loop_
  _symmetry_equiv_pos_as_xyz
  'x, y, z'

loop_
  _atom_site_label
  _atom_site_occupancy
  _atom_site_fract_x
  _atom_site_fract_y
  _atom_site_fract_z
  _atom_site_thermal_displace_type
  _atom_site_B_iso_or_equiv
  _atom_site_type_symbol
  Cu1      1.0000 0.00000  0.09913  0.75000  Biso   1.000  Cu
  Cu2      1.0000 0.50000  0.59913  0.75000  Biso   1.000  Cu
  Cu3      1.0000 0.00000  0.90087  0.25000  Biso   1.000  Cu
  Cu4      1.0000 0.50000  0.40087  0.25000  Biso   1.000  Cu
  Cu5      1.0000 0.75000  0.75000  0.50000  Biso   1.000  Cu
  Cu6      1.0000 0.25000  0.75000  0.00000  Biso   1.000  Cu
  Cu7      1.0000 0.25000  0.25000  0.50000  Biso   1.000  Cu
  Cu8      1.0000 0.75000  0.25000  0.00000  Biso   1.000  Cu
  F1       1.0000 0.00460  0.21820  0.02810  Biso   1.000  F
  F2       1.0000 0.99540  0.21820  0.47190  Biso   1.000  F
  F3       1.0000 0.50460  0.71820  0.02810  Biso   1.000  F
  F4       1.0000 0.49540  0.71820  0.47190  Biso   1.000  F
  F5       1.0000 0.99540  0.78180  0.97190  Biso   1.000  F
  F6       1.0000 0.00460  0.78180  0.52810  Biso   1.000  F
  F7       1.0000 0.49540  0.28180  0.97190  Biso   1.000  F
  F8       1.0000 0.50460  0.28180  0.52810  Biso   1.000  F
  F9       1.0000 0.03320  0.31380  0.97350  Biso   1.000  F
  F10      1.0000 0.96680  0.31380  0.52650  Biso   1.000  F
  F11      1.0000 0.53320  0.81380  0.97350  Biso   1.000  F
  F12      1.0000 0.46680  0.81380  0.52650  Biso   1.000  F
  F13      1.0000 0.96680  0.68620  0.02650  Biso   1.000  F
  F14      1.0000 0.03320  0.68620  0.47350  Biso   1.000  F
  F15      1.0000 0.46680  0.18620  0.02650  Biso   1.000  F
  F16      1.0000 0.53320  0.18620  0.47350  Biso   1.000  F
  F17      1.0000 0.11760  0.25300  0.09540  Biso   1.000  F
  F18      1.0000 0.88240  0.25300  0.40460  Biso   1.000  F
  F19      1.0000 0.61760  0.75300  0.09540  Biso   1.000  F
  F20      1.0000 0.38240  0.75300  0.40460  Biso   1.000  F
  F21      1.0000 0.88240  0.74700  0.90460  Biso   1.000  F
  F22      1.0000 0.11760  0.74700  0.59540  Biso   1.000  F
  F23      1.0000 0.38240  0.24700  0.90460  Biso   1.000  F
  F24      1.0000 0.61760  0.24700  0.59540  Biso   1.000  F
  F25      1.0000 0.29330  0.12650  0.02120  Biso   1.000  F
  F26      1.0000 0.70670  0.12650  0.47880  Biso   1.000  F
  F27      1.0000 0.79330  0.62650  0.02120  Biso   1.000  F
  F28      1.0000 0.20670  0.62650  0.47880  Biso   1.000  F
  F29      1.0000 0.70670  0.87350  0.97880  Biso   1.000  F
  F30      1.0000 0.29330  0.87350  0.52120  Biso   1.000  F
  F31      1.0000 0.20670  0.37350  0.97880  Biso   1.000  F
  F32      1.0000 0.79330  0.37350  0.52120  Biso   1.000  F
  F33      1.0000 0.26420  0.13440  0.87070  Biso   1.000  F
  F34      1.0000 0.73580  0.13440  0.62930  Biso   1.000  F
  F35      1.0000 0.76420  0.63440  0.87070  Biso   1.000  F
  F36      1.0000 0.23580  0.63440  0.62930  Biso   1.000  F
  F37      1.0000 0.73580  0.86560  0.12930  Biso   1.000  F
  F38      1.0000 0.26420  0.86560  0.37070  Biso   1.000  F
  F39      1.0000 0.23580  0.36560  0.12930  Biso   1.000  F
  F40      1.0000 0.76420  0.36560  0.37070  Biso   1.000  F
  F41      1.0000 0.25000  0.02790  0.92640  Biso   1.000  F
  F42      1.0000 0.75000  0.02790  0.57360  Biso   1.000  F
  F43      1.0000 0.75000  0.52790  0.92640  Biso   1.000  F
  F44      1.0000 0.25000  0.52790  0.57360  Biso   1.000  F
  F45      1.0000 0.75000  0.97210  0.07360  Biso   1.000  F
  F46      1.0000 0.25000  0.97210  0.42640  Biso   1.000  F
  F47      1.0000 0.25000  0.47210  0.07360  Biso   1.000  F
  F48      1.0000 0.75000  0.47210  0.42640  Biso   1.000  F
  F49      1.0000 0.90000  0.96120  0.51570  Biso   1.000  F
  F50      1.0000 0.10000  0.96120  0.98430  Biso   1.000  F
  F51      1.0000 0.40000  0.46120  0.51570  Biso   1.000  F
  F52      1.0000 0.60000  0.46120  0.98430  Biso   1.000  F
  F53      1.0000 0.10000  0.03880  0.48430  Biso   1.000  F
  F54      1.0000 0.90000  0.03880  0.01570  Biso   1.000  F
  F55      1.0000 0.60000  0.53880  0.48430  Biso   1.000  F
  F56      1.0000 0.40000  0.53880  0.01570  Biso   1.000  F
  F57      1.0000 0.88720  0.94700  0.37980  Biso   1.000  F
  F58      1.0000 0.11280  0.94700  0.12020  Biso   1.000  F
  F59      1.0000 0.38720  0.44700  0.37980  Biso   1.000  F
  F60      1.0000 0.61280  0.44700  0.12020  Biso   1.000  F
  F61      1.0000 0.11280  0.05300  0.62020  Biso   1.000  F
  F62      1.0000 0.88720  0.05300  0.87980  Biso   1.000  F
  F63      1.0000 0.61280  0.55300  0.62020  Biso   1.000  F
  F64      1.0000 0.38720  0.55300  0.87980  Biso   1.000  F
  F65      1.0000 0.80330  0.98950  0.40770  Biso   1.000  F
  F66      1.0000 0.19670  0.98950  0.09230  Biso   1.000  F
  F67      1.0000 0.30330  0.48950  0.40770  Biso   1.000  F
  F68      1.0000 0.69670  0.48950  0.09230  Biso   1.000  F
  F69      1.0000 0.19670  0.01050  0.59230  Biso   1.000  F
  F70      1.0000 0.80330  0.01050  0.90770  Biso   1.000  F
  F71      1.0000 0.69670  0.51050  0.59230  Biso   1.000  F
  F72      1.0000 0.30330  0.51050  0.90770  Biso   1.000  F
  F73      1.0000 0.85520  0.60710  0.34170  Biso   1.000  F
  F74      1.0000 0.14480  0.60710  0.15830  Biso   1.000  F
  F75      1.0000 0.35520  0.10710  0.34170  Biso   1.000  F
  F76      1.0000 0.64480  0.10710  0.15830  Biso   1.000  F
  F77      1.0000 0.14480  0.39290  0.65830  Biso   1.000  F
  F78      1.0000 0.85520  0.39290  0.84170  Biso   1.000  F
  F79      1.0000 0.64480  0.89290  0.65830  Biso   1.000  F
  F80      1.0000 0.35520  0.89290  0.84170  Biso   1.000  F
  F81      1.0000 0.83220  0.69140  0.23370  Biso   1.000  F
  F82      1.0000 0.16780  0.69140  0.26630  Biso   1.000  F
  F83      1.0000 0.33220  0.19140  0.23370  Biso   1.000  F
  F84      1.0000 0.66780  0.19140  0.26630  Biso   1.000  F
  F85      1.0000 0.16780  0.30860  0.76630  Biso   1.000  F
  F86      1.0000 0.83220  0.30860  0.73370  Biso   1.000  F
  F87      1.0000 0.66780  0.80860  0.76630  Biso   1.000  F
  F88      1.0000 0.33220  0.80860  0.73370  Biso   1.000  F
  F89      1.0000 0.74530  0.62630  0.23750  Biso   1.000  F
  F90      1.0000 0.25470  0.62630  0.26250  Biso   1.000  F
  F91      1.0000 0.24530  0.12630  0.23750  Biso   1.000  F
  F92      1.0000 0.75470  0.12630  0.26250  Biso   1.000  F
  F93      1.0000 0.25470  0.37370  0.76250  Biso   1.000  F
  F94      1.0000 0.74530  0.37370  0.73750  Biso   1.000  F
  F95      1.0000 0.75470  0.87370  0.76250  Biso   1.000  F
  F96      1.0000 0.24530  0.87370  0.73750  Biso   1.000  F
  N1       1.0000 0.93820  0.68090  0.69850  Biso   1.000  N
  N2       1.0000 0.06180  0.68090  0.80150  Biso   1.000  N
  N3       1.0000 0.43820  0.18090  0.69850  Biso   1.000  N
  N4       1.0000 0.56180  0.18090  0.80150  Biso   1.000  N
  N5       1.0000 0.06180  0.31910  0.30150  Biso   1.000  N
  N6       1.0000 0.93820  0.31910  0.19850  Biso   1.000  N
  N7       1.0000 0.56180  0.81910  0.30150  Biso   1.000  N
  N8       1.0000 0.43820  0.81910  0.19850  Biso   1.000  N
  N9       1.0000 0.00000  0.97950  0.75000  Biso   1.000  N
  N10      1.0000 0.50000  0.47950  0.75000  Biso   1.000  N
  N11      1.0000 0.00000  0.02050  0.25000  Biso   1.000  N
  N12      1.0000 0.50000  0.52050  0.25000  Biso   1.000  N
  O1       1.0000 0.87450  0.70400  0.64460  Biso   1.000  O
  O2       1.0000 0.12550  0.70400  0.85540  Biso   1.000  O
  O3       1.0000 0.37450  0.20400  0.64460  Biso   1.000  O
  O4       1.0000 0.62550  0.20400  0.85540  Biso   1.000  O
  O5       1.0000 0.12550  0.29600  0.35540  Biso   1.000  O
  O6       1.0000 0.87450  0.29600  0.14460  Biso   1.000  O
  O7       1.0000 0.62550  0.79600  0.35540  Biso   1.000  O
  O8       1.0000 0.37450  0.79600  0.14460  Biso   1.000  O
  O9       1.0000 0.00510  0.17450  0.85860  Biso   1.000  O
  O10      1.0000 0.99490  0.17450  0.64140  Biso   1.000  O
  O11      1.0000 0.50510  0.67450  0.85860  Biso   1.000  O
  O12      1.0000 0.49490  0.67450  0.64140  Biso   1.000  O
  O13      1.0000 0.99490  0.82550  0.14140  Biso   1.000  O
  O14      1.0000 0.00510  0.82550  0.35860  Biso   1.000  O
  O15      1.0000 0.49490  0.32550  0.14140  Biso   1.000  O
  O16      1.0000 0.50510  0.32550  0.35860  Biso   1.000  O
  O17      1.0000 0.11280  0.10090  0.81430  Biso   1.000  O
  O18      1.0000 0.88720  0.10090  0.68570  Biso   1.000  O
  O19      1.0000 0.61280  0.60090  0.81430  Biso   1.000  O
  O20      1.0000 0.38720  0.60090  0.68570  Biso   1.000  O
  O21      1.0000 0.88720  0.89910  0.18570  Biso   1.000  O
  O22      1.0000 0.11280  0.89910  0.31430  Biso   1.000  O
  O23      1.0000 0.38720  0.39910  0.18570  Biso   1.000  O
  O24      1.0000 0.61280  0.39910  0.31430  Biso   1.000  O
  O25      1.0000 0.79790  0.84440  0.48670  Biso   1.000  O
  O26      1.0000 0.20210  0.84440  0.01330  Biso   1.000  O
  O27      1.0000 0.29790  0.34440  0.48670  Biso   1.000  O
  O28      1.0000 0.70210  0.34440  0.01330  Biso   1.000  O
  O29      1.0000 0.20210  0.15560  0.51330  Biso   1.000  O
  O30      1.0000 0.79790  0.15560  0.98670  Biso   1.000  O
  O31      1.0000 0.70210  0.65560  0.51330  Biso   1.000  O
  O32      1.0000 0.29790  0.65560  0.98670  Biso   1.000  O
  O33      1.0000 0.76890  0.69290  0.40640  Biso   1.000  O
  O34      1.0000 0.23110  0.69290  0.09360  Biso   1.000  O
  O35      1.0000 0.26890  0.19290  0.40640  Biso   1.000  O
  O36      1.0000 0.73110  0.19290  0.09360  Biso   1.000  O
  O37      1.0000 0.23110  0.30710  0.59360  Biso   1.000  O
  O38      1.0000 0.76890  0.30710  0.90640  Biso   1.000  O
  O39      1.0000 0.73110  0.80710  0.59360  Biso   1.000  O
  O40      1.0000 0.26890  0.80710  0.90640  Biso   1.000  O
  C1       1.0000 0.93710  0.93740  0.73720  Biso   1.000  C
  C2       1.0000 0.06290  0.93740  0.76280  Biso   1.000  C
  C3       1.0000 0.43710  0.43740  0.73720  Biso   1.000  C
  C4       1.0000 0.56290  0.43740  0.76280  Biso   1.000  C
  C5       1.0000 0.06290  0.06260  0.26280  Biso   1.000  C
  C6       1.0000 0.93710  0.06260  0.23720  Biso   1.000  C
  C7       1.0000 0.56290  0.56260  0.26280  Biso   1.000  C
  C8       1.0000 0.43710  0.56260  0.23720  Biso   1.000  C
  H1       1.0000 0.89260  0.96450  0.72660  Biso   1.000  H
  H2       1.0000 0.10740  0.96450  0.77340  Biso   1.000  H
  H3       1.0000 0.39260  0.46450  0.72660  Biso   1.000  H
  H4       1.0000 0.60740  0.46450  0.77340  Biso   1.000  H
  H5       1.0000 0.10740  0.03550  0.27340  Biso   1.000  H
  H6       1.0000 0.89260  0.03550  0.22660  Biso   1.000  H
  H7       1.0000 0.60740  0.53550  0.27340  Biso   1.000  H
  H8       1.0000 0.39260  0.53550  0.22660  Biso   1.000  H
  C9       1.0000 0.93740  0.85720  0.73940  Biso   1.000  C
  C10      1.0000 0.06260  0.85720  0.76060  Biso   1.000  C
  C11      1.0000 0.43740  0.35720  0.73940  Biso   1.000  C
  C12      1.0000 0.56260  0.35720  0.76060  Biso   1.000  C
  C13      1.0000 0.06260  0.14280  0.26060  Biso   1.000  C
  C14      1.0000 0.93740  0.14280  0.23940  Biso   1.000  C
  C15      1.0000 0.56260  0.64280  0.26060  Biso   1.000  C
  C16      1.0000 0.43740  0.64280  0.23940  Biso   1.000  C
  H9       1.0000 0.89420  0.83020  0.73370  Biso   1.000  H
  H10      1.0000 0.10580  0.83020  0.76630  Biso   1.000  H
  H11      1.0000 0.39420  0.33020  0.73370  Biso   1.000  H
  H12      1.0000 0.60580  0.33020  0.76630  Biso   1.000  H
  H13      1.0000 0.10580  0.16980  0.26630  Biso   1.000  H
  H14      1.0000 0.89420  0.16980  0.23370  Biso   1.000  H
  H15      1.0000 0.60580  0.66980  0.26630  Biso   1.000  H
  H16      1.0000 0.39420  0.66980  0.23370  Biso   1.000  H
  C17      1.0000 0.00000  0.81520  0.75000  Biso   1.000  C
  C18      1.0000 0.50000  0.31520  0.75000  Biso   1.000  C
  C19      1.0000 0.00000  0.18480  0.25000  Biso   1.000  C
  C20      1.0000 0.50000  0.68480  0.25000  Biso   1.000  C
  C21      1.0000 0.00000  0.72610  0.75000  Biso   1.000  C
  C22      1.0000 0.50000  0.22610  0.75000  Biso   1.000  C
  C23      1.0000 0.00000  0.27390  0.25000  Biso   1.000  C
  C24      1.0000 0.50000  0.77390  0.25000  Biso   1.000  C
  C25      1.0000 0.95730  0.59850  0.71850  Biso   1.000  C
  C26      1.0000 0.04270  0.59850  0.78150  Biso   1.000  C
  C27      1.0000 0.45730  0.09850  0.71850  Biso   1.000  C
  C28      1.0000 0.54270  0.09850  0.78150  Biso   1.000  C
  C29      1.0000 0.04270  0.40150  0.28150  Biso   1.000  C
  C30      1.0000 0.95730  0.40150  0.21850  Biso   1.000  C
  C31      1.0000 0.54270  0.90150  0.28150  Biso   1.000  C
  C32      1.0000 0.45730  0.90150  0.21850  Biso   1.000  C
  C33      1.0000 0.90880  0.56570  0.75880  Biso   1.000  C
  C34      1.0000 0.09120  0.56570  0.74120  Biso   1.000  C
  C35      1.0000 0.40880  0.06570  0.75880  Biso   1.000  C
  C36      1.0000 0.59120  0.06570  0.74120  Biso   1.000  C
  C37      1.0000 0.09120  0.43430  0.24120  Biso   1.000  C
  C38      1.0000 0.90880  0.43430  0.25880  Biso   1.000  C
  C39      1.0000 0.59120  0.93430  0.24120  Biso   1.000  C
  C40      1.0000 0.40880  0.93430  0.25880  Biso   1.000  C
  H17      1.0000 0.93590  0.57030  0.83050  Biso   1.000  H
  H18      1.0000 0.06410  0.57030  0.66950  Biso   1.000  H
  H19      1.0000 0.43590  0.07030  0.83050  Biso   1.000  H
  H20      1.0000 0.56410  0.07030  0.66950  Biso   1.000  H
  H21      1.0000 0.06410  0.42970  0.16950  Biso   1.000  H
  H22      1.0000 0.93590  0.42970  0.33050  Biso   1.000  H
  H23      1.0000 0.56410  0.92970  0.16950  Biso   1.000  H
  H24      1.0000 0.43590  0.92970  0.33050  Biso   1.000  H
  H25      1.0000 0.89810  0.51080  0.74040  Biso   1.000  H
  H26      1.0000 0.10190  0.51080  0.75960  Biso   1.000  H
  H27      1.0000 0.39810  0.01080  0.74040  Biso   1.000  H
  H28      1.0000 0.60190  0.01080  0.75960  Biso   1.000  H
  H29      1.0000 0.10190  0.48920  0.25960  Biso   1.000  H
  H30      1.0000 0.89810  0.48920  0.24040  Biso   1.000  H
  H31      1.0000 0.60190  0.98920  0.25960  Biso   1.000  H
  H32      1.0000 0.39810  0.98920  0.24040  Biso   1.000  H
  H33      1.0000 0.86090  0.59470  0.73190  Biso   1.000  H
  H34      1.0000 0.13910  0.59470  0.76810  Biso   1.000  H
  H35      1.0000 0.36090  0.09470  0.73190  Biso   1.000  H
  H36      1.0000 0.63910  0.09470  0.76810  Biso   1.000  H
  H37      1.0000 0.13910  0.40530  0.26810  Biso   1.000  H
  H38      1.0000 0.86090  0.40530  0.23190  Biso   1.000  H
  H39      1.0000 0.63910  0.90530  0.26810  Biso   1.000  H
  H40      1.0000 0.36090  0.90530  0.23190  Biso   1.000  H
  C41      1.0000 0.93050  0.56450  0.61130  Biso   1.000  C
  C42      1.0000 0.06950  0.56450  0.88870  Biso   1.000  C
  C43      1.0000 0.43050  0.06450  0.61130  Biso   1.000  C
  C44      1.0000 0.56950  0.06450  0.88870  Biso   1.000  C
  C45      1.0000 0.06950  0.43550  0.38870  Biso   1.000  C
  C46      1.0000 0.93050  0.43550  0.11130  Biso   1.000  C
  C47      1.0000 0.56950  0.93550  0.38870  Biso   1.000  C
  C48      1.0000 0.43050  0.93550  0.11130  Biso   1.000  C
  H41      1.0000 0.88080  0.53910  0.58690  Biso   1.000  H
  H42      1.0000 0.11920  0.53910  0.91310  Biso   1.000  H
  H43      1.0000 0.38080  0.03910  0.58690  Biso   1.000  H
  H44      1.0000 0.61920  0.03910  0.91310  Biso   1.000  H
  H45      1.0000 0.11920  0.46090  0.41310  Biso   1.000  H
  H46      1.0000 0.88080  0.46090  0.08690  Biso   1.000  H
  H47      1.0000 0.61920  0.96090  0.41310  Biso   1.000  H
  H48      1.0000 0.38080  0.96090  0.08690  Biso   1.000  H
  H49      1.0000 0.96780  0.52640  0.61430  Biso   1.000  H
  H50      1.0000 0.03220  0.52640  0.88570  Biso   1.000  H
  H51      1.0000 0.46780  0.02640  0.61430  Biso   1.000  H
  H52      1.0000 0.53220  0.02640  0.88570  Biso   1.000  H
  H53      1.0000 0.03220  0.47360  0.38570  Biso   1.000  H
  H54      1.0000 0.96780  0.47360  0.11430  Biso   1.000  H
  H55      1.0000 0.53220  0.97360  0.38570  Biso   1.000  H
  H56      1.0000 0.46780  0.97360  0.11430  Biso   1.000  H
  H57      1.0000 0.92620  0.60700  0.56710  Biso   1.000  H
  H58      1.0000 0.07380  0.60700  0.93290  Biso   1.000  H
  H59      1.0000 0.42620  0.10700  0.56710  Biso   1.000  H
  H60      1.0000 0.57380  0.10700  0.93290  Biso   1.000  H
  H61      1.0000 0.07380  0.39300  0.43290  Biso   1.000  H
  H62      1.0000 0.92620  0.39300  0.06710  Biso   1.000  H
  H63      1.0000 0.57380  0.89300  0.43290  Biso   1.000  H
  H64      1.0000 0.42620  0.89300  0.06710  Biso   1.000  H
  C49      1.0000 0.05700  0.24570  0.00840  Biso   1.000  C
  C50      1.0000 0.94300  0.24570  0.49160  Biso   1.000  C
  C51      1.0000 0.55700  0.74570  0.00840  Biso   1.000  C
  C52      1.0000 0.44300  0.74570  0.49160  Biso   1.000  C
  C53      1.0000 0.94300  0.75430  0.99160  Biso   1.000  C
  C54      1.0000 0.05700  0.75430  0.50840  Biso   1.000  C
  C55      1.0000 0.44300  0.25430  0.99160  Biso   1.000  C
  C56      1.0000 0.55700  0.25430  0.50840  Biso   1.000  C
  C57      1.0000 0.06620  0.19110  0.93340  Biso   1.000  C
  C58      1.0000 0.93380  0.19110  0.56660  Biso   1.000  C
  C59      1.0000 0.56620  0.69110  0.93340  Biso   1.000  C
  C60      1.0000 0.43380  0.69110  0.56660  Biso   1.000  C
  C61      1.0000 0.93380  0.80890  0.06660  Biso   1.000  C
  C62      1.0000 0.06620  0.80890  0.43340  Biso   1.000  C
  C63      1.0000 0.43380  0.30890  0.06660  Biso   1.000  C
  C64      1.0000 0.56620  0.30890  0.43340  Biso   1.000  C
  C65      1.0000 0.14180  0.16950  0.96120  Biso   1.000  C
  C66      1.0000 0.85820  0.16950  0.53880  Biso   1.000  C
  C67      1.0000 0.64180  0.66950  0.96120  Biso   1.000  C
  C68      1.0000 0.35820  0.66950  0.53880  Biso   1.000  C
  C69      1.0000 0.85820  0.83050  0.03880  Biso   1.000  C
  C70      1.0000 0.14180  0.83050  0.46120  Biso   1.000  C
  C71      1.0000 0.35820  0.33050  0.03880  Biso   1.000  C
  C72      1.0000 0.64180  0.33050  0.46120  Biso   1.000  C
  H65      1.0000 0.18170  0.18520  0.02340  Biso   1.000  H
  H66      1.0000 0.81830  0.18520  0.47660  Biso   1.000  H
  H67      1.0000 0.68170  0.68520  0.02340  Biso   1.000  H
  H68      1.0000 0.31830  0.68520  0.47660  Biso   1.000  H
  H69      1.0000 0.81830  0.81480  0.97660  Biso   1.000  H
  H70      1.0000 0.18170  0.81480  0.52340  Biso   1.000  H
  H71      1.0000 0.31830  0.31480  0.97660  Biso   1.000  H
  H72      1.0000 0.68170  0.31480  0.52340  Biso   1.000  H
  C73      1.0000 0.15880  0.12600  0.89960  Biso   1.000  C
  C74      1.0000 0.84120  0.12600  0.60040  Biso   1.000  C
  C75      1.0000 0.65880  0.62600  0.89960  Biso   1.000  C
  C76      1.0000 0.34120  0.62600  0.60040  Biso   1.000  C
  C77      1.0000 0.84120  0.87400  0.10040  Biso   1.000  C
  C78      1.0000 0.15880  0.87400  0.39960  Biso   1.000  C
  C79      1.0000 0.34120  0.37400  0.10040  Biso   1.000  C
  C80      1.0000 0.65880  0.37400  0.39960  Biso   1.000  C
  C81      1.0000 0.24180  0.10400  0.92970  Biso   1.000  C
  C82      1.0000 0.75820  0.10400  0.57030  Biso   1.000  C
  C83      1.0000 0.74180  0.60400  0.92970  Biso   1.000  C
  C84      1.0000 0.25820  0.60400  0.57030  Biso   1.000  C
  C85      1.0000 0.75820  0.89600  0.07030  Biso   1.000  C
  C86      1.0000 0.24180  0.89600  0.42970  Biso   1.000  C
  C87      1.0000 0.25820  0.39600  0.07030  Biso   1.000  C
  C88      1.0000 0.74180  0.39600  0.42970  Biso   1.000  C
  C89      1.0000 0.85190  0.93590  0.42360  Biso   1.000  C
  C90      1.0000 0.14810  0.93590  0.07640  Biso   1.000  C
  C91      1.0000 0.35190  0.43590  0.42360  Biso   1.000  C
  C92      1.0000 0.64810  0.43590  0.07640  Biso   1.000  C
  C93      1.0000 0.14810  0.06410  0.57640  Biso   1.000  C
  C94      1.0000 0.85190  0.06410  0.92360  Biso   1.000  C
  C95      1.0000 0.64810  0.56410  0.57640  Biso   1.000  C
  C96      1.0000 0.35190  0.56410  0.92360  Biso   1.000  C
  C97      1.0000 0.82520  0.85260  0.43080  Biso   1.000  C
  C98      1.0000 0.17480  0.85260  0.06920  Biso   1.000  C
  C99      1.0000 0.32520  0.35260  0.43080  Biso   1.000  C
  C100     1.0000 0.67480  0.35260  0.06920  Biso   1.000  C
  C101     1.0000 0.17480  0.14740  0.56920  Biso   1.000  C
  C102     1.0000 0.82520  0.14740  0.93080  Biso   1.000  C
  C103     1.0000 0.67480  0.64740  0.56920  Biso   1.000  C
  C104     1.0000 0.32520  0.64740  0.93080  Biso   1.000  C
  C105     1.0000 0.82740  0.79770  0.36420  Biso   1.000  C
  C106     1.0000 0.17260  0.79770  0.13580  Biso   1.000  C
  C107     1.0000 0.32740  0.29770  0.36420  Biso   1.000  C
  C108     1.0000 0.67260  0.29770  0.13580  Biso   1.000  C
  C109     1.0000 0.17260  0.20230  0.63580  Biso   1.000  C
  C110     1.0000 0.82740  0.20230  0.86420  Biso   1.000  C
  C111     1.0000 0.67260  0.70230  0.63580  Biso   1.000  C
  C112     1.0000 0.32740  0.70230  0.86420  Biso   1.000  C
  H73      1.0000 0.84640  0.81270  0.32150  Biso   1.000  H
  H74      1.0000 0.15360  0.81270  0.17850  Biso   1.000  H
  H75      1.0000 0.34640  0.31270  0.32150  Biso   1.000  H
  H76      1.0000 0.65360  0.31270  0.17850  Biso   1.000  H
  H77      1.0000 0.15360  0.18730  0.67850  Biso   1.000  H
  H78      1.0000 0.84640  0.18730  0.82150  Biso   1.000  H
  H79      1.0000 0.65360  0.68730  0.67850  Biso   1.000  H
  H80      1.0000 0.34640  0.68730  0.82150  Biso   1.000  H
  C113     1.0000 0.80230  0.72330  0.36140  Biso   1.000  C
  C114     1.0000 0.19770  0.72330  0.13860  Biso   1.000  C
  C115     1.0000 0.30230  0.22330  0.36140  Biso   1.000  C
  C116     1.0000 0.69770  0.22330  0.13860  Biso   1.000  C
  C117     1.0000 0.19770  0.27670  0.63860  Biso   1.000  C
  C118     1.0000 0.80230  0.27670  0.86140  Biso   1.000  C
  C119     1.0000 0.69770  0.77670  0.63860  Biso   1.000  C
  C120     1.0000 0.30230  0.77670  0.86140  Biso   1.000  C
  C121     1.0000 0.80590  0.66290  0.28880  Biso   1.000  C
  C122     1.0000 0.19410  0.66290  0.21120  Biso   1.000  C
  C123     1.0000 0.30590  0.16290  0.28880  Biso   1.000  C
  C124     1.0000 0.69410  0.16290  0.21120  Biso   1.000  C
  C125     1.0000 0.19410  0.33710  0.71120  Biso   1.000  C
  C126     1.0000 0.80590  0.33710  0.78880  Biso   1.000  C
  C127     1.0000 0.69410  0.83710  0.71120  Biso   1.000  C
  C128     1.0000 0.30590  0.83710  0.78880  Biso   1.000  C
