data_image0
_cell_length_a       24.2377
_cell_length_b       7.0235
_cell_length_c       11.9725
_cell_angle_alpha    90
_cell_angle_beta     93.363
_cell_angle_gamma    90

_symmetry_space_group_name_H-M    "P 1"
_symmetry_int_tables_number       1

loop_
  _symmetry_equiv_pos_as_xyz
  'x, y, z'

loop_
  _atom_site_label
  _atom_site_occupancy
  _atom_site_fract_x
  _atom_site_fract_y
  _atom_site_fract_z
  _atom_site_thermal_displace_type
  _atom_site_B_iso_or_equiv
  _atom_site_type_symbol
  Cu1      1.0000 0.39560  0.00000  0.42550  Biso   1.000  Cu
  Cu2      1.0000 0.60440  0.00000  0.57450  Biso   1.000  Cu
  Cu3      1.0000 0.89560  0.50000  0.42550  Biso   1.000  Cu
  Cu4      1.0000 0.10440  0.50000  0.57450  Biso   1.000  Cu
  V1       1.0000 0.55530  0.50000  0.29150  Biso   1.000  V
  V2       1.0000 0.44470  0.50000  0.70850  Biso   1.000  V
  V3       1.0000 0.05530  0.00000  0.29150  Biso   1.000  V
  V4       1.0000 0.94470  0.00000  0.70850  Biso   1.000  V
  V5       1.0000 0.43610  0.75910  0.90920  Biso   1.000  V
  V6       1.0000 0.56390  0.75910  0.09080  Biso   1.000  V
  V7       1.0000 0.93610  0.25910  0.90920  Biso   1.000  V
  V8       1.0000 0.06390  0.25910  0.09080  Biso   1.000  V
  V9       1.0000 0.56390  0.24090  0.09080  Biso   1.000  V
  V10      1.0000 0.43610  0.24090  0.90920  Biso   1.000  V
  V11      1.0000 0.06390  0.74090  0.09080  Biso   1.000  V
  V12      1.0000 0.93610  0.74090  0.90920  Biso   1.000  V
  V13      1.0000 0.42830  0.50000  0.13050  Biso   1.000  V
  V14      1.0000 0.57170  0.50000  0.86950  Biso   1.000  V
  V15      1.0000 0.92830  0.00000  0.13050  Biso   1.000  V
  V16      1.0000 0.07170  0.00000  0.86950  Biso   1.000  V
  V17      1.0000 0.44160  0.50000  0.42220  Biso   1.000  V
  V18      1.0000 0.55840  0.50000  0.57780  Biso   1.000  V
  V19      1.0000 0.94160  0.00000  0.42220  Biso   1.000  V
  V20      1.0000 0.05840  0.00000  0.57780  Biso   1.000  V
  V21      1.0000 0.47510  0.00000  0.69090  Biso   1.000  V
  V22      1.0000 0.52490  0.00000  0.30910  Biso   1.000  V
  V23      1.0000 0.97510  0.50000  0.69090  Biso   1.000  V
  V24      1.0000 0.02490  0.50000  0.30910  Biso   1.000  V
  O1       1.0000 0.52620  0.50000  0.42390  Biso   1.000  O
  O2       1.0000 0.47380  0.50000  0.57610  Biso   1.000  O
  O3       1.0000 0.02620  0.00000  0.42390  Biso   1.000  O
  O4       1.0000 0.97380  0.00000  0.57610  Biso   1.000  O
  O5       1.0000 0.61960  0.50000  0.32420  Biso   1.000  O
  O6       1.0000 0.38040  0.50000  0.67580  Biso   1.000  O
  O7       1.0000 0.11960  0.00000  0.32420  Biso   1.000  O
  O8       1.0000 0.88040  0.00000  0.67580  Biso   1.000  O
  O9       1.0000 0.37070  0.77680  0.89620  Biso   1.000  O
  O10      1.0000 0.62930  0.77680  0.10380  Biso   1.000  O
  O11      1.0000 0.87070  0.27680  0.89620  Biso   1.000  O
  O12      1.0000 0.12930  0.27680  0.10380  Biso   1.000  O
  O13      1.0000 0.62930  0.22320  0.10380  Biso   1.000  O
  O14      1.0000 0.37070  0.22320  0.89620  Biso   1.000  O
  O15      1.0000 0.12930  0.72320  0.10380  Biso   1.000  O
  O16      1.0000 0.87070  0.72320  0.89620  Biso   1.000  O
  O17      1.0000 0.46180  0.00000  0.90420  Biso   1.000  O
  O18      1.0000 0.53820  0.00000  0.09580  Biso   1.000  O
  O19      1.0000 0.96180  0.50000  0.90420  Biso   1.000  O
  O20      1.0000 0.03820  0.50000  0.09580  Biso   1.000  O
  O21      1.0000 0.45050  0.70630  0.05590  Biso   1.000  O
  O22      1.0000 0.54950  0.70630  0.94410  Biso   1.000  O
  O23      1.0000 0.95050  0.20630  0.05590  Biso   1.000  O
  O24      1.0000 0.04950  0.20630  0.94410  Biso   1.000  O
  O25      1.0000 0.54950  0.29370  0.94410  Biso   1.000  O
  O26      1.0000 0.45050  0.29370  0.05590  Biso   1.000  O
  O27      1.0000 0.04950  0.79370  0.94410  Biso   1.000  O
  O28      1.0000 0.95050  0.79370  0.05590  Biso   1.000  O
  O29      1.0000 0.36270  0.50000  0.13010  Biso   1.000  O
  O30      1.0000 0.63730  0.50000  0.86990  Biso   1.000  O
  O31      1.0000 0.86270  0.00000  0.13010  Biso   1.000  O
  O32      1.0000 0.13730  0.00000  0.86990  Biso   1.000  O
  O33      1.0000 0.55000  0.50000  0.12900  Biso   1.000  O
  O34      1.0000 0.45000  0.50000  0.87100  Biso   1.000  O
  O35      1.0000 0.05000  0.00000  0.12900  Biso   1.000  O
  O36      1.0000 0.95000  0.00000  0.87100  Biso   1.000  O
  O37      1.0000 0.45440  0.76700  0.74660  Biso   1.000  O
  O38      1.0000 0.54560  0.76700  0.25340  Biso   1.000  O
  O39      1.0000 0.95440  0.26700  0.74660  Biso   1.000  O
  O40      1.0000 0.04560  0.26700  0.25340  Biso   1.000  O
  O41      1.0000 0.54560  0.23300  0.25340  Biso   1.000  O
  O42      1.0000 0.45440  0.23300  0.74660  Biso   1.000  O
  O43      1.0000 0.04560  0.73300  0.25340  Biso   1.000  O
  O44      1.0000 0.95440  0.73300  0.74660  Biso   1.000  O
  O45      1.0000 0.44550  0.00000  0.56440  Biso   1.000  O
  O46      1.0000 0.55450  0.00000  0.43560  Biso   1.000  O
  O47      1.0000 0.94550  0.50000  0.56440  Biso   1.000  O
  O48      1.0000 0.05450  0.50000  0.43560  Biso   1.000  O
  O49      1.0000 0.45670  0.50000  0.26470  Biso   1.000  O
  O50      1.0000 0.54330  0.50000  0.73530  Biso   1.000  O
  O51      1.0000 0.95670  0.00000  0.26470  Biso   1.000  O
  O52      1.0000 0.04330  0.00000  0.73530  Biso   1.000  O
  O53      1.0000 0.40150  0.31620  0.42850  Biso   1.000  O
  O54      1.0000 0.59850  0.31620  0.57150  Biso   1.000  O
  O55      1.0000 0.90150  0.81620  0.42850  Biso   1.000  O
  O56      1.0000 0.09850  0.81620  0.57150  Biso   1.000  O
  O57      1.0000 0.59850  0.68380  0.57150  Biso   1.000  O
  O58      1.0000 0.40150  0.68380  0.42850  Biso   1.000  O
  O59      1.0000 0.09850  0.18380  0.57150  Biso   1.000  O
  O60      1.0000 0.90150  0.18380  0.42850  Biso   1.000  O
  O61      1.0000 0.45760  0.00000  0.32350  Biso   1.000  O
  O62      1.0000 0.54240  0.00000  0.67650  Biso   1.000  O
  O63      1.0000 0.95760  0.50000  0.32350  Biso   1.000  O
  O64      1.0000 0.04240  0.50000  0.67650  Biso   1.000  O
  N1       1.0000 0.34000  0.00000  0.29730  Biso   1.000  N
  N2       1.0000 0.66000  0.00000  0.70270  Biso   1.000  N
  N3       1.0000 0.84000  0.50000  0.29730  Biso   1.000  N
  N4       1.0000 0.16000  0.50000  0.70270  Biso   1.000  N
  N5       1.0000 0.32720  0.00000  0.51190  Biso   1.000  N
  N6       1.0000 0.67280  0.00000  0.48810  Biso   1.000  N
  N7       1.0000 0.82720  0.50000  0.51190  Biso   1.000  N
  N8       1.0000 0.17280  0.50000  0.48810  Biso   1.000  N
  C1       1.0000 0.35010  0.00000  0.18850  Biso   1.000  C
  C2       1.0000 0.64990  0.00000  0.81150  Biso   1.000  C
  C3       1.0000 0.85010  0.50000  0.18850  Biso   1.000  C
  C4       1.0000 0.14990  0.50000  0.81150  Biso   1.000  C
  C5       1.0000 0.30810  0.00000  0.10430  Biso   1.000  C
  C6       1.0000 0.69190  0.00000  0.89570  Biso   1.000  C
  C7       1.0000 0.80810  0.50000  0.10430  Biso   1.000  C
  C8       1.0000 0.19190  0.50000  0.89570  Biso   1.000  C
  C9       1.0000 0.25430  0.00000  0.13190  Biso   1.000  C
  C10      1.0000 0.74570  0.00000  0.86810  Biso   1.000  C
  C11      1.0000 0.75430  0.50000  0.13190  Biso   1.000  C
  C12      1.0000 0.24570  0.50000  0.86810  Biso   1.000  C
  C13      1.0000 0.24330  0.00000  0.24450  Biso   1.000  C
  C14      1.0000 0.75670  0.00000  0.75550  Biso   1.000  C
  C15      1.0000 0.74330  0.50000  0.24450  Biso   1.000  C
  C16      1.0000 0.25670  0.50000  0.75550  Biso   1.000  C
  C17      1.0000 0.28640  0.00000  0.32540  Biso   1.000  C
  C18      1.0000 0.71360  0.00000  0.67460  Biso   1.000  C
  C19      1.0000 0.78640  0.50000  0.32540  Biso   1.000  C
  C20      1.0000 0.21360  0.50000  0.67460  Biso   1.000  C
  C21      1.0000 0.27920  0.00000  0.44750  Biso   1.000  C
  C22      1.0000 0.72080  0.00000  0.55250  Biso   1.000  C
  C23      1.0000 0.77920  0.50000  0.44750  Biso   1.000  C
  C24      1.0000 0.22080  0.50000  0.55250  Biso   1.000  C
  C25      1.0000 0.22840  0.00000  0.49460  Biso   1.000  C
  C26      1.0000 0.77160  0.00000  0.50540  Biso   1.000  C
  C27      1.0000 0.72840  0.50000  0.49460  Biso   1.000  C
  C28      1.0000 0.27160  0.50000  0.50540  Biso   1.000  C
  C29      1.0000 0.22610  0.00000  0.60970  Biso   1.000  C
  C30      1.0000 0.77390  0.00000  0.39030  Biso   1.000  C
  C31      1.0000 0.72610  0.50000  0.60970  Biso   1.000  C
  C32      1.0000 0.27390  0.50000  0.39030  Biso   1.000  C
  C33      1.0000 0.27510  0.00000  0.67560  Biso   1.000  C
  C34      1.0000 0.72490  0.00000  0.32440  Biso   1.000  C
  C35      1.0000 0.77510  0.50000  0.67560  Biso   1.000  C
  C36      1.0000 0.22490  0.50000  0.32440  Biso   1.000  C
  C37      1.0000 0.32450  0.00000  0.62340  Biso   1.000  C
  C38      1.0000 0.67550  0.00000  0.37660  Biso   1.000  C
  C39      1.0000 0.82450  0.50000  0.62340  Biso   1.000  C
  C40      1.0000 0.17550  0.50000  0.37660  Biso   1.000  C
