data_image0
_cell_length_a       11.9024
_cell_length_b       6.0183
_cell_length_c       14.8927
_cell_angle_alpha    90
_cell_angle_beta     110.524
_cell_angle_gamma    90

_symmetry_space_group_name_H-M    "P 1"
_symmetry_int_tables_number       1

loop_
  _symmetry_equiv_pos_as_xyz
  'x, y, z'

loop_
  _atom_site_label
  _atom_site_occupancy
  _atom_site_fract_x
  _atom_site_fract_y
  _atom_site_fract_z
  _atom_site_thermal_displace_type
  _atom_site_B_iso_or_equiv
  _atom_site_type_symbol
  Cu1      1.0000 0.00000  0.00000  0.00000  Biso   1.000  Cu
  Cu2      1.0000 0.50000  0.50000  0.50000  Biso   1.000  Cu
  N1       1.0000 0.03130  0.18140  0.11870  Biso   1.000  N
  N2       1.0000 0.46870  0.68140  0.38130  Biso   1.000  N
  N3       1.0000 0.96870  0.81860  0.88130  Biso   1.000  N
  N4       1.0000 0.53130  0.31860  0.61870  Biso   1.000  N
  N5       1.0000 0.84450  0.86040  0.98840  Biso   1.000  N
  N6       1.0000 0.65550  0.36040  0.51160  Biso   1.000  N
  N7       1.0000 0.15550  0.13960  0.01160  Biso   1.000  N
  N8       1.0000 0.34450  0.63960  0.48840  Biso   1.000  N
  N9       1.0000 0.95400  0.29340  0.13160  Biso   1.000  N
  N10      1.0000 0.54600  0.79340  0.36840  Biso   1.000  N
  N11      1.0000 0.04600  0.70660  0.86840  Biso   1.000  N
  N12      1.0000 0.45400  0.20660  0.63160  Biso   1.000  N
  Cu3      1.0000 0.19720  0.29431  0.13750  Biso   1.000  Cu
  Cu4      1.0000 0.30280  0.79431  0.36250  Biso   1.000  Cu
  Cu5      1.0000 0.80280  0.70569  0.86250  Biso   1.000  Cu
  Cu6      1.0000 0.69720  0.20569  0.63750  Biso   1.000  Cu
  N13      1.0000 0.77590  0.90250  0.03030  Biso   1.000  N
  N14      1.0000 0.72410  0.40250  0.46970  Biso   1.000  N
  N15      1.0000 0.22410  0.09750  0.96970  Biso   1.000  N
  N16      1.0000 0.27590  0.59750  0.53030  Biso   1.000  N
  N17      1.0000 0.88140  0.39660  0.14540  Biso   1.000  N
  N18      1.0000 0.61860  0.89660  0.35460  Biso   1.000  N
  N19      1.0000 0.11860  0.60340  0.85460  Biso   1.000  N
  N20      1.0000 0.38140  0.10340  0.64540  Biso   1.000  N
  N21      1.0000 0.12470  0.68090  0.10290  Biso   1.000  N
  N22      1.0000 0.37530  0.18090  0.39710  Biso   1.000  N
  N23      1.0000 0.87530  0.31910  0.89710  Biso   1.000  N
  N24      1.0000 0.62470  0.81910  0.60290  Biso   1.000  N
  N25      1.0000 0.35990  0.38120  0.14010  Biso   1.000  N
  N26      1.0000 0.14010  0.88120  0.35990  Biso   1.000  N
  N27      1.0000 0.64010  0.61880  0.85990  Biso   1.000  N
  N28      1.0000 0.85990  0.11880  0.64010  Biso   1.000  N
  N29      1.0000 0.23320  0.38530  0.27530  Biso   1.000  N
  N30      1.0000 0.26680  0.88530  0.22470  Biso   1.000  N
  N31      1.0000 0.76680  0.61470  0.72470  Biso   1.000  N
  N32      1.0000 0.73320  0.11470  0.77530  Biso   1.000  N
  N33      1.0000 0.71110  0.94010  0.06910  Biso   1.000  N
  N34      1.0000 0.78890  0.44010  0.43090  Biso   1.000  N
  N35      1.0000 0.28890  0.05990  0.93090  Biso   1.000  N
  N36      1.0000 0.21110  0.55990  0.56910  Biso   1.000  N
  N37      1.0000 0.19420  0.78020  0.16430  Biso   1.000  N
  N38      1.0000 0.30580  0.28020  0.33570  Biso   1.000  N
  N39      1.0000 0.80580  0.21980  0.83570  Biso   1.000  N
  N40      1.0000 0.69420  0.71980  0.66430  Biso   1.000  N
  C1       1.0000 0.37650  0.55720  0.09140  Biso   1.000  C
  C2       1.0000 0.12350  0.05720  0.40860  Biso   1.000  C
  C3       1.0000 0.62350  0.44280  0.90860  Biso   1.000  C
  C4       1.0000 0.87650  0.94280  0.59140  Biso   1.000  C
  C5       1.0000 0.45650  0.26770  0.19400  Biso   1.000  C
  C6       1.0000 0.04350  0.76770  0.30600  Biso   1.000  C
  C7       1.0000 0.54350  0.73230  0.80600  Biso   1.000  C
  C8       1.0000 0.95650  0.23230  0.69400  Biso   1.000  C
  C9       1.0000 0.48840  0.62810  0.09780  Biso   1.000  C
  C10      1.0000 0.01160  0.12810  0.40220  Biso   1.000  C
  C11      1.0000 0.51160  0.37190  0.90220  Biso   1.000  C
  C12      1.0000 0.98840  0.87190  0.59780  Biso   1.000  C
  C13      1.0000 0.57100  0.32930  0.20200  Biso   1.000  C
  C14      1.0000 0.92900  0.82930  0.29800  Biso   1.000  C
  C15      1.0000 0.42900  0.67070  0.79800  Biso   1.000  C
  C16      1.0000 0.07100  0.17070  0.70200  Biso   1.000  C
  C17      1.0000 0.58740  0.51280  0.15300  Biso   1.000  C
  C18      1.0000 0.91260  0.01280  0.34700  Biso   1.000  C
  C19      1.0000 0.41260  0.48720  0.84700  Biso   1.000  C
  C20      1.0000 0.08740  0.98720  0.65300  Biso   1.000  C
