data_image0
_cell_length_a       11.9395
_cell_length_b       6.0952
_cell_length_c       15.22
_cell_angle_alpha    90
_cell_angle_beta     111.266
_cell_angle_gamma    90

_symmetry_space_group_name_H-M    "P 1"
_symmetry_int_tables_number       1

loop_
  _symmetry_equiv_pos_as_xyz
  'x, y, z'

loop_
  _atom_site_label
  _atom_site_occupancy
  _atom_site_fract_x
  _atom_site_fract_y
  _atom_site_fract_z
  _atom_site_thermal_displace_type
  _atom_site_B_iso_or_equiv
  _atom_site_type_symbol
  Cu1      1.0000 0.19846  0.21109  0.13819  Biso   1.000  Cu
  Cu2      1.0000 0.30154  0.71109  0.36181  Biso   1.000  Cu
  Cu3      1.0000 0.80154  0.78891  0.86181  Biso   1.000  Cu
  Cu4      1.0000 0.69846  0.28891  0.63819  Biso   1.000  Cu
  Cu5      1.0000 0.00000  0.50000  0.00000  Biso   1.000  Cu
  Cu6      1.0000 0.50000  0.00000  0.50000  Biso   1.000  Cu
  N1       1.0000 0.19413  0.72480  0.16592  Biso   1.000  N
  N2       1.0000 0.30587  0.22480  0.33408  Biso   1.000  N
  N3       1.0000 0.80587  0.27520  0.83408  Biso   1.000  N
  N4       1.0000 0.69413  0.77520  0.66592  Biso   1.000  N
  N5       1.0000 0.12461  0.82200  0.10443  Biso   1.000  N
  N6       1.0000 0.37539  0.32200  0.39557  Biso   1.000  N
  N7       1.0000 0.87539  0.17800  0.89557  Biso   1.000  N
  N8       1.0000 0.62461  0.67800  0.60443  Biso   1.000  N
  N9       1.0000 0.26699  0.62210  0.22656  Biso   1.000  N
  N10      1.0000 0.23301  0.12210  0.27344  Biso   1.000  N
  N11      1.0000 0.73301  0.37790  0.77344  Biso   1.000  N
  N12      1.0000 0.76699  0.87790  0.72656  Biso   1.000  N
  N13      1.0000 0.15838  0.36790  0.01502  Biso   1.000  N
  N14      1.0000 0.34162  0.86790  0.48498  Biso   1.000  N
  N15      1.0000 0.84162  0.63210  0.98498  Biso   1.000  N
  N16      1.0000 0.65838  0.13210  0.51502  Biso   1.000  N
  N17      1.0000 0.03114  0.32190  0.11649  Biso   1.000  N
  N18      1.0000 0.46886  0.82190  0.38351  Biso   1.000  N
  N19      1.0000 0.96886  0.67810  0.88351  Biso   1.000  N
  N20      1.0000 0.53114  0.17810  0.61649  Biso   1.000  N
  N21      1.0000 0.22419  0.40080  0.97214  Biso   1.000  N
  N22      1.0000 0.27581  0.90080  0.52786  Biso   1.000  N
  N23      1.0000 0.77581  0.59920  0.02786  Biso   1.000  N
  N24      1.0000 0.72419  0.09920  0.47214  Biso   1.000  N
  N25      1.0000 0.95481  0.21280  0.13073  Biso   1.000  N
  N26      1.0000 0.54519  0.71280  0.36927  Biso   1.000  N
  N27      1.0000 0.04519  0.78720  0.86927  Biso   1.000  N
  N28      1.0000 0.45481  0.28720  0.63073  Biso   1.000  N
  N29      1.0000 0.36177  0.12550  0.14227  Biso   1.000  N
  N30      1.0000 0.13823  0.62550  0.35773  Biso   1.000  N
  N31      1.0000 0.63823  0.87450  0.85773  Biso   1.000  N
  N32      1.0000 0.86177  0.37450  0.64227  Biso   1.000  N
  N33      1.0000 0.28730  0.42980  0.93280  Biso   1.000  N
  N34      1.0000 0.21270  0.92980  0.56720  Biso   1.000  N
  N35      1.0000 0.71270  0.57020  0.06720  Biso   1.000  N
  N36      1.0000 0.78730  0.07020  0.43280  Biso   1.000  N
  N37      1.0000 0.88280  0.11160  0.14450  Biso   1.000  N
  N38      1.0000 0.61720  0.61160  0.35550  Biso   1.000  N
  N39      1.0000 0.11720  0.88840  0.85550  Biso   1.000  N
  N40      1.0000 0.38280  0.38840  0.64450  Biso   1.000  N
  C1       1.0000 0.45740  0.24070  0.19350  Biso   1.000  C
  C2       1.0000 0.04260  0.74070  0.30650  Biso   1.000  C
  C3       1.0000 0.54260  0.75930  0.80650  Biso   1.000  C
  C4       1.0000 0.95740  0.25930  0.69350  Biso   1.000  C
  H1       1.0000 0.44630  0.36350  0.22560  Biso   1.000  H
  H2       1.0000 0.05370  0.86350  0.27440  Biso   1.000  H
  H3       1.0000 0.55370  0.63650  0.77440  Biso   1.000  H
  H4       1.0000 0.94630  0.13650  0.72560  Biso   1.000  H
  C5       1.0000 0.37820  0.95150  0.09530  Biso   1.000  C
  C6       1.0000 0.12180  0.45150  0.40470  Biso   1.000  C
  C7       1.0000 0.62180  0.04850  0.90470  Biso   1.000  C
  C8       1.0000 0.87820  0.54850  0.59530  Biso   1.000  C
  H5       1.0000 0.31140  0.87210  0.05780  Biso   1.000  H
  H6       1.0000 0.18860  0.37210  0.44220  Biso   1.000  H
  H7       1.0000 0.68860  0.12790  0.94220  Biso   1.000  H
  H8       1.0000 0.81140  0.62790  0.55780  Biso   1.000  H
  N41      1.0000 0.58990  0.00480  0.15360  Biso   1.000  N
  N42      1.0000 0.91010  0.50480  0.34640  Biso   1.000  N
  N43      1.0000 0.41010  0.99520  0.84640  Biso   1.000  N
  N44      1.0000 0.08990  0.49520  0.65360  Biso   1.000  N
  C9       1.0000 0.49080  0.88490  0.10010  Biso   1.000  C
  C10      1.0000 0.00920  0.38490  0.39990  Biso   1.000  C
  C11      1.0000 0.50920  0.11510  0.89990  Biso   1.000  C
  C12      1.0000 0.99080  0.61510  0.60010  Biso   1.000  C
  H9       1.0000 0.49960  0.76090  0.06760  Biso   1.000  H
  H10      1.0000 0.00040  0.26090  0.43240  Biso   1.000  H
  H11      1.0000 0.50040  0.23910  0.93240  Biso   1.000  H
  H12      1.0000 0.99960  0.73910  0.56760  Biso   1.000  H
  C13      1.0000 0.57220  0.18640  0.20110  Biso   1.000  C
  C14      1.0000 0.92780  0.68640  0.29890  Biso   1.000  C
  C15      1.0000 0.42780  0.81360  0.79890  Biso   1.000  C
  C16      1.0000 0.07220  0.31360  0.70110  Biso   1.000  C
  H13      1.0000 0.63710  0.27100  0.23780  Biso   1.000  H
  H14      1.0000 0.86290  0.77100  0.26220  Biso   1.000  H
  H15      1.0000 0.36290  0.72900  0.76220  Biso   1.000  H
  H16      1.0000 0.13710  0.22900  0.73780  Biso   1.000  H
