data_image0
_cell_length_a       13.049
_cell_length_b       22.227
_cell_length_c       6.078
_cell_angle_alpha    90
_cell_angle_beta     90
_cell_angle_gamma    90

_symmetry_space_group_name_H-M    "P 1"
_symmetry_int_tables_number       1

loop_
  _symmetry_equiv_pos_as_xyz
  'x, y, z'

loop_
  _atom_site_label
  _atom_site_occupancy
  _atom_site_fract_x
  _atom_site_fract_y
  _atom_site_fract_z
  _atom_site_thermal_displace_type
  _atom_site_B_iso_or_equiv
  _atom_site_type_symbol
  Cu1      1.0000 0.38860  0.96740  0.66420  Biso   1.000  Cu
  Cu2      1.0000 0.88860  0.53260  0.33580  Biso   1.000  Cu
  Cu3      1.0000 0.61140  0.46740  0.83580  Biso   1.000  Cu
  Cu4      1.0000 0.11140  0.03260  0.16420  Biso   1.000  Cu
  C1       1.0000 0.31070  0.05320  0.38920  Biso   1.000  C
  C2       1.0000 0.81070  0.44680  0.61080  Biso   1.000  C
  C3       1.0000 0.68930  0.55320  0.11080  Biso   1.000  C
  C4       1.0000 0.18930  0.94680  0.88920  Biso   1.000  C
  C5       1.0000 0.65460  0.00710  0.75780  Biso   1.000  C
  C6       1.0000 0.15460  0.49290  0.24220  Biso   1.000  C
  C7       1.0000 0.34540  0.50710  0.74220  Biso   1.000  C
  C8       1.0000 0.84540  0.99290  0.25780  Biso   1.000  C
  C9       1.0000 0.41930  0.19950  0.92760  Biso   1.000  C
  C10      1.0000 0.91930  0.30050  0.07240  Biso   1.000  C
  C11      1.0000 0.58070  0.69950  0.57240  Biso   1.000  C
  C12      1.0000 0.08070  0.80050  0.42760  Biso   1.000  C
  C13      1.0000 0.58680  0.99330  0.39490  Biso   1.000  C
  C14      1.0000 0.08680  0.50670  0.60510  Biso   1.000  C
  C15      1.0000 0.41320  0.49330  0.10510  Biso   1.000  C
  C16      1.0000 0.91320  0.00670  0.89490  Biso   1.000  C
  C17      1.0000 0.23400  0.25220  0.01840  Biso   1.000  C
  C18      1.0000 0.73400  0.24780  0.98160  Biso   1.000  C
  C19      1.0000 0.76600  0.75220  0.48160  Biso   1.000  C
  C20      1.0000 0.26600  0.74780  0.51840  Biso   1.000  C
  C21      1.0000 0.65710  0.06940  0.72030  Biso   1.000  C
  C22      1.0000 0.15710  0.43060  0.27970  Biso   1.000  C
  C23      1.0000 0.34290  0.56940  0.77970  Biso   1.000  C
  C24      1.0000 0.84290  0.93060  0.22030  Biso   1.000  C
  C25      1.0000 0.41040  0.23560  0.11490  Biso   1.000  C
  C26      1.0000 0.91040  0.26440  0.88510  Biso   1.000  C
  C27      1.0000 0.58960  0.73560  0.38510  Biso   1.000  C
  C28      1.0000 0.08960  0.76440  0.61490  Biso   1.000  C
  C29      1.0000 0.58790  0.05490  0.35900  Biso   1.000  C
  C30      1.0000 0.08790  0.44510  0.64100  Biso   1.000  C
  C31      1.0000 0.41210  0.55490  0.14100  Biso   1.000  C
  C32      1.0000 0.91210  0.94510  0.85900  Biso   1.000  C
  C33      1.0000 0.31630  0.26230  0.15700  Biso   1.000  C
  C34      1.0000 0.81630  0.23770  0.84300  Biso   1.000  C
  C35      1.0000 0.68370  0.76230  0.34300  Biso   1.000  C
  C36      1.0000 0.18370  0.73770  0.65700  Biso   1.000  C
  C37      1.0000 0.62630  0.09270  0.52100  Biso   1.000  C
  C38      1.0000 0.12630  0.40730  0.47900  Biso   1.000  C
  C39      1.0000 0.37370  0.59270  0.97900  Biso   1.000  C
  C40      1.0000 0.87370  0.90730  0.02100  Biso   1.000  C
  C41      1.0000 0.49410  0.88920  0.92980  Biso   1.000  C
  C42      1.0000 0.99410  0.61080  0.07020  Biso   1.000  C
  C43      1.0000 0.50590  0.38920  0.57020  Biso   1.000  C
  C44      1.0000 0.00590  0.11080  0.42980  Biso   1.000  C
  C45      1.0000 0.31160  0.08700  0.60990  Biso   1.000  C
  C46      1.0000 0.81160  0.41300  0.39010  Biso   1.000  C
  C47      1.0000 0.68840  0.58700  0.89010  Biso   1.000  C
  C48      1.0000 0.18840  0.91300  0.10990  Biso   1.000  C
  C49      1.0000 0.52280  0.86940  0.69390  Biso   1.000  C
  C50      1.0000 0.02280  0.63060  0.30610  Biso   1.000  C
  C51      1.0000 0.47720  0.36940  0.80610  Biso   1.000  C
  C52      1.0000 0.97720  0.13060  0.19390  Biso   1.000  C
  C53      1.0000 0.35070  0.15130  0.58090  Biso   1.000  C
  C54      1.0000 0.85070  0.34870  0.41910  Biso   1.000  C
  C55      1.0000 0.64930  0.65130  0.91910  Biso   1.000  C
  C56      1.0000 0.14930  0.84870  0.08090  Biso   1.000  C
  C57      1.0000 0.62390  0.89980  0.61920  Biso   1.000  C
  C58      1.0000 0.12390  0.60020  0.38080  Biso   1.000  C
  C59      1.0000 0.37610  0.39980  0.88080  Biso   1.000  C
  C60      1.0000 0.87610  0.10020  0.11920  Biso   1.000  C
  C61      1.0000 0.33920  0.18970  0.78700  Biso   1.000  C
  C62      1.0000 0.83920  0.31030  0.21300  Biso   1.000  C
  C63      1.0000 0.66080  0.68970  0.71300  Biso   1.000  C
  C64      1.0000 0.16080  0.81030  0.28700  Biso   1.000  C
  C65      1.0000 0.61910  0.96840  0.59110  Biso   1.000  C
  C66      1.0000 0.11910  0.53160  0.40890  Biso   1.000  C
  C67      1.0000 0.38090  0.46840  0.90890  Biso   1.000  C
  C68      1.0000 0.88090  0.03160  0.09110  Biso   1.000  C
  C69      1.0000 0.24470  0.21650  0.83470  Biso   1.000  C
  C70      1.0000 0.74470  0.28350  0.16530  Biso   1.000  C
  C71      1.0000 0.75530  0.71650  0.66530  Biso   1.000  C
  C72      1.0000 0.25530  0.78350  0.33470  Biso   1.000  C
  H1       1.0000 0.67900  0.99000  0.90900  Biso   1.000  H
  H2       1.0000 0.17900  0.51000  0.09100  Biso   1.000  H
  H3       1.0000 0.32100  0.49000  0.59100  Biso   1.000  H
  H4       1.0000 0.82100  0.01000  0.40900  Biso   1.000  H
  H5       1.0000 0.48900  0.17900  0.89100  Biso   1.000  H
  H6       1.0000 0.98900  0.32100  0.10900  Biso   1.000  H
  H7       1.0000 0.51100  0.67900  0.60900  Biso   1.000  H
  H8       1.0000 0.01100  0.82100  0.39100  Biso   1.000  H
  H9       1.0000 0.33200  0.05500  0.90400  Biso   1.000  H
  H10      1.0000 0.83200  0.44500  0.09600  Biso   1.000  H
  H11      1.0000 0.66800  0.55500  0.59600  Biso   1.000  H
  H12      1.0000 0.16800  0.94500  0.40400  Biso   1.000  H
  H13      1.0000 0.56100  0.96500  0.27000  Biso   1.000  H
  H14      1.0000 0.06100  0.53500  0.73000  Biso   1.000  H
  H15      1.0000 0.43900  0.46500  0.23000  Biso   1.000  H
  H16      1.0000 0.93900  0.03500  0.77000  Biso   1.000  H
  H17      1.0000 0.43300  0.07300  0.78800  Biso   1.000  H
  H18      1.0000 0.93300  0.42700  0.21200  Biso   1.000  H
  H19      1.0000 0.56700  0.57300  0.71200  Biso   1.000  H
  H20      1.0000 0.06700  0.92700  0.28800  Biso   1.000  H
  H21      1.0000 0.16300  0.27200  0.05300  Biso   1.000  H
  H22      1.0000 0.66300  0.22800  0.94700  Biso   1.000  H
  H23      1.0000 0.83700  0.77200  0.44700  Biso   1.000  H
  H24      1.0000 0.33700  0.72800  0.55300  Biso   1.000  H
  H25      1.0000 0.68200  0.09900  0.84300  Biso   1.000  H
  H26      1.0000 0.18200  0.40100  0.15700  Biso   1.000  H
  H27      1.0000 0.31800  0.59900  0.65700  Biso   1.000  H
  H28      1.0000 0.81800  0.90100  0.34300  Biso   1.000  H
  H29      1.0000 0.46900  0.23600  0.22200  Biso   1.000  H
  H30      1.0000 0.96900  0.26400  0.77800  Biso   1.000  H
  H31      1.0000 0.53100  0.73600  0.27800  Biso   1.000  H
  H32      1.0000 0.03100  0.76400  0.72200  Biso   1.000  H
  H33      1.0000 0.56000  0.07300  0.26100  Biso   1.000  H
  H34      1.0000 0.06000  0.42700  0.73900  Biso   1.000  H
  H35      1.0000 0.44000  0.57300  0.23900  Biso   1.000  H
  H36      1.0000 0.94000  0.92700  0.76100  Biso   1.000  H
  H37      1.0000 0.38900  0.85500  0.55700  Biso   1.000  H
  H38      1.0000 0.88900  0.64500  0.44300  Biso   1.000  H
  H39      1.0000 0.61100  0.35500  0.94300  Biso   1.000  H
  H40      1.0000 0.11100  0.14500  0.05700  Biso   1.000  H
  H41      1.0000 0.46700  0.88900  0.40400  Biso   1.000  H
  H42      1.0000 0.96700  0.61100  0.59600  Biso   1.000  H
  H43      1.0000 0.53300  0.38900  0.09600  Biso   1.000  H
  H44      1.0000 0.03300  0.11100  0.90400  Biso   1.000  H
  H45      1.0000 0.24000  0.09000  0.66800  Biso   1.000  H
  H46      1.0000 0.74000  0.41000  0.33200  Biso   1.000  H
  H47      1.0000 0.76000  0.59000  0.83200  Biso   1.000  H
  H48      1.0000 0.26000  0.91000  0.16800  Biso   1.000  H
  H49      1.0000 0.53200  0.82500  0.69000  Biso   1.000  H
  H50      1.0000 0.03200  0.67500  0.31000  Biso   1.000  H
  H51      1.0000 0.46800  0.32500  0.81000  Biso   1.000  H
  H52      1.0000 0.96800  0.17500  0.19000  Biso   1.000  H
  H53      1.0000 0.42900  0.14900  0.53900  Biso   1.000  H
  H54      1.0000 0.92900  0.35100  0.46100  Biso   1.000  H
  H55      1.0000 0.57100  0.64900  0.96100  Biso   1.000  H
  H56      1.0000 0.07100  0.85100  0.03900  Biso   1.000  H
  H57      1.0000 0.30900  0.17200  0.45300  Biso   1.000  H
  H58      1.0000 0.80900  0.32800  0.54700  Biso   1.000  H
  H59      1.0000 0.69100  0.67200  0.04700  Biso   1.000  H
  H60      1.0000 0.19100  0.82800  0.95300  Biso   1.000  H
  H61      1.0000 0.68000  0.89000  0.73700  Biso   1.000  H
  H62      1.0000 0.18000  0.61000  0.26300  Biso   1.000  H
  H63      1.0000 0.32000  0.39000  0.76300  Biso   1.000  H
  H64      1.0000 0.82000  0.11000  0.23700  Biso   1.000  H
  H65      1.0000 0.64500  0.88100  0.46700  Biso   1.000  H
  H66      1.0000 0.14500  0.61900  0.53300  Biso   1.000  H
  H67      1.0000 0.35500  0.38100  0.03300  Biso   1.000  H
  H68      1.0000 0.85500  0.11900  0.96700  Biso   1.000  H
  H69      1.0000 0.18100  0.21000  0.73200  Biso   1.000  H
  H70      1.0000 0.68100  0.29000  0.26800  Biso   1.000  H
  H71      1.0000 0.81900  0.71000  0.76800  Biso   1.000  H
  H72      1.0000 0.31900  0.79000  0.23200  Biso   1.000  H
  N1       1.0000 0.37120  0.05120  0.77350  Biso   1.000  N
  N2       1.0000 0.87120  0.44880  0.22650  Biso   1.000  N
  N3       1.0000 0.62880  0.55120  0.72650  Biso   1.000  N
  N4       1.0000 0.12880  0.94880  0.27350  Biso   1.000  N
  N5       1.0000 0.43730  0.88750  0.54690  Biso   1.000  N
  N6       1.0000 0.93730  0.61250  0.45310  Biso   1.000  N
  N7       1.0000 0.56270  0.38750  0.95310  Biso   1.000  N
  N8       1.0000 0.06270  0.11250  0.04690  Biso   1.000  N
  O1       1.0000 0.34250  0.99950  0.38720  Biso   1.000  O
  O2       1.0000 0.84250  0.50050  0.61280  Biso   1.000  O
  O3       1.0000 0.65750  0.49950  0.11280  Biso   1.000  O
  O4       1.0000 0.15750  0.00050  0.88720  Biso   1.000  O
  O5       1.0000 0.43740  0.93490  0.94770  Biso   1.000  O
  O6       1.0000 0.93740  0.56510  0.05230  Biso   1.000  O
  O7       1.0000 0.56260  0.43490  0.55230  Biso   1.000  O
  O8       1.0000 0.06260  0.06510  0.44770  Biso   1.000  O
  O9       1.0000 0.27470  0.07860  0.22460  Biso   1.000  O
  O10      1.0000 0.77470  0.42140  0.77540  Biso   1.000  O
  O11      1.0000 0.72530  0.57860  0.27540  Biso   1.000  O
  O12      1.0000 0.22530  0.92140  0.72460  Biso   1.000  O
  O13      1.0000 0.53080  0.86160  0.09000  Biso   1.000  O
  O14      1.0000 0.03080  0.63840  0.91000  Biso   1.000  O
  O15      1.0000 0.46920  0.36160  0.41000  Biso   1.000  O
  O16      1.0000 0.96920  0.13840  0.59000  Biso   1.000  O
  O17      1.0000 0.30260  0.29850  0.34250  Biso   1.000  O
  O18      1.0000 0.80260  0.20150  0.65750  Biso   1.000  O
  O19      1.0000 0.69740  0.79850  0.15750  Biso   1.000  O
  O20      1.0000 0.19740  0.70150  0.84250  Biso   1.000  O
  O21      1.0000 0.63060  0.15410  0.47780  Biso   1.000  O
  O22      1.0000 0.13060  0.34590  0.52220  Biso   1.000  O
  O23      1.0000 0.36940  0.65410  0.02220  Biso   1.000  O
  O24      1.0000 0.86940  0.84590  0.97780  Biso   1.000  O
