data_image0
_cell_length_a       6.0753
_cell_length_b       12.948
_cell_length_c       22.037
_cell_angle_alpha    90
_cell_angle_beta     90
_cell_angle_gamma    90

_symmetry_space_group_name_H-M    "P 1"
_symmetry_int_tables_number       1

loop_
  _symmetry_equiv_pos_as_xyz
  'x, y, z'

loop_
  _atom_site_label
  _atom_site_occupancy
  _atom_site_fract_x
  _atom_site_fract_y
  _atom_site_fract_z
  _atom_site_thermal_displace_type
  _atom_site_B_iso_or_equiv
  _atom_site_type_symbol
  Cu1      1.0000 0.16085  0.88872  0.96637  Biso   1.000  Cu
  Cu2      1.0000 0.33915  0.11128  0.46637  Biso   1.000  Cu
  Cu3      1.0000 0.83915  0.38872  0.53363  Biso   1.000  Cu
  Cu4      1.0000 0.66085  0.61128  0.03363  Biso   1.000  Cu
  O1       1.0000 0.88150  0.84310  0.99849  Biso   1.000  O
  O2       1.0000 0.61850  0.15690  0.49849  Biso   1.000  O
  O3       1.0000 0.11850  0.34310  0.50151  Biso   1.000  O
  O4       1.0000 0.38150  0.65690  0.00151  Biso   1.000  O
  O5       1.0000 0.71990  0.77490  0.07855  Biso   1.000  O
  O6       1.0000 0.78010  0.22510  0.57855  Biso   1.000  O
  O7       1.0000 0.28010  0.27490  0.42145  Biso   1.000  O
  O8       1.0000 0.21990  0.72510  0.92145  Biso   1.000  O
  O9       1.0000 0.83970  0.80060  0.29753  Biso   1.000  O
  O10      1.0000 0.66030  0.19940  0.79753  Biso   1.000  O
  O11      1.0000 0.16030  0.30060  0.20247  Biso   1.000  O
  O12      1.0000 0.33970  0.69940  0.70247  Biso   1.000  O
  H1       1.0000 0.86400  0.85280  0.31760  Biso   1.000  H
  H2       1.0000 0.63600  0.14720  0.81760  Biso   1.000  H
  H3       1.0000 0.13600  0.35280  0.18240  Biso   1.000  H
  H4       1.0000 0.36400  0.64720  0.68240  Biso   1.000  H
  O13      1.0000 0.59030  0.03090  0.86058  Biso   1.000  O
  O14      1.0000 0.90970  0.96910  0.36058  Biso   1.000  O
  O15      1.0000 0.40970  0.53090  0.63942  Biso   1.000  O
  O16      1.0000 0.09030  0.46910  0.13942  Biso   1.000  O
  O17      1.0000 0.44490  0.93690  0.93427  Biso   1.000  O
  O18      1.0000 0.05510  0.06310  0.43427  Biso   1.000  O
  O19      1.0000 0.55510  0.43690  0.56573  Biso   1.000  O
  O20      1.0000 0.94490  0.56310  0.06573  Biso   1.000  O
  O21      1.0000 0.97390  0.12770  0.15360  Biso   1.000  O
  O22      1.0000 0.52610  0.87230  0.65360  Biso   1.000  O
  O23      1.0000 0.02610  0.62770  0.34640  Biso   1.000  O
  O24      1.0000 0.47390  0.37230  0.84640  Biso   1.000  O
  H5       1.0000 0.02880  0.17950  0.16870  Biso   1.000  H
  H6       1.0000 0.47120  0.82050  0.66870  Biso   1.000  H
  H7       1.0000 0.97120  0.67950  0.33130  Biso   1.000  H
  H8       1.0000 0.52880  0.32050  0.83130  Biso   1.000  H
  N1       1.0000 0.27030  0.87200  0.05098  Biso   1.000  N
  N2       1.0000 0.22970  0.12800  0.55098  Biso   1.000  N
  N3       1.0000 0.72970  0.37200  0.44902  Biso   1.000  N
  N4       1.0000 0.77030  0.62800  0.94902  Biso   1.000  N
  H9       1.0000 0.39990  0.83830  0.05080  Biso   1.000  H
  H10      1.0000 0.10010  0.16170  0.55080  Biso   1.000  H
  H11      1.0000 0.60010  0.33830  0.44920  Biso   1.000  H
  H12      1.0000 0.89990  0.66170  0.94920  Biso   1.000  H
  H13      1.0000 0.29100  0.93440  0.06810  Biso   1.000  H
  H14      1.0000 0.20900  0.06560  0.56810  Biso   1.000  H
  H15      1.0000 0.70900  0.43440  0.43190  Biso   1.000  H
  H16      1.0000 0.79100  0.56560  0.93190  Biso   1.000  H
  N5       1.0000 0.04680  0.93820  0.88603  Biso   1.000  N
  N6       1.0000 0.45320  0.06180  0.38603  Biso   1.000  N
  N7       1.0000 0.95320  0.43820  0.61397  Biso   1.000  N
  N8       1.0000 0.54680  0.56180  0.11397  Biso   1.000  N
  H17      1.0000 0.05110  0.88710  0.85840  Biso   1.000  H
  H18      1.0000 0.44890  0.11290  0.35840  Biso   1.000  H
  H19      1.0000 0.94890  0.38710  0.64160  Biso   1.000  H
  H20      1.0000 0.55110  0.61290  0.14160  Biso   1.000  H
  H21      1.0000 0.90720  0.96060  0.88950  Biso   1.000  H
  H22      1.0000 0.59280  0.03940  0.38950  Biso   1.000  H
  H23      1.0000 0.09280  0.46060  0.61050  Biso   1.000  H
  H24      1.0000 0.40720  0.53940  0.11050  Biso   1.000  H
  C1       1.0000 0.88390  0.81110  0.05271  Biso   1.000  C
  C2       1.0000 0.61610  0.18890  0.55271  Biso   1.000  C
  C3       1.0000 0.11610  0.31110  0.44729  Biso   1.000  C
  C4       1.0000 0.38390  0.68890  0.94729  Biso   1.000  C
  C5       1.0000 0.10550  0.81260  0.08622  Biso   1.000  C
  C6       1.0000 0.39450  0.18740  0.58622  Biso   1.000  C
  C7       1.0000 0.89450  0.31260  0.41378  Biso   1.000  C
  C8       1.0000 0.60550  0.68740  0.91378  Biso   1.000  C
  H25      1.0000 0.15790  0.74110  0.08820  Biso   1.000  H
  H26      1.0000 0.34210  0.25890  0.58820  Biso   1.000  H
  H27      1.0000 0.84210  0.24110  0.41180  Biso   1.000  H
  H28      1.0000 0.65790  0.75890  0.91180  Biso   1.000  H
  C9       1.0000 0.07730  0.84940  0.15050  Biso   1.000  C
  C10      1.0000 0.42270  0.15060  0.65050  Biso   1.000  C
  C11      1.0000 0.92270  0.34940  0.34950  Biso   1.000  C
  C12      1.0000 0.57730  0.65060  0.84950  Biso   1.000  C
  H29      1.0000 0.95820  0.81090  0.16910  Biso   1.000  H
  H30      1.0000 0.54180  0.18910  0.66910  Biso   1.000  H
  H31      1.0000 0.04180  0.31090  0.33090  Biso   1.000  H
  H32      1.0000 0.45820  0.68910  0.83090  Biso   1.000  H
  H33      1.0000 0.03430  0.92160  0.14970  Biso   1.000  H
  H34      1.0000 0.46570  0.07840  0.64970  Biso   1.000  H
  H35      1.0000 0.96570  0.42160  0.35030  Biso   1.000  H
  H36      1.0000 0.53430  0.57840  0.85030  Biso   1.000  H
  C13      1.0000 0.28060  0.83850  0.18969  Biso   1.000  C
  C14      1.0000 0.21940  0.16150  0.68969  Biso   1.000  C
  C15      1.0000 0.71940  0.33850  0.31031  Biso   1.000  C
  C16      1.0000 0.78060  0.66150  0.81031  Biso   1.000  C
  C17      1.0000 0.32910  0.74420  0.21725  Biso   1.000  C
  C18      1.0000 0.17090  0.25580  0.71725  Biso   1.000  C
  C19      1.0000 0.67090  0.24420  0.28275  Biso   1.000  C
  C20      1.0000 0.82910  0.75580  0.78275  Biso   1.000  C
  H37      1.0000 0.23480  0.68840  0.21160  Biso   1.000  H
  H38      1.0000 0.26520  0.31160  0.71160  Biso   1.000  H
  H39      1.0000 0.76520  0.18840  0.28840  Biso   1.000  H
  H40      1.0000 0.73480  0.81160  0.78840  Biso   1.000  H
  C21      1.0000 0.51590  0.73200  0.25300  Biso   1.000  C
  C22      1.0000 0.98410  0.26800  0.75300  Biso   1.000  C
  C23      1.0000 0.48410  0.23200  0.24700  Biso   1.000  C
  C24      1.0000 0.01590  0.76800  0.74700  Biso   1.000  C
  H41      1.0000 0.54680  0.66850  0.27080  Biso   1.000  H
  H42      1.0000 0.95320  0.33150  0.77080  Biso   1.000  H
  H43      1.0000 0.45320  0.16850  0.22920  Biso   1.000  H
  H44      1.0000 0.04680  0.83150  0.72920  Biso   1.000  H
  C25      1.0000 0.65680  0.81590  0.26211  Biso   1.000  C
  C26      1.0000 0.84320  0.18410  0.76211  Biso   1.000  C
  C27      1.0000 0.34320  0.31590  0.23789  Biso   1.000  C
  C28      1.0000 0.15680  0.68410  0.73789  Biso   1.000  C
  C29      1.0000 0.61150  0.91010  0.23473  Biso   1.000  C
  C30      1.0000 0.88850  0.08990  0.73473  Biso   1.000  C
  C31      1.0000 0.38850  0.41010  0.26527  Biso   1.000  C
  C32      1.0000 0.11150  0.58990  0.76527  Biso   1.000  C
  H45      1.0000 0.70550  0.96600  0.24040  Biso   1.000  H
  H46      1.0000 0.79450  0.03400  0.74040  Biso   1.000  H
  H47      1.0000 0.29450  0.46600  0.25960  Biso   1.000  H
  H48      1.0000 0.20550  0.53400  0.75960  Biso   1.000  H
  C33      1.0000 0.42520  0.92020  0.19896  Biso   1.000  C
  C34      1.0000 0.07480  0.07980  0.69896  Biso   1.000  C
  C35      1.0000 0.57480  0.42020  0.30104  Biso   1.000  C
  C36      1.0000 0.92520  0.57980  0.80104  Biso   1.000  C
  H49      1.0000 0.39600  0.98340  0.18060  Biso   1.000  H
  H50      1.0000 0.10400  0.01660  0.68060  Biso   1.000  H
  H51      1.0000 0.60400  0.48340  0.31940  Biso   1.000  H
  H52      1.0000 0.89600  0.51660  0.81940  Biso   1.000  H
  C37      1.0000 0.42890  0.99510  0.88820  Biso   1.000  C
  C38      1.0000 0.07110  0.00490  0.38820  Biso   1.000  C
  C39      1.0000 0.57110  0.49510  0.61180  Biso   1.000  C
  C40      1.0000 0.92890  0.50490  0.11180  Biso   1.000  C
  C41      1.0000 0.19430  0.02360  0.86827  Biso   1.000  C
  C42      1.0000 0.30570  0.97640  0.36827  Biso   1.000  C
  C43      1.0000 0.80570  0.52360  0.63173  Biso   1.000  C
  C44      1.0000 0.69430  0.47640  0.13173  Biso   1.000  C
  H53      1.0000 0.19020  0.03240  0.82410  Biso   1.000  H
  H54      1.0000 0.30980  0.96760  0.32410  Biso   1.000  H
  H55      1.0000 0.80980  0.53240  0.67590  Biso   1.000  H
  H56      1.0000 0.69020  0.46760  0.17590  Biso   1.000  H
  C45      1.0000 0.12030  0.12470  0.89951  Biso   1.000  C
  C46      1.0000 0.37970  0.87530  0.39951  Biso   1.000  C
  C47      1.0000 0.87970  0.62470  0.60049  Biso   1.000  C
  C48      1.0000 0.62030  0.37530  0.10049  Biso   1.000  C
  H57      1.0000 0.22790  0.17790  0.89040  Biso   1.000  H
  H58      1.0000 0.27210  0.82210  0.39040  Biso   1.000  H
  H59      1.0000 0.77210  0.67790  0.60960  Biso   1.000  H
  H60      1.0000 0.72790  0.32210  0.10960  Biso   1.000  H
  H61      1.0000 0.98180  0.14610  0.88160  Biso   1.000  H
  H62      1.0000 0.51820  0.85390  0.38160  Biso   1.000  H
  H63      1.0000 0.01820  0.64610  0.61840  Biso   1.000  H
  H64      1.0000 0.48180  0.35390  0.11840  Biso   1.000  H
  C49      1.0000 0.09120  0.12000  0.96731  Biso   1.000  C
  C50      1.0000 0.40880  0.88000  0.46731  Biso   1.000  C
  C51      1.0000 0.90880  0.62000  0.53269  Biso   1.000  C
  C52      1.0000 0.59120  0.38000  0.03269  Biso   1.000  C
  C53      1.0000 0.89160  0.08700  0.99270  Biso   1.000  C
  C54      1.0000 0.60840  0.91300  0.49270  Biso   1.000  C
  C55      1.0000 0.10840  0.58700  0.50730  Biso   1.000  C
  C56      1.0000 0.39160  0.41300  0.00730  Biso   1.000  C
  H65      1.0000 0.77980  0.06420  0.96720  Biso   1.000  H
  H66      1.0000 0.72020  0.93580  0.46720  Biso   1.000  H
  H67      1.0000 0.22020  0.56420  0.53280  Biso   1.000  H
  H68      1.0000 0.27980  0.43580  0.03280  Biso   1.000  H
  C57      1.0000 0.85700  0.08770  0.05480  Biso   1.000  C
  C58      1.0000 0.64300  0.91230  0.55480  Biso   1.000  C
  C59      1.0000 0.14300  0.58770  0.44520  Biso   1.000  C
  C60      1.0000 0.35700  0.41230  0.94520  Biso   1.000  C
  H69      1.0000 0.72550  0.06300  0.07080  Biso   1.000  H
  H70      1.0000 0.77450  0.93700  0.57080  Biso   1.000  H
  H71      1.0000 0.27450  0.56300  0.42920  Biso   1.000  H
  H72      1.0000 0.22550  0.43700  0.92920  Biso   1.000  H
  C61      1.0000 0.01930  0.12530  0.09280  Biso   1.000  C
  C62      1.0000 0.48070  0.87470  0.59280  Biso   1.000  C
  C63      1.0000 0.98070  0.62530  0.40720  Biso   1.000  C
  C64      1.0000 0.51930  0.37470  0.90720  Biso   1.000  C
  C65      1.0000 0.22090  0.15620  0.06900  Biso   1.000  C
  C66      1.0000 0.27910  0.84380  0.56900  Biso   1.000  C
  C67      1.0000 0.77910  0.65620  0.43100  Biso   1.000  C
  C68      1.0000 0.72090  0.34380  0.93100  Biso   1.000  C
  H73      1.0000 0.33270  0.17800  0.09490  Biso   1.000  H
  H74      1.0000 0.16730  0.82200  0.59490  Biso   1.000  H
  H75      1.0000 0.66730  0.67800  0.40510  Biso   1.000  H
  H76      1.0000 0.83270  0.32200  0.90510  Biso   1.000  H
  C69      1.0000 0.25550  0.15470  0.00670  Biso   1.000  C
  C70      1.0000 0.24450  0.84530  0.50670  Biso   1.000  C
  C71      1.0000 0.74450  0.65470  0.49330  Biso   1.000  C
  C72      1.0000 0.75550  0.34530  0.99330  Biso   1.000  C
  H77      1.0000 0.38950  0.17700  0.99110  Biso   1.000  H
  H78      1.0000 0.11050  0.82300  0.49110  Biso   1.000  H
  H79      1.0000 0.61050  0.67700  0.50890  Biso   1.000  H
  H80      1.0000 0.88950  0.32300  0.00890  Biso   1.000  H
