data_image0
_cell_length_a       6.0473
_cell_length_b       12.9046
_cell_length_c       22.0788
_cell_angle_alpha    90
_cell_angle_beta     90
_cell_angle_gamma    90

_symmetry_space_group_name_H-M    "P 1"
_symmetry_int_tables_number       1

loop_
  _symmetry_equiv_pos_as_xyz
  'x, y, z'

loop_
  _atom_site_label
  _atom_site_occupancy
  _atom_site_fract_x
  _atom_site_fract_y
  _atom_site_fract_z
  _atom_site_thermal_displace_type
  _atom_site_B_iso_or_equiv
  _atom_site_type_symbol
  Cu1      1.0000 0.15958  0.61140  0.03423  Biso   1.000  Cu
  Cu2      1.0000 0.65958  0.88860  0.96577  Biso   1.000  Cu
  Cu3      1.0000 0.84042  0.11140  0.46577  Biso   1.000  Cu
  Cu4      1.0000 0.34042  0.38860  0.53423  Biso   1.000  Cu
  N1       1.0000 0.04620  0.56160  0.11463  Biso   1.000  N
  N2       1.0000 0.54620  0.93840  0.88537  Biso   1.000  N
  N3       1.0000 0.95380  0.06160  0.38537  Biso   1.000  N
  N4       1.0000 0.45380  0.43840  0.61463  Biso   1.000  N
  N5       1.0000 0.76820  0.87220  0.05057  Biso   1.000  N
  N6       1.0000 0.26820  0.62780  0.94943  Biso   1.000  N
  N7       1.0000 0.23180  0.37220  0.44943  Biso   1.000  N
  N8       1.0000 0.73180  0.12780  0.55057  Biso   1.000  N
  O1       1.0000 0.97320  0.37298  0.84623  Biso   1.000  O
  O2       1.0000 0.47320  0.12702  0.15377  Biso   1.000  O
  O3       1.0000 0.02680  0.87298  0.65377  Biso   1.000  O
  O4       1.0000 0.52680  0.62702  0.34623  Biso   1.000  O
  H1       1.0000 0.04700  0.32550  0.82980  Biso   1.000  H
  H2       1.0000 0.54700  0.17450  0.17020  Biso   1.000  H
  H3       1.0000 0.95300  0.82550  0.67020  Biso   1.000  H
  H4       1.0000 0.45300  0.67450  0.32980  Biso   1.000  H
  O5       1.0000 0.34020  0.79981  0.29723  Biso   1.000  O
  O6       1.0000 0.84020  0.70019  0.70277  Biso   1.000  O
  O7       1.0000 0.65980  0.29981  0.20277  Biso   1.000  O
  O8       1.0000 0.15980  0.20019  0.79723  Biso   1.000  O
  H5       1.0000 0.36970  0.85450  0.31620  Biso   1.000  H
  H6       1.0000 0.86970  0.64550  0.68380  Biso   1.000  H
  H7       1.0000 0.63030  0.35450  0.18380  Biso   1.000  H
  H8       1.0000 0.13030  0.14550  0.81620  Biso   1.000  H
  O9       1.0000 0.44390  0.56338  0.06607  Biso   1.000  O
  O10      1.0000 0.94390  0.93662  0.93393  Biso   1.000  O
  O11      1.0000 0.55610  0.06338  0.43393  Biso   1.000  O
  O12      1.0000 0.05610  0.43662  0.56607  Biso   1.000  O
  O13      1.0000 0.59130  0.46892  0.13994  Biso   1.000  O
  O14      1.0000 0.09130  0.03108  0.86006  Biso   1.000  O
  O15      1.0000 0.40870  0.96892  0.36006  Biso   1.000  O
  O16      1.0000 0.90870  0.53108  0.63994  Biso   1.000  O
  O17      1.0000 0.37910  0.84349  0.99785  Biso   1.000  O
  O18      1.0000 0.87910  0.65651  0.00215  Biso   1.000  O
  O19      1.0000 0.62090  0.34349  0.50215  Biso   1.000  O
  O20      1.0000 0.12090  0.15651  0.49785  Biso   1.000  O
  O21      1.0000 0.21740  0.77541  0.07843  Biso   1.000  O
  O22      1.0000 0.71740  0.72459  0.92157  Biso   1.000  O
  O23      1.0000 0.78260  0.27541  0.42157  Biso   1.000  O
  O24      1.0000 0.28260  0.22459  0.57843  Biso   1.000  O
  C1       1.0000 0.01890  0.37560  0.90729  Biso   1.000  C
  C2       1.0000 0.51890  0.12440  0.09271  Biso   1.000  C
  C3       1.0000 0.98110  0.87560  0.59271  Biso   1.000  C
  C4       1.0000 0.48110  0.62440  0.40729  Biso   1.000  C
  C5       1.0000 0.22070  0.34320  0.93129  Biso   1.000  C
  C6       1.0000 0.72070  0.15680  0.06871  Biso   1.000  C
  C7       1.0000 0.77930  0.84320  0.56871  Biso   1.000  C
  C8       1.0000 0.27930  0.65680  0.43129  Biso   1.000  C
  H9       1.0000 0.33460  0.31960  0.90510  Biso   1.000  H
  H10      1.0000 0.83460  0.18040  0.09490  Biso   1.000  H
  H11      1.0000 0.66540  0.81960  0.59490  Biso   1.000  H
  H12      1.0000 0.16540  0.68040  0.40510  Biso   1.000  H
  C9       1.0000 0.25550  0.34540  0.99335  Biso   1.000  C
  C10      1.0000 0.75550  0.15460  0.00665  Biso   1.000  C
  C11      1.0000 0.74450  0.84540  0.50665  Biso   1.000  C
  C12      1.0000 0.24450  0.65460  0.49335  Biso   1.000  C
  H13      1.0000 0.39380  0.32340  0.00920  Biso   1.000  H
  H14      1.0000 0.89380  0.17660  0.99080  Biso   1.000  H
  H15      1.0000 0.60620  0.82340  0.49080  Biso   1.000  H
  H16      1.0000 0.10620  0.67660  0.50920  Biso   1.000  H
  C13      1.0000 0.09050  0.37960  0.03311  Biso   1.000  C
  C14      1.0000 0.59050  0.12040  0.96689  Biso   1.000  C
  C15      1.0000 0.90950  0.87960  0.46689  Biso   1.000  C
  C16      1.0000 0.40950  0.62040  0.53311  Biso   1.000  C
  C17      1.0000 0.89070  0.41300  0.00775  Biso   1.000  C
  C18      1.0000 0.39070  0.08700  0.99225  Biso   1.000  C
  C19      1.0000 0.10930  0.91300  0.49225  Biso   1.000  C
  C20      1.0000 0.60930  0.58700  0.50775  Biso   1.000  C
  H17      1.0000 0.77580  0.43670  0.03360  Biso   1.000  H
  H18      1.0000 0.27580  0.06330  0.96640  Biso   1.000  H
  H19      1.0000 0.22420  0.93670  0.46640  Biso   1.000  H
  H20      1.0000 0.72420  0.56330  0.53360  Biso   1.000  H
  C21      1.0000 0.85700  0.41210  0.94554  Biso   1.000  C
  C22      1.0000 0.35700  0.08790  0.05446  Biso   1.000  C
  C23      1.0000 0.14300  0.91210  0.55446  Biso   1.000  C
  C24      1.0000 0.64300  0.58790  0.44554  Biso   1.000  C
  H21      1.0000 0.72140  0.43690  0.92930  Biso   1.000  H
  H22      1.0000 0.22140  0.06310  0.07070  Biso   1.000  H
  H23      1.0000 0.27860  0.93690  0.57070  Biso   1.000  H
  H24      1.0000 0.77860  0.56310  0.42930  Biso   1.000  H
  C25      1.0000 0.12100  0.37430  0.10126  Biso   1.000  C
  C26      1.0000 0.62100  0.12570  0.89874  Biso   1.000  C
  C27      1.0000 0.87900  0.87430  0.39874  Biso   1.000  C
  C28      1.0000 0.37900  0.62570  0.60126  Biso   1.000  C
  H25      1.0000 0.23240  0.32030  0.11030  Biso   1.000  H
  H26      1.0000 0.73240  0.17970  0.88970  Biso   1.000  H
  H27      1.0000 0.76760  0.82030  0.38970  Biso   1.000  H
  H28      1.0000 0.26760  0.67970  0.61030  Biso   1.000  H
  H29      1.0000 0.97950  0.35170  0.11960  Biso   1.000  H
  H30      1.0000 0.47950  0.14830  0.88040  Biso   1.000  H
  H31      1.0000 0.02050  0.85170  0.38040  Biso   1.000  H
  H32      1.0000 0.52050  0.64830  0.61960  Biso   1.000  H
  C29      1.0000 0.19380  0.47580  0.13244  Biso   1.000  C
  C30      1.0000 0.69380  0.02420  0.86756  Biso   1.000  C
  C31      1.0000 0.80620  0.97580  0.36756  Biso   1.000  C
  C32      1.0000 0.30620  0.52420  0.63244  Biso   1.000  C
  H33      1.0000 0.18990  0.46680  0.17740  Biso   1.000  H
  H34      1.0000 0.68990  0.03320  0.82260  Biso   1.000  H
  H35      1.0000 0.81010  0.96680  0.32260  Biso   1.000  H
  H36      1.0000 0.31010  0.53320  0.67740  Biso   1.000  H
  C33      1.0000 0.42840  0.50540  0.11236  Biso   1.000  C
  C34      1.0000 0.92840  0.99460  0.88764  Biso   1.000  C
  C35      1.0000 0.57160  0.00540  0.38764  Biso   1.000  C
  C36      1.0000 0.07160  0.49460  0.61236  Biso   1.000  C
  C37      1.0000 0.15580  0.81540  0.26161  Biso   1.000  C
  C38      1.0000 0.65580  0.68460  0.73839  Biso   1.000  C
  C39      1.0000 0.84420  0.31540  0.23839  Biso   1.000  C
  C40      1.0000 0.34420  0.18460  0.76161  Biso   1.000  C
  C41      1.0000 0.11150  0.91000  0.23455  Biso   1.000  C
  C42      1.0000 0.61150  0.59000  0.76545  Biso   1.000  C
  C43      1.0000 0.88850  0.41000  0.26545  Biso   1.000  C
  C44      1.0000 0.38850  0.09000  0.73455  Biso   1.000  C
  H37      1.0000 0.20850  0.96710  0.24030  Biso   1.000  H
  H38      1.0000 0.70850  0.53290  0.75970  Biso   1.000  H
  H39      1.0000 0.79150  0.46710  0.25970  Biso   1.000  H
  H40      1.0000 0.29150  0.03290  0.74030  Biso   1.000  H
  C45      1.0000 0.92380  0.92050  0.19893  Biso   1.000  C
  C46      1.0000 0.42380  0.57950  0.80107  Biso   1.000  C
  C47      1.0000 0.07620  0.42050  0.30107  Biso   1.000  C
  C48      1.0000 0.57620  0.07950  0.69893  Biso   1.000  C
  H41      1.0000 0.89420  0.98540  0.18030  Biso   1.000  H
  H42      1.0000 0.39420  0.51460  0.81970  Biso   1.000  H
  H43      1.0000 0.10580  0.48540  0.31970  Biso   1.000  H
  H44      1.0000 0.60580  0.01460  0.68030  Biso   1.000  H
  C49      1.0000 0.77870  0.83920  0.18982  Biso   1.000  C
  C50      1.0000 0.27870  0.66080  0.81018  Biso   1.000  C
  C51      1.0000 0.22130  0.33920  0.31018  Biso   1.000  C
  C52      1.0000 0.72130  0.16080  0.68982  Biso   1.000  C
  C53      1.0000 0.82660  0.74410  0.21699  Biso   1.000  C
  C54      1.0000 0.32660  0.75590  0.78301  Biso   1.000  C
  C55      1.0000 0.17340  0.24410  0.28301  Biso   1.000  C
  C56      1.0000 0.67340  0.25590  0.71699  Biso   1.000  C
  H45      1.0000 0.72990  0.68700  0.21110  Biso   1.000  H
  H46      1.0000 0.22990  0.81300  0.78890  Biso   1.000  H
  H47      1.0000 0.27010  0.18700  0.28890  Biso   1.000  H
  H48      1.0000 0.77010  0.31300  0.71110  Biso   1.000  H
  C57      1.0000 0.01440  0.73230  0.25265  Biso   1.000  C
  C58      1.0000 0.51440  0.76770  0.74735  Biso   1.000  C
  C59      1.0000 0.98560  0.23230  0.24735  Biso   1.000  C
  C60      1.0000 0.48560  0.26770  0.75265  Biso   1.000  C
  H49      1.0000 0.04580  0.66730  0.27090  Biso   1.000  H
  H50      1.0000 0.54580  0.83270  0.72910  Biso   1.000  H
  H51      1.0000 0.95420  0.16730  0.22910  Biso   1.000  H
  H52      1.0000 0.45420  0.33270  0.77090  Biso   1.000  H
  C61      1.0000 0.57580  0.85030  0.15071  Biso   1.000  C
  C62      1.0000 0.07580  0.64970  0.84929  Biso   1.000  C
  C63      1.0000 0.42420  0.35030  0.34929  Biso   1.000  C
  C64      1.0000 0.92420  0.14970  0.65071  Biso   1.000  C
  H53      1.0000 0.53220  0.92430  0.14980  Biso   1.000  H
  H54      1.0000 0.03220  0.57570  0.85020  Biso   1.000  H
  H55      1.0000 0.46780  0.42430  0.35020  Biso   1.000  H
  H56      1.0000 0.96780  0.07570  0.64980  Biso   1.000  H
  H57      1.0000 0.45320  0.81110  0.16960  Biso   1.000  H
  H58      1.0000 0.95320  0.68890  0.83040  Biso   1.000  H
  H59      1.0000 0.54680  0.31110  0.33040  Biso   1.000  H
  H60      1.0000 0.04680  0.18890  0.66960  Biso   1.000  H
  C65      1.0000 0.60500  0.81270  0.08579  Biso   1.000  C
  C66      1.0000 0.10500  0.68730  0.91421  Biso   1.000  C
  C67      1.0000 0.39500  0.31270  0.41421  Biso   1.000  C
  C68      1.0000 0.89500  0.18730  0.58579  Biso   1.000  C
  H61      1.0000 0.65860  0.73940  0.08770  Biso   1.000  H
  H62      1.0000 0.15860  0.76060  0.91230  Biso   1.000  H
  H63      1.0000 0.34140  0.23940  0.41230  Biso   1.000  H
  H64      1.0000 0.84140  0.26060  0.58770  Biso   1.000  H
  C69      1.0000 0.38140  0.81180  0.05231  Biso   1.000  C
  C70      1.0000 0.88140  0.68820  0.94769  Biso   1.000  C
  C71      1.0000 0.61860  0.31180  0.44769  Biso   1.000  C
  C72      1.0000 0.11860  0.18820  0.55231  Biso   1.000  C
  H65      1.0000 0.90500  0.53900  0.11400  Biso   1.000  H
  H66      1.0000 0.40500  0.96100  0.88600  Biso   1.000  H
  H67      1.0000 0.09500  0.03900  0.38600  Biso   1.000  H
  H68      1.0000 0.59500  0.46100  0.61400  Biso   1.000  H
  H69      1.0000 0.78500  0.93970  0.06000  Biso   1.000  H
  H70      1.0000 0.28500  0.56030  0.94000  Biso   1.000  H
  H71      1.0000 0.21500  0.43970  0.44000  Biso   1.000  H
  H72      1.0000 0.71500  0.06030  0.56000  Biso   1.000  H
  H73      1.0000 0.06600  0.61670  0.13900  Biso   1.000  H
  H74      1.0000 0.56600  0.88330  0.86100  Biso   1.000  H
  H75      1.0000 0.93400  0.11670  0.36100  Biso   1.000  H
  H76      1.0000 0.43400  0.38330  0.63900  Biso   1.000  H
  H77      1.0000 0.90400  0.84500  0.05300  Biso   1.000  H
  H78      1.0000 0.40400  0.65500  0.94700  Biso   1.000  H
  H79      1.0000 0.09600  0.34500  0.44700  Biso   1.000  H
  H80      1.0000 0.59600  0.15500  0.55300  Biso   1.000  H
