data_image0
_cell_length_a       8.646
_cell_length_b       9.6246
_cell_length_c       9.6615
_cell_angle_alpha    65.711
_cell_angle_beta     78.619
_cell_angle_gamma    88.191

_symmetry_space_group_name_H-M    "P 1"
_symmetry_int_tables_number       1

loop_
  _symmetry_equiv_pos_as_xyz
  'x, y, z'

loop_
  _atom_site_label
  _atom_site_occupancy
  _atom_site_fract_x
  _atom_site_fract_y
  _atom_site_fract_z
  _atom_site_thermal_displace_type
  _atom_site_B_iso_or_equiv
  _atom_site_type_symbol
  Cu1      1.0000 0.00000  0.00000  0.50000  Biso   1.000  Cu
  F1       1.0000 0.15660  0.32010  0.99060  Biso   1.000  F
  F2       1.0000 0.84340  0.67990  0.00940  Biso   1.000  F
  F3       1.0000 0.35380  0.36010  0.07470  Biso   1.000  F
  F4       1.0000 0.64620  0.63990  0.92530  Biso   1.000  F
  F5       1.0000 0.17930  0.52517  0.02120  Biso   1.000  F
  F6       1.0000 0.82070  0.47483  0.97880  Biso   1.000  F
  N1       1.0000 0.82070  0.02730  0.33120  Biso   1.000  N
  N2       1.0000 0.17930  0.97270  0.66880  Biso   1.000  N
  O1       1.0000 0.14160  0.15236  0.30880  Biso   1.000  O
  O2       1.0000 0.85840  0.84764  0.69120  Biso   1.000  O
  O3       1.0000 0.90130  0.16151  0.55026  Biso   1.000  O
  O4       1.0000 0.09870  0.83849  0.44974  Biso   1.000  O
  C1       1.0000 0.19870  0.37660  0.08390  Biso   1.000  C
  C2       1.0000 0.80130  0.62340  0.91610  Biso   1.000  C
  C3       1.0000 0.10670  0.29090  0.24930  Biso   1.000  C
  C4       1.0000 0.89330  0.70910  0.75070  Biso   1.000  C
  C5       1.0000 0.99860  0.36850  0.31130  Biso   1.000  C
  C6       1.0000 0.00140  0.63150  0.68870  Biso   1.000  C
  H1       1.0000 0.98780  0.47100  0.25070  Biso   1.000  H
  H2       1.0000 0.01220  0.52900  0.74930  Biso   1.000  H
  C7       1.0000 0.90380  0.30230  0.46020  Biso   1.000  C
  C8       1.0000 0.09620  0.69770  0.53980  Biso   1.000  C
  C9       1.0000 0.79530  0.39560  0.52370  Biso   1.000  C
  C10      1.0000 0.20470  0.60440  0.47630  Biso   1.000  C
  C11      1.0000 0.76850  0.54720  0.43660  Biso   1.000  C
  C12      1.0000 0.23150  0.45280  0.56340  Biso   1.000  C
  H3       1.0000 0.82300  0.59660  0.33460  Biso   1.000  H
  H4       1.0000 0.17700  0.40340  0.66540  Biso   1.000  H
  C13      1.0000 0.66140  0.62500  0.50040  Biso   1.000  C
  C14      1.0000 0.33860  0.37500  0.49960  Biso   1.000  C
  H5       1.0000 0.64360  0.72590  0.44050  Biso   1.000  H
  H6       1.0000 0.35640  0.27410  0.55950  Biso   1.000  H
  C15      1.0000 0.58220  0.55580  0.64960  Biso   1.000  C
  C16      1.0000 0.41780  0.44420  0.35040  Biso   1.000  C
  H7       1.0000 0.50980  0.60870  0.69150  Biso   1.000  H
  H8       1.0000 0.49020  0.39130  0.30850  Biso   1.000  H
  C17      1.0000 0.60940  0.40700  0.73860  Biso   1.000  C
  C18      1.0000 0.39060  0.59300  0.26140  Biso   1.000  C
  H9       1.0000 0.55650  0.35940  0.84130  Biso   1.000  H
  H10      1.0000 0.44350  0.64060  0.15870  Biso   1.000  H
  C19      1.0000 0.71540  0.32850  0.67510  Biso   1.000  C
  C20      1.0000 0.28460  0.67150  0.32490  Biso   1.000  C
  H11      1.0000 0.73310  0.22790  0.73610  Biso   1.000  H
  H12      1.0000 0.26690  0.77210  0.26390  Biso   1.000  H
  C21      1.0000 0.67490  0.07540  0.34970  Biso   1.000  C
  C22      1.0000 0.32510  0.92460  0.65030  Biso   1.000  C
  H13      1.0000 0.64460  0.11140  0.42620  Biso   1.000  H
  H14      1.0000 0.35540  0.88860  0.57380  Biso   1.000  H
  C23      1.0000 0.56660  0.07540  0.26370  Biso   1.000  C
  C24      1.0000 0.43340  0.92460  0.73630  Biso   1.000  C
  H15      1.0000 0.46590  0.10840  0.28420  Biso   1.000  H
  H16      1.0000 0.53410  0.89160  0.71580  Biso   1.000  H
  C25      1.0000 0.60780  0.02590  0.14580  Biso   1.000  C
  C26      1.0000 0.39220  0.97410  0.85420  Biso   1.000  C
  C27      1.0000 0.76170  0.97950  0.12210  Biso   1.000  C
  C28      1.0000 0.23830  0.02050  0.87790  Biso   1.000  C
  H17      1.0000 0.79660  0.94710  0.04340  Biso   1.000  H
  H18      1.0000 0.20340  0.05290  0.95660  Biso   1.000  H
  C29      1.0000 0.86180  0.98190  0.21650  Biso   1.000  C
  C30      1.0000 0.13820  0.01810  0.78350  Biso   1.000  C
  H19      1.0000 0.96360  0.95000  0.19910  Biso   1.000  H
  H20      1.0000 0.03640  0.05000  0.80090  Biso   1.000  H
  C31      1.0000 0.49000  0.02330  0.05550  Biso   1.000  C
  C32      1.0000 0.51000  0.97670  0.94450  Biso   1.000  C
  H21      1.0000 0.39140  0.05840  0.08020  Biso   1.000  H
  H22      1.0000 0.60860  0.94160  0.91980  Biso   1.000  H
