data_image0
_cell_length_a       14.061
_cell_length_b       9.133
_cell_length_c       21.894
_cell_angle_alpha    90
_cell_angle_beta     99.58
_cell_angle_gamma    90

_symmetry_space_group_name_H-M    "P 1"
_symmetry_int_tables_number       1

loop_
  _symmetry_equiv_pos_as_xyz
  'x, y, z'

loop_
  _atom_site_label
  _atom_site_occupancy
  _atom_site_fract_x
  _atom_site_fract_y
  _atom_site_fract_z
  _atom_site_thermal_displace_type
  _atom_site_B_iso_or_equiv
  _atom_site_type_symbol
  Cu1      1.0000 0.51094  0.37443  0.32173  Biso   1.000  Cu
  Cu2      1.0000 0.98906  0.87443  0.17827  Biso   1.000  Cu
  Cu3      1.0000 0.48906  0.62557  0.67827  Biso   1.000  Cu
  Cu4      1.0000 0.01094  0.12557  0.82173  Biso   1.000  Cu
  C1       1.0000 0.34900  0.49970  0.24154  Biso   1.000  C
  C2       1.0000 0.15100  0.99970  0.25846  Biso   1.000  C
  C3       1.0000 0.65100  0.50030  0.75846  Biso   1.000  C
  C4       1.0000 0.84900  0.00030  0.74154  Biso   1.000  C
  C5       1.0000 0.40680  0.62870  0.27300  Biso   1.000  C
  C6       1.0000 0.09320  0.12870  0.22700  Biso   1.000  C
  C7       1.0000 0.59320  0.37130  0.72700  Biso   1.000  C
  C8       1.0000 0.90680  0.87130  0.77300  Biso   1.000  C
  C9       1.0000 0.55040  0.68370  0.33888  Biso   1.000  C
  C10      1.0000 0.94960  0.18370  0.16112  Biso   1.000  C
  C11      1.0000 0.44960  0.31630  0.66112  Biso   1.000  C
  C12      1.0000 0.05040  0.81630  0.83888  Biso   1.000  C
  C13      1.0000 0.64100  0.61140  0.37480  Biso   1.000  C
  C14      1.0000 0.85900  0.11140  0.12520  Biso   1.000  C
  C15      1.0000 0.35900  0.38860  0.62520  Biso   1.000  C
  C16      1.0000 0.14100  0.88860  0.87480  Biso   1.000  C
  C17      1.0000 0.53270  0.83210  0.33170  Biso   1.000  C
  C18      1.0000 0.96730  0.33210  0.16830  Biso   1.000  C
  C19      1.0000 0.46730  0.16790  0.66830  Biso   1.000  C
  C20      1.0000 0.03270  0.66790  0.83170  Biso   1.000  C
  H1       1.0000 0.57660  0.90010  0.35150  Biso   1.000  H
  H2       1.0000 0.92340  0.40010  0.14850  Biso   1.000  H
  H3       1.0000 0.42340  0.09990  0.64850  Biso   1.000  H
  H4       1.0000 0.07660  0.59990  0.85150  Biso   1.000  H
  C21      1.0000 0.38460  0.77390  0.26340  Biso   1.000  C
  C22      1.0000 0.11540  0.27390  0.23660  Biso   1.000  C
  C23      1.0000 0.61540  0.22610  0.73660  Biso   1.000  C
  C24      1.0000 0.88460  0.72610  0.76340  Biso   1.000  C
  H5       1.0000 0.32890  0.80280  0.23710  Biso   1.000  H
  H6       1.0000 0.17110  0.30280  0.26290  Biso   1.000  H
  H7       1.0000 0.67110  0.19720  0.76290  Biso   1.000  H
  H8       1.0000 0.82890  0.69720  0.73710  Biso   1.000  H
  C25      1.0000 0.44910  0.87770  0.29480  Biso   1.000  C
  C26      1.0000 0.05090  0.37770  0.20520  Biso   1.000  C
  C27      1.0000 0.55090  0.12230  0.70520  Biso   1.000  C
  C28      1.0000 0.94910  0.62230  0.79480  Biso   1.000  C
  H9       1.0000 0.43510  0.97710  0.29050  Biso   1.000  H
  H10      1.0000 0.06490  0.47710  0.20950  Biso   1.000  H
  H11      1.0000 0.56490  0.02290  0.70950  Biso   1.000  H
  H12      1.0000 0.93510  0.52290  0.79050  Biso   1.000  H
  C29      1.0000 0.99360  0.77530  0.48037  Biso   1.000  C
  C30      1.0000 0.50640  0.27530  0.01963  Biso   1.000  C
  C31      1.0000 0.00640  0.22470  0.51963  Biso   1.000  C
  C32      1.0000 0.49360  0.72470  0.98037  Biso   1.000  C
  C33      1.0000 0.93160  0.83050  0.42918  Biso   1.000  C
  C34      1.0000 0.56840  0.33050  0.07082  Biso   1.000  C
  C35      1.0000 0.06840  0.16950  0.57082  Biso   1.000  C
  C36      1.0000 0.43160  0.66950  0.92918  Biso   1.000  C
  H13      1.0000 0.86790  0.79830  0.42110  Biso   1.000  H
  H14      1.0000 0.63210  0.29830  0.07890  Biso   1.000  H
  H15      1.0000 0.13210  0.20170  0.57890  Biso   1.000  H
  H16      1.0000 0.36790  0.70170  0.92110  Biso   1.000  H
  C37      1.0000 0.96310  0.93230  0.39010  Biso   1.000  C
  C38      1.0000 0.53690  0.43230  0.10990  Biso   1.000  C
  C39      1.0000 0.03690  0.06770  0.60990  Biso   1.000  C
  C40      1.0000 0.46310  0.56770  0.89010  Biso   1.000  C
  C41      1.0000 0.05890  0.98060  0.40190  Biso   1.000  C
  C42      1.0000 0.44110  0.48060  0.09810  Biso   1.000  C
  C43      1.0000 0.94110  0.01940  0.59810  Biso   1.000  C
  C44      1.0000 0.55890  0.51940  0.90190  Biso   1.000  C
  H17      1.0000 0.08080  0.04720  0.37520  Biso   1.000  H
  H18      1.0000 0.41920  0.54720  0.12480  Biso   1.000  H
  H19      1.0000 0.91920  0.95280  0.62480  Biso   1.000  H
  H20      1.0000 0.58080  0.45280  0.87520  Biso   1.000  H
  C45      1.0000 0.12110  0.92960  0.45299  Biso   1.000  C
  C46      1.0000 0.37890  0.42960  0.04701  Biso   1.000  C
  C47      1.0000 0.87890  0.07040  0.54701  Biso   1.000  C
  C48      1.0000 0.62110  0.57040  0.95299  Biso   1.000  C
  C49      1.0000 0.08790  0.82660  0.49210  Biso   1.000  C
  C50      1.0000 0.41210  0.32660  0.00790  Biso   1.000  C
  C51      1.0000 0.91210  0.17340  0.50790  Biso   1.000  C
  C52      1.0000 0.58790  0.67340  0.99210  Biso   1.000  C
  H21      1.0000 0.12970  0.79220  0.52660  Biso   1.000  H
  H22      1.0000 0.37030  0.29220  0.97340  Biso   1.000  H
  H23      1.0000 0.87030  0.20780  0.47340  Biso   1.000  H
  H24      1.0000 0.62970  0.70780  0.02660  Biso   1.000  H
  C53      1.0000 0.96360  0.67040  0.52650  Biso   1.000  C
  C54      1.0000 0.53640  0.17040  0.97350  Biso   1.000  C
  C55      1.0000 0.03640  0.32960  0.47350  Biso   1.000  C
  C56      1.0000 0.46360  0.82960  0.02650  Biso   1.000  C
  C57      1.0000 0.89670  0.99400  0.33670  Biso   1.000  C
  C58      1.0000 0.60330  0.49400  0.16330  Biso   1.000  C
  C59      1.0000 0.10330  0.00600  0.66330  Biso   1.000  C
  C60      1.0000 0.39670  0.50600  0.83670  Biso   1.000  C
  C61      1.0000 0.22100  0.98990  0.47470  Biso   1.000  C
  C62      1.0000 0.27900  0.48990  0.02530  Biso   1.000  C
  C63      1.0000 0.77900  0.01010  0.52530  Biso   1.000  C
  C64      1.0000 0.72100  0.51010  0.97470  Biso   1.000  C
  C65      1.0000 0.35250  0.13070  0.44110  Biso   1.000  C
  C66      1.0000 0.14750  0.63070  0.05890  Biso   1.000  C
  C67      1.0000 0.64750  0.86930  0.55890  Biso   1.000  C
  C68      1.0000 0.85250  0.36930  0.94110  Biso   1.000  C
  C69      1.0000 0.38240  0.19920  0.39130  Biso   1.000  C
  C70      1.0000 0.11760  0.69920  0.10870  Biso   1.000  C
  C71      1.0000 0.61760  0.80080  0.60870  Biso   1.000  C
  C72      1.0000 0.88240  0.30080  0.89130  Biso   1.000  C
  H25      1.0000 0.34300  0.19210  0.35290  Biso   1.000  H
  H26      1.0000 0.15700  0.69210  0.14710  Biso   1.000  H
  H27      1.0000 0.65700  0.80790  0.64710  Biso   1.000  H
  H28      1.0000 0.84300  0.30790  0.85290  Biso   1.000  H
  C73      1.0000 0.51860  0.28930  0.45150  Biso   1.000  C
  C74      1.0000 0.98140  0.78930  0.04850  Biso   1.000  C
  C75      1.0000 0.48140  0.71070  0.54850  Biso   1.000  C
  C76      1.0000 0.01860  0.21070  0.95150  Biso   1.000  C
  H29      1.0000 0.57520  0.34360  0.45590  Biso   1.000  H
  H30      1.0000 0.92480  0.84360  0.04410  Biso   1.000  H
  H31      1.0000 0.42480  0.65640  0.54410  Biso   1.000  H
  H32      1.0000 0.07520  0.15640  0.95590  Biso   1.000  H
  C77      1.0000 0.49290  0.22620  0.50300  Biso   1.000  C
  C78      1.0000 0.00710  0.72620  0.99700  Biso   1.000  C
  C79      1.0000 0.50710  0.77380  0.49700  Biso   1.000  C
  C80      1.0000 0.99290  0.27380  0.00300  Biso   1.000  C
  H33      1.0000 0.53200  0.23760  0.54130  Biso   1.000  H
  H34      1.0000 0.96800  0.73760  0.95870  Biso   1.000  H
  H35      1.0000 0.46800  0.76240  0.45870  Biso   1.000  H
  H36      1.0000 0.03200  0.26240  0.04130  Biso   1.000  H
  C81      1.0000 0.40900  0.14600  0.49820  Biso   1.000  C
  C82      1.0000 0.09100  0.64600  0.00180  Biso   1.000  C
  C83      1.0000 0.59100  0.85400  0.50180  Biso   1.000  C
  C84      1.0000 0.90900  0.35400  0.99820  Biso   1.000  C
  H37      1.0000 0.39100  0.10290  0.53300  Biso   1.000  H
  H38      1.0000 0.10900  0.60290  0.96700  Biso   1.000  H
  H39      1.0000 0.60900  0.89710  0.46700  Biso   1.000  H
  H40      1.0000 0.89100  0.39710  0.03300  Biso   1.000  H
  C85      1.0000 0.82930  0.52890  0.55470  Biso   1.000  C
  C86      1.0000 0.67070  0.02890  0.94530  Biso   1.000  C
  C87      1.0000 0.17070  0.47110  0.44530  Biso   1.000  C
  C88      1.0000 0.32930  0.97110  0.05470  Biso   1.000  C
  C89      1.0000 0.81580  0.40190  0.64760  Biso   1.000  C
  C90      1.0000 0.68420  0.90190  0.85240  Biso   1.000  C
  C91      1.0000 0.18420  0.59810  0.35240  Biso   1.000  C
  C92      1.0000 0.31580  0.09810  0.14760  Biso   1.000  C
  H41      1.0000 0.83710  0.38360  0.68940  Biso   1.000  H
  H42      1.0000 0.66290  0.88360  0.81060  Biso   1.000  H
  H43      1.0000 0.16290  0.61640  0.31060  Biso   1.000  H
  H44      1.0000 0.33710  0.11640  0.18940  Biso   1.000  H
  C93      1.0000 0.86180  0.50720  0.61670  Biso   1.000  C
  C94      1.0000 0.63820  0.00720  0.88330  Biso   1.000  C
  C95      1.0000 0.13820  0.49280  0.38330  Biso   1.000  C
  C96      1.0000 0.36180  0.99280  0.11670  Biso   1.000  C
  H45      1.0000 0.91310  0.56140  0.63760  Biso   1.000  H
  H46      1.0000 0.58690  0.06140  0.86240  Biso   1.000  H
  H47      1.0000 0.08690  0.43860  0.36240  Biso   1.000  H
  H48      1.0000 0.41310  0.93860  0.13760  Biso   1.000  H
  C97      1.0000 0.75130  0.44820  0.52730  Biso   1.000  C
  C98      1.0000 0.74870  0.94820  0.97270  Biso   1.000  C
  C99      1.0000 0.24870  0.55180  0.47270  Biso   1.000  C
  C100     1.0000 0.25130  0.05180  0.02730  Biso   1.000  C
  H49      1.0000 0.72760  0.46570  0.48580  Biso   1.000  H
  H50      1.0000 0.77240  0.96570  0.01420  Biso   1.000  H
  H51      1.0000 0.27240  0.53430  0.51420  Biso   1.000  H
  H52      1.0000 0.22760  0.03430  0.98580  Biso   1.000  H
  C101     1.0000 0.73970  0.32610  0.61630  Biso   1.000  C
  C102     1.0000 0.76030  0.82610  0.88370  Biso   1.000  C
  C103     1.0000 0.26030  0.67390  0.38370  Biso   1.000  C
  C104     1.0000 0.23970  0.17390  0.11630  Biso   1.000  C
  H53      1.0000 0.70920  0.25720  0.63770  Biso   1.000  H
  H54      1.0000 0.79080  0.75720  0.86230  Biso   1.000  H
  H55      1.0000 0.29080  0.74280  0.36230  Biso   1.000  H
  H56      1.0000 0.20920  0.24280  0.13770  Biso   1.000  H
  C105     1.0000 0.72800  0.06600  0.30300  Biso   1.000  C
  C106     1.0000 0.77200  0.56600  0.19700  Biso   1.000  C
  C107     1.0000 0.27200  0.93400  0.69700  Biso   1.000  C
  C108     1.0000 0.22800  0.43400  0.80300  Biso   1.000  C
  C109     1.0000 0.66530  0.16420  0.32340  Biso   1.000  C
  C110     1.0000 0.83470  0.66420  0.17660  Biso   1.000  C
  C111     1.0000 0.33470  0.83580  0.67660  Biso   1.000  C
  C112     1.0000 0.16530  0.33580  0.82340  Biso   1.000  C
  H57      1.0000 0.67820  0.19590  0.36430  Biso   1.000  H
  H58      1.0000 0.82180  0.69590  0.13570  Biso   1.000  H
  H59      1.0000 0.32180  0.80410  0.63570  Biso   1.000  H
  H60      1.0000 0.17820  0.30410  0.86430  Biso   1.000  H
  C113     1.0000 0.71060  0.02210  0.24150  Biso   1.000  C
  C114     1.0000 0.78940  0.52210  0.25850  Biso   1.000  C
  C115     1.0000 0.28940  0.97790  0.75850  Biso   1.000  C
  C116     1.0000 0.21060  0.47790  0.74150  Biso   1.000  C
  H61      1.0000 0.75300  0.95940  0.22600  Biso   1.000  H
  H62      1.0000 0.74700  0.45940  0.27400  Biso   1.000  H
  H63      1.0000 0.24700  0.04060  0.77400  Biso   1.000  H
  H64      1.0000 0.25300  0.54060  0.72600  Biso   1.000  H
  C117     1.0000 0.56910  0.17040  0.22710  Biso   1.000  C
  C118     1.0000 0.93090  0.67040  0.27290  Biso   1.000  C
  C119     1.0000 0.43090  0.82960  0.77290  Biso   1.000  C
  C120     1.0000 0.06910  0.32960  0.72710  Biso   1.000  C
  H65      1.0000 0.51490  0.20540  0.20100  Biso   1.000  H
  H66      1.0000 0.98510  0.70540  0.29900  Biso   1.000  H
  H67      1.0000 0.48510  0.79460  0.79900  Biso   1.000  H
  H68      1.0000 0.01490  0.29460  0.70100  Biso   1.000  H
  C121     1.0000 0.62890  0.07390  0.20380  Biso   1.000  C
  C122     1.0000 0.87110  0.57390  0.29620  Biso   1.000  C
  C123     1.0000 0.37110  0.92610  0.79620  Biso   1.000  C
  C124     1.0000 0.12890  0.42610  0.70380  Biso   1.000  C
  H69      1.0000 0.61450  0.04360  0.16280  Biso   1.000  H
  H70      1.0000 0.88550  0.54360  0.33720  Biso   1.000  H
  H71      1.0000 0.38550  0.95640  0.83720  Biso   1.000  H
  H72      1.0000 0.11450  0.45640  0.66280  Biso   1.000  H
  N1       1.0000 0.48660  0.58580  0.31171  Biso   1.000  N
  N2       1.0000 0.01340  0.08580  0.18829  Biso   1.000  N
  N3       1.0000 0.51340  0.41420  0.68829  Biso   1.000  N
  N4       1.0000 0.98660  0.91420  0.81171  Biso   1.000  N
  N5       1.0000 0.46560  0.27600  0.39513  Biso   1.000  N
  N6       1.0000 0.03440  0.77600  0.10487  Biso   1.000  N
  N7       1.0000 0.53440  0.72400  0.60487  Biso   1.000  N
  N8       1.0000 0.96560  0.22400  0.89513  Biso   1.000  N
  N9       1.0000 0.70730  0.34670  0.55620  Biso   1.000  N
  N10      1.0000 0.79270  0.84670  0.94380  Biso   1.000  N
  N11      1.0000 0.29270  0.65330  0.44380  Biso   1.000  N
  N12      1.0000 0.20730  0.15330  0.05620  Biso   1.000  N
  N13      1.0000 0.58600  0.21580  0.28624  Biso   1.000  N
  N14      1.0000 0.91400  0.71580  0.21376  Biso   1.000  N
  N15      1.0000 0.41400  0.78420  0.71376  Biso   1.000  N
  N16      1.0000 0.08600  0.28420  0.78624  Biso   1.000  N
  O1       1.0000 0.37950  0.37270  0.25900  Biso   1.000  O
  O2       1.0000 0.12050  0.87270  0.24100  Biso   1.000  O
  O3       1.0000 0.62050  0.62730  0.74100  Biso   1.000  O
  O4       1.0000 0.87950  0.12730  0.75900  Biso   1.000  O
  O5       1.0000 0.27820  0.52700  0.20075  Biso   1.000  O
  O6       1.0000 0.22180  0.02700  0.29925  Biso   1.000  O
  O7       1.0000 0.72180  0.47300  0.79925  Biso   1.000  O
  O8       1.0000 0.77820  0.97300  0.70075  Biso   1.000  O
  O9       1.0000 0.64060  0.47330  0.37394  Biso   1.000  O
  O10      1.0000 0.85940  0.97330  0.12606  Biso   1.000  O
  O11      1.0000 0.35940  0.52670  0.62606  Biso   1.000  O
  O12      1.0000 0.14060  0.02670  0.87394  Biso   1.000  O
  O13      1.0000 0.70670  0.69150  0.40001  Biso   1.000  O
  O14      1.0000 0.79330  0.19150  0.09999  Biso   1.000  O
  O15      1.0000 0.29330  0.30850  0.59999  Biso   1.000  O
  O16      1.0000 0.20670  0.80850  0.90001  Biso   1.000  O
  O17      1.0000 0.02170  0.63000  0.57062  Biso   1.000  O
  O18      1.0000 0.47830  0.13000  0.92938  Biso   1.000  O
  O19      1.0000 0.97830  0.37000  0.42938  Biso   1.000  O
  O20      1.0000 0.52170  0.87000  0.07062  Biso   1.000  O
  O21      1.0000 0.92120  0.02180  0.28706  Biso   1.000  O
  O22      1.0000 0.57880  0.52180  0.21294  Biso   1.000  O
  O23      1.0000 0.07880  0.97820  0.71294  Biso   1.000  O
  O24      1.0000 0.42120  0.47820  0.78706  Biso   1.000  O
  O25      1.0000 0.25620  0.98420  0.52958  Biso   1.000  O
  O26      1.0000 0.24380  0.48420  0.97042  Biso   1.000  O
  O27      1.0000 0.74380  0.01580  0.47042  Biso   1.000  O
  O28      1.0000 0.75620  0.51580  0.02958  Biso   1.000  O
  N17      1.0000 0.26390  0.05290  0.43033  Biso   1.000  N
  N18      1.0000 0.23610  0.55290  0.06967  Biso   1.000  N
  N19      1.0000 0.73610  0.94710  0.56967  Biso   1.000  N
  N20      1.0000 0.76390  0.44710  0.93033  Biso   1.000  N
  H73      1.0000 0.24600  0.03600  0.39200  Biso   1.000  H
  H74      1.0000 0.25400  0.53600  0.10800  Biso   1.000  H
  H75      1.0000 0.75400  0.96400  0.60800  Biso   1.000  H
  H76      1.0000 0.74600  0.46400  0.89200  Biso   1.000  H
  N21      1.0000 0.86940  0.62920  0.51735  Biso   1.000  N
  N22      1.0000 0.63060  0.12920  0.98265  Biso   1.000  N
  N23      1.0000 0.13060  0.37080  0.48265  Biso   1.000  N
  N24      1.0000 0.36940  0.87080  0.01735  Biso   1.000  N
  H77      1.0000 0.83300  0.66300  0.48690  Biso   1.000  H
  H78      1.0000 0.66700  0.16300  0.01310  Biso   1.000  H
  H79      1.0000 0.16700  0.33700  0.51310  Biso   1.000  H
  H80      1.0000 0.33300  0.83700  0.98690  Biso   1.000  H
  N25      1.0000 0.80510  0.01270  0.34721  Biso   1.000  N
  N26      1.0000 0.69490  0.51270  0.15279  Biso   1.000  N
  N27      1.0000 0.19490  0.98730  0.65279  Biso   1.000  N
  N28      1.0000 0.30510  0.48730  0.84721  Biso   1.000  N
  H81      1.0000 0.79500  0.01100  0.38440  Biso   1.000  H
  H82      1.0000 0.70500  0.51100  0.11560  Biso   1.000  H
  H83      1.0000 0.20500  0.98900  0.61560  Biso   1.000  H
  H84      1.0000 0.29500  0.48900  0.88440  Biso   1.000  H
