data_image0
_cell_length_a       8.8911
_cell_length_b       11.76
_cell_length_c       15.348
_cell_angle_alpha    96.73
_cell_angle_beta     105.96
_cell_angle_gamma    106.47

_symmetry_space_group_name_H-M    "P 1"
_symmetry_int_tables_number       1

loop_
  _symmetry_equiv_pos_as_xyz
  'x, y, z'

loop_
  _atom_site_label
  _atom_site_occupancy
  _atom_site_fract_x
  _atom_site_fract_y
  _atom_site_fract_z
  _atom_site_thermal_displace_type
  _atom_site_B_iso_or_equiv
  _atom_site_type_symbol
  Cu1      1.0000 0.76889  0.22700  0.72770  Biso   1.000  Cu
  Cu2      1.0000 0.23111  0.77300  0.27230  Biso   1.000  Cu
  C1       1.0000 0.89930  0.49690  0.79160  Biso   1.000  C
  C2       1.0000 0.10070  0.50310  0.20840  Biso   1.000  C
  H1       1.0000 0.93090  0.49430  0.73870  Biso   1.000  H
  H2       1.0000 0.06910  0.50570  0.26130  Biso   1.000  H
  C3       1.0000 0.92770  0.60790  0.84497  Biso   1.000  C
  C4       1.0000 0.07230  0.39210  0.15503  Biso   1.000  C
  H3       1.0000 0.97900  0.67890  0.82860  Biso   1.000  H
  H4       1.0000 0.02100  0.32110  0.17140  Biso   1.000  H
  C5       1.0000 0.87970  0.61310  0.92250  Biso   1.000  C
  C6       1.0000 0.12030  0.38690  0.07750  Biso   1.000  C
  H5       1.0000 0.89620  0.68760  0.95860  Biso   1.000  H
  H6       1.0000 0.10380  0.31240  0.04140  Biso   1.000  H
  C7       1.0000 0.80620  0.50570  0.94656  Biso   1.000  C
  C8       1.0000 0.19380  0.49430  0.05344  Biso   1.000  C
  C9       1.0000 0.78300  0.39640  0.89062  Biso   1.000  C
  C10      1.0000 0.21700  0.60360  0.10938  Biso   1.000  C
  H7       1.0000 0.73560  0.32410  0.90670  Biso   1.000  H
  H8       1.0000 0.26440  0.67590  0.09330  Biso   1.000  H
  C11      1.0000 0.65760  0.42870  0.05537  Biso   1.000  C
  C12      1.0000 0.34240  0.57130  0.94463  Biso   1.000  C
  C13      1.0000 0.61710  0.47670  0.13859  Biso   1.000  C
  C14      1.0000 0.38290  0.52330  0.86141  Biso   1.000  C
  C15      1.0000 0.63200  0.59800  0.16106  Biso   1.000  C
  C16      1.0000 0.36800  0.40200  0.83894  Biso   1.000  C
  H9       1.0000 0.67070  0.65130  0.12580  Biso   1.000  H
  H10      1.0000 0.32930  0.34870  0.87420  Biso   1.000  H
  C17      1.0000 0.58910  0.64010  0.23613  Biso   1.000  C
  C18      1.0000 0.41090  0.35990  0.76387  Biso   1.000  C
  C19      1.0000 0.52670  0.56080  0.28724  Biso   1.000  C
  C20      1.0000 0.47330  0.43920  0.71276  Biso   1.000  C
  H11      1.0000 0.49360  0.58870  0.33570  Biso   1.000  H
  H12      1.0000 0.50640  0.41130  0.66430  Biso   1.000  H
  C21      1.0000 0.51330  0.43900  0.26616  Biso   1.000  C
  C22      1.0000 0.48670  0.56100  0.73384  Biso   1.000  C
  C23      1.0000 0.55820  0.39720  0.19162  Biso   1.000  C
  C24      1.0000 0.44180  0.60280  0.80838  Biso   1.000  C
  H13      1.0000 0.54890  0.31590  0.17710  Biso   1.000  H
  H14      1.0000 0.45110  0.68410  0.82290  Biso   1.000  H
  C25      1.0000 0.44650  0.35960  0.32630  Biso   1.000  C
  C26      1.0000 0.55350  0.64040  0.67370  Biso   1.000  C
  C27      1.0000 0.40950  0.16040  0.36736  Biso   1.000  C
  C28      1.0000 0.59050  0.83960  0.63264  Biso   1.000  C
  C29      1.0000 0.40090  0.18160  0.45654  Biso   1.000  C
  C30      1.0000 0.59910  0.81840  0.54346  Biso   1.000  C
  H15      1.0000 0.43480  0.26000  0.49130  Biso   1.000  H
  H16      1.0000 0.56520  0.74000  0.50870  Biso   1.000  H
  C31      1.0000 0.34020  0.08180  0.49167  Biso   1.000  C
  C32      1.0000 0.65980  0.91820  0.50833  Biso   1.000  C
  H17      1.0000 0.33130  0.09280  0.55080  Biso   1.000  H
  H18      1.0000 0.66870  0.90720  0.44920  Biso   1.000  H
  C33      1.0000 0.29280  0.96590  0.43980  Biso   1.000  C
  C34      1.0000 0.70720  0.03410  0.56020  Biso   1.000  C
  H19      1.0000 0.25370  0.90030  0.46550  Biso   1.000  H
  H20      1.0000 0.74630  0.09970  0.53450  Biso   1.000  H
  C35      1.0000 0.35750  0.04120  0.31945  Biso   1.000  C
  C36      1.0000 0.64250  0.95880  0.68055  Biso   1.000  C
  H21      1.0000 0.36220  0.02770  0.25950  Biso   1.000  H
  H22      1.0000 0.63780  0.97230  0.74050  Biso   1.000  H
  C37      1.0000 0.60740  0.77130  0.25988  Biso   1.000  C
  C38      1.0000 0.39260  0.22870  0.74012  Biso   1.000  C
  C39      1.0000 0.65990  0.02850  0.23308  Biso   1.000  C
  C40      1.0000 0.34010  0.97150  0.76692  Biso   1.000  C
  H23      1.0000 0.55350  0.97800  0.19790  Biso   1.000  H
  H24      1.0000 0.44650  0.02200  0.80210  Biso   1.000  H
  N1       1.0000 0.68880  0.14800  0.25097  Biso   1.000  N
  N2       1.0000 0.31120  0.85200  0.74903  Biso   1.000  N
  C41      1.0000 0.84330  0.21930  0.29920  Biso   1.000  C
  C42      1.0000 0.15670  0.78070  0.70080  Biso   1.000  C
  H25      1.0000 0.86460  0.30250  0.31410  Biso   1.000  H
  H26      1.0000 0.13540  0.69750  0.68590  Biso   1.000  H
  C43      1.0000 0.93930  0.05130  0.31110  Biso   1.000  C
  C44      1.0000 0.06070  0.94870  0.68890  Biso   1.000  C
  H27      1.0000 0.02390  0.01920  0.33140  Biso   1.000  H
  H28      1.0000 0.97610  0.98080  0.66860  Biso   1.000  H
  C45      1.0000 0.77980  0.97600  0.26406  Biso   1.000  C
  C46      1.0000 0.22020  0.02400  0.73594  Biso   1.000  C
  C47      1.0000 0.92320  0.32460  0.61263  Biso   1.000  C
  C48      1.0000 0.07680  0.67540  0.38737  Biso   1.000  C
  C49      1.0000 0.95990  0.41410  0.55255  Biso   1.000  C
  C50      1.0000 0.04010  0.58590  0.44745  Biso   1.000  C
  C51      1.0000 0.85560  0.48030  0.52310  Biso   1.000  C
  C52      1.0000 0.14440  0.51970  0.47690  Biso   1.000  C
  H29      1.0000 0.75910  0.46760  0.53870  Biso   1.000  H
  H30      1.0000 0.24090  0.53240  0.46130  Biso   1.000  H
  C53      1.0000 0.89540  0.56500  0.47063  Biso   1.000  C
  C54      1.0000 0.10460  0.43500  0.52937  Biso   1.000  C
  H31      1.0000 0.82470  0.60850  0.45060  Biso   1.000  H
  H32      1.0000 0.17530  0.39150  0.54940  Biso   1.000  H
  C55      1.0000 0.97090  0.07690  0.94025  Biso   1.000  C
  C56      1.0000 0.02910  0.92310  0.05975  Biso   1.000  C
  C57      1.0000 0.84140  0.00450  0.96383  Biso   1.000  C
  C58      1.0000 0.15860  0.99550  0.03617  Biso   1.000  C
  H33      1.0000 0.73490  0.00750  0.93960  Biso   1.000  H
  H34      1.0000 0.26510  0.99250  0.06040  Biso   1.000  H
  C59      1.0000 0.87090  0.92790  0.02340  Biso   1.000  C
  C60      1.0000 0.12910  0.07210  0.97660  Biso   1.000  C
  H35      1.0000 0.78400  0.87940  0.03910  Biso   1.000  H
  H36      1.0000 0.21600  0.12060  0.96090  Biso   1.000  H
  C61      1.0000 0.94030  0.15932  0.87419  Biso   1.000  C
  C62      1.0000 0.05970  0.84068  0.12581  Biso   1.000  C
  N3       1.0000 0.82770  0.39264  0.81324  Biso   1.000  N
  N4       1.0000 0.17230  0.60736  0.18676  Biso   1.000  N
  N5       1.0000 0.30090  0.94438  0.35382  Biso   1.000  N
  N6       1.0000 0.69910  0.05562  0.64618  Biso   1.000  N
  C63      1.0000 0.97190  0.17570  0.32780  Biso   1.000  C
  C64      1.0000 0.02810  0.82430  0.67220  Biso   1.000  C
  H37      1.0000 0.07920  0.22860  0.35800  Biso   1.000  H
  H38      1.0000 0.92080  0.77140  0.64200  Biso   1.000  H
  O1       1.0000 0.59760  0.32227  0.01570  Biso   1.000  O
  O2       1.0000 0.40240  0.67773  0.98430  Biso   1.000  O
  O3       1.0000 0.50970  0.80672  0.28949  Biso   1.000  O
  O4       1.0000 0.49030  0.19328  0.71051  Biso   1.000  O
  O5       1.0000 0.37370  0.39259  0.37584  Biso   1.000  O
  O6       1.0000 0.62630  0.60741  0.62416  Biso   1.000  O
  O7       1.0000 0.78020  0.30459  0.62485  Biso   1.000  O
  O8       1.0000 0.21980  0.69541  0.37515  Biso   1.000  O
  O9       1.0000 0.79030  0.15068  0.83561  Biso   1.000  O
  O10      1.0000 0.20970  0.84932  0.16439  Biso   1.000  O
  O11      1.0000 0.02510  0.27726  0.64748  Biso   1.000  O
  O12      1.0000 0.97490  0.72274  0.35252  Biso   1.000  O
  O13      1.0000 0.06100  0.22987  0.85969  Biso   1.000  O
  O14      1.0000 0.93900  0.77013  0.14031  Biso   1.000  O
  N7       1.0000 0.76220  0.51534  0.02815  Biso   1.000  N
  N8       1.0000 0.23780  0.48466  0.97185  Biso   1.000  N
  H39      1.0000 0.80900  0.58460  0.06100  Biso   1.000  H
  H40      1.0000 0.19100  0.41540  0.93900  Biso   1.000  H
  N9       1.0000 0.47060  0.25092  0.32162  Biso   1.000  N
  N10      1.0000 0.52940  0.74908  0.67838  Biso   1.000  N
  H41      1.0000 0.52100  0.23400  0.28900  Biso   1.000  H
  H42      1.0000 0.47900  0.76600  0.71100  Biso   1.000  H
  N11      1.0000 0.74000  0.84855  0.24639  Biso   1.000  N
  N12      1.0000 0.26000  0.15145  0.75361  Biso   1.000  N
  H43      1.0000 0.81200  0.81800  0.24200  Biso   1.000  H
  H44      1.0000 0.18800  0.18200  0.75800  Biso   1.000  H
