data_image0
_cell_length_a       7.9401
_cell_length_b       10.4771
_cell_length_c       12.8953
_cell_angle_alpha    101.137
_cell_angle_beta     104.176
_cell_angle_gamma    110.066

_symmetry_space_group_name_H-M    "P 1"
_symmetry_int_tables_number       1

loop_
  _symmetry_equiv_pos_as_xyz
  'x, y, z'

loop_
  _atom_site_label
  _atom_site_occupancy
  _atom_site_fract_x
  _atom_site_fract_y
  _atom_site_fract_z
  _atom_site_thermal_displace_type
  _atom_site_B_iso_or_equiv
  _atom_site_type_symbol
  Mo1      1.0000 0.51795  0.53028  0.38186  Biso   1.000  Mo
  Mo2      1.0000 0.48205  0.46972  0.61814  Biso   1.000  Mo
  Mo3      1.0000 0.71399  0.80793  0.68030  Biso   1.000  Mo
  Mo4      1.0000 0.28601  0.19207  0.31970  Biso   1.000  Mo
  Cu1      1.0000 0.38572  0.84637  0.29452  Biso   1.000  Cu
  Cu2      1.0000 0.61428  0.15363  0.70548  Biso   1.000  Cu
  P1       1.0000 0.74550  0.02507  0.51926  Biso   1.000  P
  P2       1.0000 0.25450  0.97493  0.48074  Biso   1.000  P
  O1       1.0000 0.66980  0.89040  0.55430  Biso   1.000  O
  O2       1.0000 0.33020  0.10960  0.44570  Biso   1.000  O
  O3       1.0000 0.63300  0.99110  0.39540  Biso   1.000  O
  O4       1.0000 0.36700  0.00890  0.60460  Biso   1.000  O
  O5       1.0000 0.74070  0.15390  0.59520  Biso   1.000  O
  O6       1.0000 0.25930  0.84610  0.40480  Biso   1.000  O
  O7       1.0000 0.42350  0.63560  0.32310  Biso   1.000  O
  O8       1.0000 0.57650  0.36440  0.67690  Biso   1.000  O
  O9       1.0000 0.73900  0.57350  0.37060  Biso   1.000  O
  O10      1.0000 0.26100  0.42650  0.62940  Biso   1.000  O
  O11      1.0000 0.57760  0.62150  0.54000  Biso   1.000  O
  O12      1.0000 0.42240  0.37850  0.46000  Biso   1.000  O
  O13      1.0000 0.37200  0.35230  0.26350  Biso   1.000  O
  O14      1.0000 0.62800  0.64770  0.73650  Biso   1.000  O
  O15      1.0000 0.94240  0.83180  0.69460  Biso   1.000  O
  O16      1.0000 0.05760  0.16820  0.30540  Biso   1.000  O
  O17      1.0000 0.74330  0.94830  0.78660  Biso   1.000  O
  O18      1.0000 0.25670  0.05170  0.21340  Biso   1.000  O
  O19      1.0000 0.39010  0.76360  0.64540  Biso   1.000  O
  O20      1.0000 0.60990  0.23640  0.35460  Biso   1.000  O
  O21      1.0000 0.86940  0.42540  0.55800  Biso   1.000  O
  O22      1.0000 0.13060  0.57460  0.44200  Biso   1.000  O
  N1       1.0000 0.13460  0.73090  0.16930  Biso   1.000  N
  N2       1.0000 0.86540  0.26910  0.83070  Biso   1.000  N
  N3       1.0000 0.48270  0.85040  0.16530  Biso   1.000  N
  N4       1.0000 0.51730  0.14960  0.83470  Biso   1.000  N
  C1       1.0000 0.95950  0.67470  0.17380  Biso   1.000  C
  C2       1.0000 0.04050  0.32530  0.82620  Biso   1.000  C
  H1       1.0000 0.94440  0.68060  0.24360  Biso   1.000  H
  H2       1.0000 0.05560  0.31940  0.75640  Biso   1.000  H
  C3       1.0000 0.79630  0.60650  0.07630  Biso   1.000  C
  C4       1.0000 0.20370  0.39350  0.92370  Biso   1.000  C
  H3       1.0000 0.67620  0.56910  0.08280  Biso   1.000  H
  H4       1.0000 0.32380  0.43090  0.91720  Biso   1.000  H
  C5       1.0000 0.81370  0.59520  0.97190  Biso   1.000  C
  C6       1.0000 0.18630  0.40480  0.02810  Biso   1.000  C
  H5       1.0000 0.70640  0.55010  0.90750  Biso   1.000  H
  H6       1.0000 0.29360  0.44990  0.09250  Biso   1.000  H
  C7       1.0000 0.99850  0.65330  0.96390  Biso   1.000  C
  C8       1.0000 0.00150  0.34670  0.03610  Biso   1.000  C
  C9       1.0000 0.15330  0.72120  0.06630  Biso   1.000  C
  C10      1.0000 0.84670  0.27880  0.93370  Biso   1.000  C
  C11      1.0000 0.03700  0.64750  0.86050  Biso   1.000  C
  C12      1.0000 0.96300  0.35250  0.13950  Biso   1.000  C
  H7       1.0000 0.93580  0.60340  0.79290  Biso   1.000  H
  H8       1.0000 0.06420  0.39660  0.20710  Biso   1.000  H
  C13      1.0000 0.21760  0.70490  0.85880  Biso   1.000  C
  C14      1.0000 0.78240  0.29510  0.14120  Biso   1.000  C
  H9       1.0000 0.23830  0.69730  0.79030  Biso   1.000  H
  H10      1.0000 0.76170  0.30270  0.20970  Biso   1.000  H
  C15      1.0000 0.37690  0.77710  0.96170  Biso   1.000  C
  C16      1.0000 0.62310  0.22290  0.03830  Biso   1.000  C
  C17      1.0000 0.34200  0.78320  0.06410  Biso   1.000  C
  C18      1.0000 0.65800  0.21680  0.93590  Biso   1.000  C
  C19      1.0000 0.56980  0.84480  0.96820  Biso   1.000  C
  C20      1.0000 0.43020  0.15520  0.03180  Biso   1.000  C
  H11      1.0000 0.60070  0.84210  0.90300  Biso   1.000  H
  H12      1.0000 0.39930  0.15790  0.09700  Biso   1.000  H
  C21      1.0000 0.70800  0.91330  0.07010  Biso   1.000  C
  C22      1.0000 0.29200  0.08670  0.92990  Biso   1.000  C
  H13      1.0000 0.83390  0.95890  0.07470  Biso   1.000  H
  H14      1.0000 0.16610  0.04110  0.92530  Biso   1.000  H
  C23      1.0000 0.66260  0.91590  0.16910  Biso   1.000  C
  C24      1.0000 0.33740  0.08410  0.83090  Biso   1.000  C
  H15      1.0000 0.75920  0.96390  0.23830  Biso   1.000  H
  H16      1.0000 0.24080  0.03610  0.76170  Biso   1.000  H
  C25      1.0000 0.98880  0.06570  0.53190  Biso   1.000  C
  C26      1.0000 0.01120  0.93430  0.46810  Biso   1.000  C
  H17      1.0000 0.06520  0.09620  0.61060  Biso   1.000  H
  H18      1.0000 0.93480  0.90380  0.38940  Biso   1.000  H
  H19      1.0000 0.03510  0.14380  0.50170  Biso   1.000  H
  H20      1.0000 0.96490  0.85620  0.49830  Biso   1.000  H
  H21      1.0000 0.34600  0.71600  0.57400  Biso   1.000  H
  H22      1.0000 0.65400  0.28400  0.42600  Biso   1.000  H
  H23      1.0000 0.36900  0.81900  0.60200  Biso   1.000  H
  H24      1.0000 0.63100  0.18100  0.39800  Biso   1.000  H
