data_image0
_cell_length_a       11.8674
_cell_length_b       10.398
_cell_length_c       15.6954
_cell_angle_alpha    90
_cell_angle_beta     107.937
_cell_angle_gamma    90

_symmetry_space_group_name_H-M    "P 1"
_symmetry_int_tables_number       1

loop_
  _symmetry_equiv_pos_as_xyz
  'x, y, z'

loop_
  _atom_site_label
  _atom_site_occupancy
  _atom_site_fract_x
  _atom_site_fract_y
  _atom_site_fract_z
  _atom_site_thermal_displace_type
  _atom_site_B_iso_or_equiv
  _atom_site_type_symbol
  Mo1      1.0000 0.42050  0.34508  0.11856  Biso   1.000  Mo
  Mo2      1.0000 0.42050  0.15492  0.61856  Biso   1.000  Mo
  Mo3      1.0000 0.57950  0.65492  0.88144  Biso   1.000  Mo
  Mo4      1.0000 0.57950  0.84508  0.38144  Biso   1.000  Mo
  Mo5      1.0000 0.28047  0.07204  0.03556  Biso   1.000  Mo
  Mo6      1.0000 0.28047  0.42796  0.53556  Biso   1.000  Mo
  Mo7      1.0000 0.71953  0.92796  0.96444  Biso   1.000  Mo
  Mo8      1.0000 0.71953  0.57204  0.46444  Biso   1.000  Mo
  Cu1      1.0000 0.27702  0.16570  0.80332  Biso   1.000  Cu
  Cu2      1.0000 0.27702  0.33430  0.30332  Biso   1.000  Cu
  Cu3      1.0000 0.72298  0.83430  0.19668  Biso   1.000  Cu
  Cu4      1.0000 0.72298  0.66570  0.69668  Biso   1.000  Cu
  P1       1.0000 0.51548  0.15732  0.95797  Biso   1.000  P
  P2       1.0000 0.51548  0.34268  0.45797  Biso   1.000  P
  P3       1.0000 0.48452  0.84268  0.04203  Biso   1.000  P
  P4       1.0000 0.48452  0.65732  0.54203  Biso   1.000  P
  P5       1.0000 0.41016  0.40940  0.90361  Biso   1.000  P
  P6       1.0000 0.41016  0.09060  0.40361  Biso   1.000  P
  P7       1.0000 0.58984  0.59060  0.09639  Biso   1.000  P
  P8       1.0000 0.58984  0.90940  0.59639  Biso   1.000  P
  O1       1.0000 0.43200  0.09760  0.87410  Biso   1.000  O
  O2       1.0000 0.43200  0.40240  0.37410  Biso   1.000  O
  O3       1.0000 0.56800  0.90240  0.12590  Biso   1.000  O
  O4       1.0000 0.56800  0.59760  0.62590  Biso   1.000  O
  O5       1.0000 0.21790  0.11660  0.92510  Biso   1.000  O
  O6       1.0000 0.21790  0.38340  0.42510  Biso   1.000  O
  O7       1.0000 0.78210  0.88340  0.07490  Biso   1.000  O
  O8       1.0000 0.78210  0.61660  0.57490  Biso   1.000  O
  O9       1.0000 0.32720  0.34880  0.81880  Biso   1.000  O
  O10      1.0000 0.32720  0.15120  0.31880  Biso   1.000  O
  O11      1.0000 0.67280  0.65120  0.18120  Biso   1.000  O
  O12      1.0000 0.67280  0.84880  0.68120  Biso   1.000  O
  O13      1.0000 0.46320  0.16500  0.03620  Biso   1.000  O
  O14      1.0000 0.46320  0.33500  0.53620  Biso   1.000  O
  O15      1.0000 0.53680  0.83500  0.96380  Biso   1.000  O
  O16      1.0000 0.53680  0.66500  0.46380  Biso   1.000  O
  O17      1.0000 0.36190  0.40280  0.98290  Biso   1.000  O
  O18      1.0000 0.36190  0.09720  0.48290  Biso   1.000  O
  O19      1.0000 0.63810  0.59720  0.01710  Biso   1.000  O
  O20      1.0000 0.63810  0.90280  0.51710  Biso   1.000  O
  O21      1.0000 0.63520  0.08570  0.98750  Biso   1.000  O
  O22      1.0000 0.63520  0.41430  0.48750  Biso   1.000  O
  O23      1.0000 0.36480  0.91430  0.01250  Biso   1.000  O
  O24      1.0000 0.36480  0.58570  0.51250  Biso   1.000  O
  O25      1.0000 0.16600  0.99820  0.05900  Biso   1.000  O
  O26      1.0000 0.16600  0.50180  0.55900  Biso   1.000  O
  O27      1.0000 0.83400  0.00180  0.94100  Biso   1.000  O
  O28      1.0000 0.83400  0.49820  0.44100  Biso   1.000  O
  O29      1.0000 0.39260  0.01840  0.17620  Biso   1.000  O
  O30      1.0000 0.39260  0.48160  0.67620  Biso   1.000  O
  O31      1.0000 0.60740  0.98160  0.82380  Biso   1.000  O
  O32      1.0000 0.60740  0.51840  0.32380  Biso   1.000  O
  O33      1.0000 0.28400  0.23340  0.09050  Biso   1.000  O
  O34      1.0000 0.28400  0.26660  0.59050  Biso   1.000  O
  O35      1.0000 0.71600  0.76660  0.90950  Biso   1.000  O
  O36      1.0000 0.71600  0.73340  0.40950  Biso   1.000  O
  O37      1.0000 0.50690  0.26750  0.21060  Biso   1.000  O
  O38      1.0000 0.50690  0.23250  0.71060  Biso   1.000  O
  O39      1.0000 0.49310  0.73250  0.78940  Biso   1.000  O
  O40      1.0000 0.49310  0.76750  0.28940  Biso   1.000  O
  O41      1.0000 0.36060  0.46910  0.16000  Biso   1.000  O
  O42      1.0000 0.36060  0.03090  0.66000  Biso   1.000  O
  O43      1.0000 0.63940  0.53090  0.84000  Biso   1.000  O
  O44      1.0000 0.63940  0.96910  0.34000  Biso   1.000  O
  O45      1.0000 0.43240  0.55140  0.88470  Biso   1.000  O
  O46      1.0000 0.43240  0.94860  0.38470  Biso   1.000  O
  O47      1.0000 0.56760  0.44860  0.11530  Biso   1.000  O
  O48      1.0000 0.56760  0.05140  0.61530  Biso   1.000  O
  N1       1.0000 0.21400  0.98840  0.76040  Biso   1.000  N
  N2       1.0000 0.21400  0.51160  0.26040  Biso   1.000  N
  N3       1.0000 0.78600  0.01160  0.23960  Biso   1.000  N
  N4       1.0000 0.78600  0.48840  0.73960  Biso   1.000  N
  N5       1.0000 0.12490  0.21970  0.71480  Biso   1.000  N
  N6       1.0000 0.12490  0.28030  0.21480  Biso   1.000  N
  N7       1.0000 0.87510  0.78030  0.28520  Biso   1.000  N
  N8       1.0000 0.87510  0.71970  0.78520  Biso   1.000  N
  C1       1.0000 0.26330  0.87480  0.78400  Biso   1.000  C
  C2       1.0000 0.26330  0.62520  0.28400  Biso   1.000  C
  C3       1.0000 0.73670  0.12520  0.21600  Biso   1.000  C
  C4       1.0000 0.73670  0.37480  0.71600  Biso   1.000  C
  H1       1.0000 0.33450  0.87070  0.83030  Biso   1.000  H
  H2       1.0000 0.33450  0.62930  0.33030  Biso   1.000  H
  H3       1.0000 0.66550  0.12930  0.16970  Biso   1.000  H
  H4       1.0000 0.66550  0.37070  0.66970  Biso   1.000  H
  C5       1.0000 0.21300  0.75980  0.74230  Biso   1.000  C
  C6       1.0000 0.21300  0.74020  0.24230  Biso   1.000  C
  C7       1.0000 0.78700  0.24020  0.25770  Biso   1.000  C
  C8       1.0000 0.78700  0.25980  0.75770  Biso   1.000  C
  H5       1.0000 0.25140  0.68180  0.76000  Biso   1.000  H
  H6       1.0000 0.25140  0.81820  0.26000  Biso   1.000  H
  H7       1.0000 0.74860  0.31820  0.24000  Biso   1.000  H
  H8       1.0000 0.74860  0.18180  0.74000  Biso   1.000  H
  C9       1.0000 0.10550  0.76360  0.67460  Biso   1.000  C
  C10      1.0000 0.10550  0.73640  0.17460  Biso   1.000  C
  C11      1.0000 0.89450  0.23640  0.32540  Biso   1.000  C
  C12      1.0000 0.89450  0.26360  0.82540  Biso   1.000  C
  H9       1.0000 0.07070  0.68830  0.64670  Biso   1.000  H
  H10      1.0000 0.07070  0.81170  0.14670  Biso   1.000  H
  H11      1.0000 0.92930  0.31170  0.35330  Biso   1.000  H
  H12      1.0000 0.92930  0.18830  0.85330  Biso   1.000  H
  C13      1.0000 0.04940  0.88400  0.64870  Biso   1.000  C
  C14      1.0000 0.04940  0.61600  0.14870  Biso   1.000  C
  C15      1.0000 0.95060  0.11600  0.35130  Biso   1.000  C
  C16      1.0000 0.95060  0.38400  0.85130  Biso   1.000  C
  C17      1.0000 0.10910  0.99330  0.69410  Biso   1.000  C
  C18      1.0000 0.10910  0.50670  0.19410  Biso   1.000  C
  C19      1.0000 0.89090  0.00670  0.30590  Biso   1.000  C
  C20      1.0000 0.89090  0.49330  0.80590  Biso   1.000  C
  C21      1.0000 0.93850  0.89990  0.58050  Biso   1.000  C
  C22      1.0000 0.93850  0.60010  0.08050  Biso   1.000  C
  C23      1.0000 0.06150  0.10010  0.41950  Biso   1.000  C
  C24      1.0000 0.06150  0.39990  0.91950  Biso   1.000  C
  H13      1.0000 0.89770  0.82820  0.55130  Biso   1.000  H
  H14      1.0000 0.89770  0.67180  0.05130  Biso   1.000  H
  H15      1.0000 0.10230  0.17180  0.44870  Biso   1.000  H
  H16      1.0000 0.10230  0.32820  0.94870  Biso   1.000  H
  C25      1.0000 0.89210  0.01940  0.55800  Biso   1.000  C
  C26      1.0000 0.89210  0.48060  0.05800  Biso   1.000  C
  C27      1.0000 0.10790  0.98060  0.44200  Biso   1.000  C
  C28      1.0000 0.10790  0.51940  0.94200  Biso   1.000  C
  H17      1.0000 0.81960  0.02770  0.51360  Biso   1.000  H
  H18      1.0000 0.81960  0.47230  0.01360  Biso   1.000  H
  H19      1.0000 0.18040  0.97230  0.48640  Biso   1.000  H
  H20      1.0000 0.18040  0.52770  0.98640  Biso   1.000  H
  C29      1.0000 0.95200  0.13280  0.60080  Biso   1.000  C
  C30      1.0000 0.95200  0.36720  0.10080  Biso   1.000  C
  C31      1.0000 0.04800  0.86720  0.39920  Biso   1.000  C
  C32      1.0000 0.04800  0.63280  0.89920  Biso   1.000  C
  C33      1.0000 0.05950  0.11820  0.66920  Biso   1.000  C
  C34      1.0000 0.05950  0.38180  0.16920  Biso   1.000  C
  C35      1.0000 0.94050  0.88180  0.33080  Biso   1.000  C
  C36      1.0000 0.94050  0.61820  0.83080  Biso   1.000  C
  C37      1.0000 0.91140  0.26130  0.57930  Biso   1.000  C
  C38      1.0000 0.91140  0.23870  0.07930  Biso   1.000  C
  C39      1.0000 0.08860  0.73870  0.42070  Biso   1.000  C
  C40      1.0000 0.08860  0.76130  0.92070  Biso   1.000  C
  H21      1.0000 0.83990  0.27640  0.53510  Biso   1.000  H
  H22      1.0000 0.83990  0.22360  0.03510  Biso   1.000  H
  H23      1.0000 0.16010  0.72360  0.46490  Biso   1.000  H
  H24      1.0000 0.16010  0.77640  0.96490  Biso   1.000  H
  C41      1.0000 0.97710  0.36150  0.62340  Biso   1.000  C
  C42      1.0000 0.97710  0.13850  0.12340  Biso   1.000  C
  C43      1.0000 0.02290  0.63850  0.37660  Biso   1.000  C
  C44      1.0000 0.02290  0.86150  0.87660  Biso   1.000  C
  H25      1.0000 0.95190  0.44550  0.60840  Biso   1.000  H
  H26      1.0000 0.95190  0.05450  0.10840  Biso   1.000  H
  H27      1.0000 0.04810  0.55450  0.39160  Biso   1.000  H
  H28      1.0000 0.04810  0.94550  0.89160  Biso   1.000  H
  C45      1.0000 0.08430  0.33740  0.69270  Biso   1.000  C
  C46      1.0000 0.08430  0.16260  0.19270  Biso   1.000  C
  C47      1.0000 0.91570  0.66260  0.30730  Biso   1.000  C
  C48      1.0000 0.91570  0.83740  0.80730  Biso   1.000  C
  H29      1.0000 0.12750  0.40670  0.72350  Biso   1.000  H
  H30      1.0000 0.12750  0.09330  0.22350  Biso   1.000  H
  H31      1.0000 0.87250  0.59330  0.27650  Biso   1.000  H
  H32      1.0000 0.87250  0.90670  0.77650  Biso   1.000  H
  C49      1.0000 0.54710  0.31750  0.93230  Biso   1.000  C
  C50      1.0000 0.54710  0.18250  0.43230  Biso   1.000  C
  C51      1.0000 0.45290  0.68250  0.06770  Biso   1.000  C
  C52      1.0000 0.45290  0.81750  0.56770  Biso   1.000  C
  H33      1.0000 0.57900  0.31730  0.88240  Biso   1.000  H
  H34      1.0000 0.57900  0.18270  0.38240  Biso   1.000  H
  H35      1.0000 0.42100  0.68270  0.11760  Biso   1.000  H
  H36      1.0000 0.42100  0.81730  0.61760  Biso   1.000  H
  H37      1.0000 0.60530  0.35590  0.98360  Biso   1.000  H
  H38      1.0000 0.60530  0.14410  0.48360  Biso   1.000  H
  H39      1.0000 0.39470  0.64410  0.01640  Biso   1.000  H
  H40      1.0000 0.39470  0.85590  0.51640  Biso   1.000  H
