data_image0
_cell_length_a       7.8433
_cell_length_b       10.5221
_cell_length_c       10.8374
_cell_angle_alpha    76.796
_cell_angle_beta     77.881
_cell_angle_gamma    80.354

_symmetry_space_group_name_H-M    "P 1"
_symmetry_int_tables_number       1

loop_
  _symmetry_equiv_pos_as_xyz
  'x, y, z'

loop_
  _atom_site_label
  _atom_site_occupancy
  _atom_site_fract_x
  _atom_site_fract_y
  _atom_site_fract_z
  _atom_site_thermal_displace_type
  _atom_site_B_iso_or_equiv
  _atom_site_type_symbol
  Cu1      1.0000 0.50000  0.00000  0.00000  Biso   1.000  Cu
  Cu2      1.0000 0.00000  0.00000  0.00000  Biso   1.000  Cu
  O1       1.0000 0.28940  0.29230  0.66040  Biso   1.000  O
  O2       1.0000 0.71060  0.70770  0.33960  Biso   1.000  O
  N1       1.0000 0.35710  0.97790  0.83430  Biso   1.000  N
  N2       1.0000 0.64290  0.02210  0.16570  Biso   1.000  N
  N3       1.0000 0.17960  0.97280  0.84730  Biso   1.000  N
  N4       1.0000 0.82040  0.02720  0.15270  Biso   1.000  N
  N5       1.0000 0.30540  0.92780  0.66220  Biso   1.000  N
  N6       1.0000 0.69460  0.07220  0.33780  Biso   1.000  N
  N7       1.0000 0.33910  0.88840  0.54310  Biso   1.000  N
  N8       1.0000 0.66090  0.11160  0.45690  Biso   1.000  N
  C1       1.0000 0.42930  0.95190  0.72090  Biso   1.000  C
  C2       1.0000 0.57070  0.04810  0.27910  Biso   1.000  C
  C3       1.0000 0.15250  0.94140  0.74370  Biso   1.000  C
  C4       1.0000 0.84750  0.05860  0.25630  Biso   1.000  C
  N9       1.0000 0.32880  0.15880  0.02980  Biso   1.000  N
  N10      1.0000 0.67120  0.84120  0.97020  Biso   1.000  N
  N11      1.0000 0.15390  0.17420  0.01860  Biso   1.000  N
  N12      1.0000 0.84610  0.82580  0.98140  Biso   1.000  N
  N13      1.0000 0.20570  0.34400  0.08150  Biso   1.000  N
  N14      1.0000 0.79430  0.65600  0.91850  Biso   1.000  N
  N15      1.0000 0.17690  0.46840  0.11690  Biso   1.000  N
  N16      1.0000 0.82310  0.53160  0.88310  Biso   1.000  N
  C5       1.0000 0.35630  0.26210  0.06870  Biso   1.000  C
  C6       1.0000 0.64370  0.73790  0.93130  Biso   1.000  C
  C7       1.0000 0.08380  0.28750  0.04890  Biso   1.000  C
  C8       1.0000 0.91620  0.71250  0.95110  Biso   1.000  C
  N17      1.0000 0.32840  0.88040  0.12620  Biso   1.000  N
  N18      1.0000 0.67160  0.11960  0.87380  Biso   1.000  N
  N19      1.0000 0.15540  0.87450  0.11920  Biso   1.000  N
  N20      1.0000 0.84460  0.12550  0.88080  Biso   1.000  N
  N21      1.0000 0.23040  0.72150  0.27670  Biso   1.000  N
  N22      1.0000 0.76960  0.27850  0.72330  Biso   1.000  N
  N23      1.0000 0.21470  0.61090  0.37830  Biso   1.000  N
  N24      1.0000 0.78530  0.38910  0.62170  Biso   1.000  N
  C9       1.0000 0.36910  0.78830  0.22240  Biso   1.000  C
  C10      1.0000 0.63090  0.21170  0.77760  Biso   1.000  C
  C11      1.0000 0.10050  0.77820  0.21050  Biso   1.000  C
  C12      1.0000 0.89950  0.22180  0.78950  Biso   1.000  C
  B1       1.0000 0.10930  0.20760  0.41310  Biso   1.000  B
  B2       1.0000 0.89070  0.79240  0.58690  Biso   1.000  B
  F1       1.0000 0.97910  0.29510  0.35970  Biso   1.000  F
  F2       1.0000 0.02090  0.70490  0.64030  Biso   1.000  F
  F3       1.0000 0.03950  0.14930  0.53770  Biso   1.000  F
  F4       1.0000 0.96050  0.85070  0.46230  Biso   1.000  F
  F5       1.0000 0.16920  0.10830  0.34060  Biso   1.000  F
  F6       1.0000 0.83080  0.89170  0.65940  Biso   1.000  F
  F7       1.0000 0.24980  0.27250  0.41130  Biso   1.000  F
  F8       1.0000 0.75020  0.72750  0.58870  Biso   1.000  F
  B3       1.0000 0.36220  0.55440  0.77780  Biso   1.000  B
  B4       1.0000 0.63780  0.44560  0.22220  Biso   1.000  B
  F9       1.0000 0.21300  0.49240  0.80470  Biso   1.000  F
  F10      1.0000 0.78700  0.50760  0.19530  Biso   1.000  F
  F11      1.0000 0.49250  0.47020  0.83770  Biso   1.000  F
  F12      1.0000 0.50750  0.52980  0.16230  Biso   1.000  F
  F13      1.0000 0.32680  0.67040  0.82500  Biso   1.000  F
  F14      1.0000 0.67320  0.32960  0.17500  Biso   1.000  F
  F15      1.0000 0.42140  0.58160  0.64480  Biso   1.000  F
  F16      1.0000 0.57860  0.41840  0.35520  Biso   1.000  F
  H1       1.0000 0.25350  0.37800  0.66220  Biso   1.000  H
  H2       1.0000 0.74650  0.62200  0.33780  Biso   1.000  H
  H3       1.0000 0.29240  0.30490  0.58790  Biso   1.000  H
  H4       1.0000 0.70760  0.69510  0.41210  Biso   1.000  H
  H5       1.0000 0.55600  0.94540  0.68490  Biso   1.000  H
  H6       1.0000 0.44400  0.05460  0.31510  Biso   1.000  H
  H7       1.0000 0.03750  0.92900  0.72390  Biso   1.000  H
  H8       1.0000 0.96250  0.07100  0.27610  Biso   1.000  H
  H9       1.0000 0.46260  0.28060  0.08210  Biso   1.000  H
  H10      1.0000 0.53740  0.71940  0.91790  Biso   1.000  H
  H11      1.0000 0.95300  0.32220  0.04600  Biso   1.000  H
  H12      1.0000 0.04700  0.67780  0.95400  Biso   1.000  H
  H13      1.0000 0.47300  0.77340  0.24710  Biso   1.000  H
  H14      1.0000 0.52700  0.22660  0.75290  Biso   1.000  H
  H15      1.0000 0.00160  0.75470  0.22570  Biso   1.000  H
  H16      1.0000 0.99840  0.24530  0.77430  Biso   1.000  H
  H17      1.0000 0.34830  0.79620  0.56470  Biso   1.000  H
  H18      1.0000 0.65170  0.20380  0.43530  Biso   1.000  H
  H19      1.0000 0.26700  0.92620  0.50610  Biso   1.000  H
  H20      1.0000 0.73300  0.07380  0.49390  Biso   1.000  H
  H21      1.0000 0.11550  0.45870  0.19230  Biso   1.000  H
  H22      1.0000 0.88450  0.54130  0.80770  Biso   1.000  H
  H23      1.0000 0.27940  0.48710  0.12460  Biso   1.000  H
  H24      1.0000 0.72060  0.51290  0.87540  Biso   1.000  H
  H25      1.0000 0.30450  0.56600  0.38260  Biso   1.000  H
  H26      1.0000 0.69550  0.43400  0.61740  Biso   1.000  H
  H27      1.0000 0.18320  0.64100  0.45850  Biso   1.000  H
  H28      1.0000 0.81680  0.35900  0.54150  Biso   1.000  H
