data_image0
_cell_length_a       12.417
_cell_length_b       13.15
_cell_length_c       18.03
_cell_angle_alpha    73.63
_cell_angle_beta     72.64
_cell_angle_gamma    70.28

_symmetry_space_group_name_H-M    "P 1"
_symmetry_int_tables_number       1

loop_
  _symmetry_equiv_pos_as_xyz
  'x, y, z'

loop_
  _atom_site_label
  _atom_site_occupancy
  _atom_site_fract_x
  _atom_site_fract_y
  _atom_site_fract_z
  _atom_site_thermal_displace_type
  _atom_site_B_iso_or_equiv
  _atom_site_type_symbol
  Cu1      1.0000 0.00000  0.00000  0.00000  Biso   1.000  Cu
  Cu2      1.0000 0.83288  0.17033  0.16265  Biso   1.000  Cu
  Cu3      1.0000 0.16712  0.82967  0.83735  Biso   1.000  Cu
  Cu4      1.0000 0.66980  0.34149  0.32749  Biso   1.000  Cu
  Cu5      1.0000 0.33020  0.65851  0.67251  Biso   1.000  Cu
  Cu6      1.0000 0.50000  0.50000  0.50000  Biso   1.000  Cu
  Si1      1.0000 0.38689  0.82707  0.19963  Biso   1.000  Si
  Si2      1.0000 0.61311  0.17293  0.80037  Biso   1.000  Si
  F1       1.0000 0.36710  0.70870  0.25746  Biso   1.000  F
  F2       1.0000 0.63290  0.29130  0.74254  Biso   1.000  F
  F3       1.0000 0.45050  0.84540  0.26266  Biso   1.000  F
  F4       1.0000 0.54950  0.15460  0.73734  Biso   1.000  F
  F5       1.0000 0.40920  0.94779  0.13859  Biso   1.000  F
  F6       1.0000 0.59080  0.05221  0.86141  Biso   1.000  F
  F7       1.0000 0.25720  0.89770  0.24642  Biso   1.000  F
  F8       1.0000 0.74280  0.10230  0.75358  Biso   1.000  F
  F9       1.0000 0.51760  0.76160  0.15034  Biso   1.000  F
  F10      1.0000 0.48240  0.23840  0.84966  Biso   1.000  F
  F11      1.0000 0.32080  0.81460  0.13490  Biso   1.000  F
  F12      1.0000 0.67920  0.18540  0.86510  Biso   1.000  F
  Si3      1.0000 0.74911  0.82220  0.51077  Biso   1.000  Si
  Si4      1.0000 0.25089  0.17780  0.48923  Biso   1.000  Si
  F13      1.0000 0.62354  0.80589  0.50363  Biso   1.000  F
  F14      1.0000 0.37646  0.19411  0.49637  Biso   1.000  F
  F15      1.0000 0.68290  0.95456  0.51741  Biso   1.000  F
  F16      1.0000 0.31710  0.04544  0.48259  Biso   1.000  F
  F17      1.0000 0.71267  0.78376  0.60982  Biso   1.000  F
  F18      1.0000 0.28733  0.21624  0.39018  Biso   1.000  F
  F19      1.0000 0.78800  0.85798  0.41179  Biso   1.000  F
  F20      1.0000 0.21200  0.14202  0.58821  Biso   1.000  F
  F21      1.0000 0.87747  0.83547  0.51867  Biso   1.000  F
  F22      1.0000 0.12253  0.16453  0.48133  Biso   1.000  F
  F23      1.0000 0.81680  0.68883  0.50530  Biso   1.000  F
  F24      1.0000 0.18320  0.31117  0.49470  Biso   1.000  F
  Si5      1.0000 0.91089  0.51348  0.83342  Biso   1.000  Si
  Si6      1.0000 0.08911  0.48652  0.16658  Biso   1.000  Si
  F25      1.0000 0.04027  0.52525  0.83824  Biso   1.000  F
  F26      1.0000 0.95973  0.47475  0.16176  Biso   1.000  F
  F27      1.0000 0.88479  0.45811  0.93019  Biso   1.000  F
  F28      1.0000 0.11521  0.54189  0.06981  Biso   1.000  F
  F29      1.0000 0.93509  0.56958  0.73648  Biso   1.000  F
  F30      1.0000 0.06491  0.43042  0.26352  Biso   1.000  F
  F31      1.0000 0.78058  0.50214  0.82700  Biso   1.000  F
  F32      1.0000 0.21942  0.49786  0.17300  Biso   1.000  F
  F33      1.0000 0.97970  0.38722  0.81160  Biso   1.000  F
  F34      1.0000 0.02030  0.61278  0.18840  Biso   1.000  F
  F35      1.0000 0.84224  0.64035  0.85430  Biso   1.000  F
  F36      1.0000 0.15776  0.35965  0.14570  Biso   1.000  F
  O1       1.0000 0.96880  0.99300  0.40132  Biso   1.000  O
  O2       1.0000 0.03120  0.00700  0.59868  Biso   1.000  O
  O3       1.0000 0.67040  0.35150  0.93043  Biso   1.000  O
  O4       1.0000 0.32960  0.64850  0.06957  Biso   1.000  O
  O5       1.0000 0.57720  0.69880  0.81305  Biso   1.000  O
  O6       1.0000 0.42280  0.30120  0.18695  Biso   1.000  O
  O7       1.0000 0.09570  0.64910  0.51658  Biso   1.000  O
  O8       1.0000 0.90430  0.35090  0.48342  Biso   1.000  O
  O9       1.0000 0.04820  0.45230  0.58974  Biso   1.000  O
  O10      1.0000 0.95180  0.54770  0.41026  Biso   1.000  O
  O11      1.0000 0.61250  0.91070  0.75417  Biso   1.000  O
  O12      1.0000 0.38750  0.08930  0.24583  Biso   1.000  O
  O13      1.0000 0.76570  0.86650  0.89722  Biso   1.000  O
  O14      1.0000 0.23430  0.13350  0.10278  Biso   1.000  O
  O15      1.0000 0.30520  0.14180  0.83145  Biso   1.000  O
  O16      1.0000 0.69480  0.85820  0.16855  Biso   1.000  O
  C1       1.0000 0.74060  0.04640  0.00890  Biso   1.000  C
  C2       1.0000 0.25940  0.95360  0.99110  Biso   1.000  C
  C3       1.0000 0.65070  0.16280  0.08660  Biso   1.000  C
  C4       1.0000 0.34930  0.83720  0.91340  Biso   1.000  C
  N1       1.0000 0.82020  0.06090  0.03560  Biso   1.000  N
  N2       1.0000 0.17980  0.93910  0.96440  Biso   1.000  N
  N3       1.0000 0.76240  0.13380  0.08606  Biso   1.000  N
  N4       1.0000 0.23760  0.86620  0.91394  Biso   1.000  N
  N5       1.0000 0.63340  0.10870  0.03950  Biso   1.000  N
  N6       1.0000 0.36660  0.89130  0.96050  Biso   1.000  N
  N7       1.0000 0.52300  0.12180  0.02672  Biso   1.000  N
  N8       1.0000 0.47700  0.87820  0.97328  Biso   1.000  N
  C5       1.0000 0.09610  0.21800  0.96870  Biso   1.000  C
  C6       1.0000 0.90390  0.78200  0.03130  Biso   1.000  C
  C7       1.0000 0.99670  0.30400  0.06390  Biso   1.000  C
  C8       1.0000 0.00330  0.69600  0.93610  Biso   1.000  C
  N9       1.0000 0.01970  0.16390  0.01268  Biso   1.000  N
  N10      1.0000 0.98030  0.83610  0.98732  Biso   1.000  N
  N11      1.0000 0.95660  0.21890  0.07409  Biso   1.000  N
  N12      1.0000 0.04340  0.78110  0.92591  Biso   1.000  N
  N13      1.0000 0.08410  0.30430  0.99923  Biso   1.000  N
  N14      1.0000 0.91590  0.69570  0.00077  Biso   1.000  N
  N15      1.0000 0.15260  0.37930  0.96672  Biso   1.000  N
  N16      1.0000 0.84740  0.62070  0.03328  Biso   1.000  N
  C9       1.0000 0.07020  0.83200  0.14040  Biso   1.000  C
  C10      1.0000 0.92980  0.16800  0.85960  Biso   1.000  C
  C11      1.0000 0.98730  0.91630  0.23890  Biso   1.000  C
  C12      1.0000 0.01270  0.08370  0.76110  Biso   1.000  C
  N17      1.0000 0.01120  0.93150  0.11297  Biso   1.000  N
  N18      1.0000 0.98880  0.06850  0.88703  Biso   1.000  N
  N19      1.0000 0.95810  0.98670  0.17546  Biso   1.000  N
  N20      1.0000 0.04190  0.01330  0.82454  Biso   1.000  N
  N21      1.0000 0.05640  0.81940  0.21922  Biso   1.000  N
  N22      1.0000 0.94360  0.18060  0.78078  Biso   1.000  N
  N23      1.0000 0.10610  0.72550  0.27296  Biso   1.000  N
  N24      1.0000 0.89390  0.27450  0.72704  Biso   1.000  N
  C13      1.0000 0.67610  0.03240  0.26640  Biso   1.000  C
  C14      1.0000 0.32390  0.96760  0.73360  Biso   1.000  C
  C15      1.0000 0.57790  0.12000  0.36070  Biso   1.000  C
  C16      1.0000 0.42210  0.88000  0.63930  Biso   1.000  C
  N25      1.0000 0.70980  0.12130  0.25232  Biso   1.000  N
  N26      1.0000 0.29020  0.87870  0.74768  Biso   1.000  N
  N27      1.0000 0.64740  0.17830  0.31235  Biso   1.000  N
  N28      1.0000 0.35260  0.82170  0.68765  Biso   1.000  N
  N29      1.0000 0.59370  0.02940  0.33316  Biso   1.000  N
  N30      1.0000 0.40630  0.97060  0.66684  Biso   1.000  N
  N31      1.0000 0.53900  0.94340  0.36580  Biso   1.000  N
  N32      1.0000 0.46100  0.05660  0.63420  Biso   1.000  N
  C17      1.0000 0.69420  0.41630  0.08660  Biso   1.000  C
  C18      1.0000 0.30580  0.58370  0.91340  Biso   1.000  C
  C19      1.0000 0.60610  0.51040  0.17870  Biso   1.000  C
  C20      1.0000 0.39390  0.48960  0.82130  Biso   1.000  C
  N33      1.0000 0.71590  0.35090  0.15302  Biso   1.000  N
  N34      1.0000 0.28410  0.64910  0.84698  Biso   1.000  N
  N35      1.0000 0.65980  0.41150  0.21200  Biso   1.000  N
  N36      1.0000 0.34020  0.58850  0.78800  Biso   1.000  N
  N37      1.0000 0.62620  0.51640  0.09938  Biso   1.000  N
  N38      1.0000 0.37380  0.48360  0.90062  Biso   1.000  N
  N39      1.0000 0.59000  0.60500  0.03772  Biso   1.000  N
  N40      1.0000 0.41000  0.39500  0.96228  Biso   1.000  N
  C21      1.0000 0.01400  0.16850  0.24270  Biso   1.000  C
  C22      1.0000 0.98600  0.83150  0.75730  Biso   1.000  C
  C23      1.0000 0.92480  0.27640  0.32660  Biso   1.000  C
  C24      1.0000 0.07520  0.72360  0.67340  Biso   1.000  C
  N41      1.0000 0.90300  0.20300  0.24002  Biso   1.000  N
  N42      1.0000 0.09700  0.79700  0.75998  Biso   1.000  N
  N43      1.0000 0.84590  0.27160  0.29416  Biso   1.000  N
  N44      1.0000 0.15410  0.72840  0.70584  Biso   1.000  N
  N45      1.0000 0.03050  0.21230  0.29585  Biso   1.000  N
  N46      1.0000 0.96950  0.78770  0.70415  Biso   1.000  N
  N47      1.0000 0.14060  0.19650  0.31132  Biso   1.000  N
  N48      1.0000 0.85940  0.80350  0.68868  Biso   1.000  N
  C25      1.0000 0.74540  0.17240  0.46860  Biso   1.000  C
  C26      1.0000 0.25460  0.82760  0.53140  Biso   1.000  C
  C27      1.0000 0.64530  0.24990  0.56860  Biso   1.000  C
  C28      1.0000 0.35470  0.75010  0.43140  Biso   1.000  C
  N49      1.0000 0.68100  0.27060  0.44154  Biso   1.000  N
  N50      1.0000 0.31900  0.72940  0.55846  Biso   1.000  N
  N51      1.0000 0.61860  0.32060  0.50512  Biso   1.000  N
  N52      1.0000 0.38140  0.67940  0.49488  Biso   1.000  N
  N53      1.0000 0.72350  0.15750  0.54823  Biso   1.000  N
  N54      1.0000 0.27650  0.84250  0.45177  Biso   1.000  N
  N55      1.0000 0.77880  0.06160  0.59767  Biso   1.000  N
  N56      1.0000 0.22120  0.93840  0.40233  Biso   1.000  N
  C29      1.0000 0.41710  0.39870  0.32920  Biso   1.000  C
  C30      1.0000 0.58290  0.60130  0.67080  Biso   1.000  C
  C31      1.0000 0.32210  0.50340  0.41410  Biso   1.000  C
  C32      1.0000 0.67790  0.49660  0.58590  Biso   1.000  C
  N57      1.0000 0.49370  0.40680  0.36182  Biso   1.000  N
  N58      1.0000 0.50630  0.59320  0.63818  Biso   1.000  N
  N59      1.0000 0.43170  0.47370  0.41686  Biso   1.000  N
  N60      1.0000 0.56830  0.52630  0.58314  Biso   1.000  N
  N61      1.0000 0.30900  0.45850  0.35913  Biso   1.000  N
  N62      1.0000 0.69100  0.54150  0.64087  Biso   1.000  N
  N63      1.0000 0.20170  0.46720  0.34342  Biso   1.000  N
  N64      1.0000 0.79830  0.53280  0.65658  Biso   1.000  N
  C33      1.0000 0.75960  0.55980  0.30350  Biso   1.000  C
  C34      1.0000 0.24040  0.44020  0.69650  Biso   1.000  C
  C35      1.0000 0.66170  0.64070  0.40160  Biso   1.000  C
  C36      1.0000 0.33830  0.35930  0.59840  Biso   1.000  C
  N65      1.0000 0.68800  0.50150  0.34882  Biso   1.000  N
  N66      1.0000 0.31200  0.49850  0.65118  Biso   1.000  N
  N67      1.0000 0.62510  0.55320  0.41147  Biso   1.000  N
  N68      1.0000 0.37490  0.44680  0.58853  Biso   1.000  N
  N69      1.0000 0.74510  0.64570  0.33538  Biso   1.000  N
  N70      1.0000 0.25490  0.35430  0.66462  Biso   1.000  N
  N71      1.0000 0.80400  0.72910  0.30089  Biso   1.000  N
  N72      1.0000 0.19600  0.27090  0.69911  Biso   1.000  N
  H1       1.0000 0.05360  0.98150  0.40590  Biso   1.000  H
  H2       1.0000 0.94640  0.01850  0.59410  Biso   1.000  H
  H3       1.0000 0.94220  0.93480  0.44150  Biso   1.000  H
  H4       1.0000 0.05780  0.06520  0.55850  Biso   1.000  H
  H5       1.0000 0.67840  0.29580  0.90630  Biso   1.000  H
  H6       1.0000 0.32160  0.70420  0.09370  Biso   1.000  H
  H7       1.0000 0.71940  0.40310  0.88890  Biso   1.000  H
  H8       1.0000 0.28060  0.59690  0.11110  Biso   1.000  H
  H9       1.0000 0.57730  0.76950  0.78040  Biso   1.000  H
  H10      1.0000 0.42270  0.23050  0.21960  Biso   1.000  H
  H11      1.0000 0.64530  0.64450  0.84430  Biso   1.000  H
  H12      1.0000 0.35470  0.35550  0.15570  Biso   1.000  H
  H13      1.0000 0.06190  0.58490  0.54380  Biso   1.000  H
  H14      1.0000 0.93810  0.41510  0.45620  Biso   1.000  H
  H15      1.0000 0.01980  0.70740  0.49800  Biso   1.000  H
  H16      1.0000 0.98020  0.29260  0.50200  Biso   1.000  H
  H17      1.0000 0.96560  0.45450  0.60390  Biso   1.000  H
  H18      1.0000 0.03440  0.54550  0.39610  Biso   1.000  H
  H19      1.0000 0.06030  0.39240  0.56200  Biso   1.000  H
  H20      1.0000 0.93970  0.60760  0.43800  Biso   1.000  H
  H21      1.0000 0.69700  0.88770  0.73570  Biso   1.000  H
  H22      1.0000 0.30300  0.11230  0.26430  Biso   1.000  H
  H23      1.0000 0.70880  0.93720  0.86750  Biso   1.000  H
  H24      1.0000 0.29120  0.06280  0.13250  Biso   1.000  H
  H25      1.0000 0.27860  0.18650  0.77870  Biso   1.000  H
  H26      1.0000 0.72140  0.81350  0.22130  Biso   1.000  H
  H27      1.0000 0.32190  0.17420  0.86080  Biso   1.000  H
  H28      1.0000 0.67810  0.82580  0.13920  Biso   1.000  H
  H29      1.0000 0.53890  0.12480  0.97030  Biso   1.000  H
  H30      1.0000 0.46110  0.87520  0.02970  Biso   1.000  H
  H31      1.0000 0.51280  0.05170  0.05900  Biso   1.000  H
  H32      1.0000 0.48720  0.94830  0.94100  Biso   1.000  H
  H33      1.0000 0.12010  0.43900  0.92770  Biso   1.000  H
  H34      1.0000 0.87990  0.56100  0.07230  Biso   1.000  H
  H35      1.0000 0.15020  0.40660  0.01140  Biso   1.000  H
  H36      1.0000 0.84980  0.59340  0.98860  Biso   1.000  H
  H37      1.0000 0.10290  0.66140  0.26070  Biso   1.000  H
  H38      1.0000 0.89710  0.33860  0.73930  Biso   1.000  H
  H39      1.0000 0.15980  0.76470  0.27370  Biso   1.000  H
  H40      1.0000 0.84020  0.23530  0.72630  Biso   1.000  H
  H41      1.0000 0.55120  0.91870  0.41840  Biso   1.000  H
  H42      1.0000 0.44880  0.08130  0.58160  Biso   1.000  H
  H43      1.0000 0.47160  0.96430  0.34280  Biso   1.000  H
  H44      1.0000 0.52840  0.03570  0.65720  Biso   1.000  H
  H45      1.0000 0.59580  0.67170  0.04520  Biso   1.000  H
  H46      1.0000 0.40420  0.32830  0.95480  Biso   1.000  H
  H47      1.0000 0.50760  0.61470  0.04560  Biso   1.000  H
  H48      1.0000 0.49240  0.38530  0.95440  Biso   1.000  H
  H49      1.0000 0.15330  0.26820  0.29260  Biso   1.000  H
  H50      1.0000 0.84670  0.73180  0.70740  Biso   1.000  H
  H51      1.0000 0.12510  0.17640  0.36820  Biso   1.000  H
  H52      1.0000 0.87490  0.82360  0.63180  Biso   1.000  H
  H53      1.0000 0.75630  0.07090  0.65150  Biso   1.000  H
  H54      1.0000 0.24370  0.92910  0.34850  Biso   1.000  H
  H55      1.0000 0.75520  0.99940  0.59710  Biso   1.000  H
  H56      1.0000 0.24480  0.00060  0.40290  Biso   1.000  H
  H57      1.0000 0.19060  0.39300  0.37020  Biso   1.000  H
  H58      1.0000 0.80940  0.60700  0.62980  Biso   1.000  H
  H59      1.0000 0.22530  0.47960  0.28690  Biso   1.000  H
  H60      1.0000 0.77470  0.52040  0.71310  Biso   1.000  H
  H61      1.0000 0.88810  0.70590  0.29040  Biso   1.000  H
  H62      1.0000 0.11190  0.29410  0.70960  Biso   1.000  H
  H63      1.0000 0.79950  0.75610  0.34620  Biso   1.000  H
  H64      1.0000 0.20050  0.24390  0.65380  Biso   1.000  H
  H65      1.0000 0.75000  0.99170  0.97140  Biso   1.000  H
  H66      1.0000 0.25000  0.00830  0.02860  Biso   1.000  H
  H67      1.0000 0.57810  0.21810  0.11910  Biso   1.000  H
  H68      1.0000 0.42190  0.78190  0.88090  Biso   1.000  H
  H69      1.0000 0.16420  0.20150  0.91680  Biso   1.000  H
  H70      1.0000 0.83580  0.79850  0.08320  Biso   1.000  H
  H71      1.0000 0.96700  0.35890  0.10470  Biso   1.000  H
  H72      1.0000 0.03300  0.64110  0.89530  Biso   1.000  H
  H73      1.0000 0.11550  0.77470  0.10130  Biso   1.000  H
  H74      1.0000 0.88450  0.22530  0.89870  Biso   1.000  H
  H75      1.0000 0.97020  0.92720  0.29890  Biso   1.000  H
  H76      1.0000 0.02980  0.07280  0.70110  Biso   1.000  H
  H77      1.0000 0.70710  0.97340  0.22820  Biso   1.000  H
  H78      1.0000 0.29290  0.02660  0.77180  Biso   1.000  H
  H79      1.0000 0.52050  0.13550  0.41640  Biso   1.000  H
  H80      1.0000 0.47950  0.86450  0.58360  Biso   1.000  H
  H81      1.0000 0.72320  0.39270  0.02980  Biso   1.000  H
  H82      1.0000 0.27680  0.60730  0.97020  Biso   1.000  H
  H83      1.0000 0.55260  0.57760  0.20830  Biso   1.000  H
  H84      1.0000 0.44740  0.42240  0.79170  Biso   1.000  H
  H85      1.0000 0.08020  0.11680  0.20470  Biso   1.000  H
  H86      1.0000 0.91980  0.88320  0.79530  Biso   1.000  H
  H87      1.0000 0.91460  0.32020  0.37180  Biso   1.000  H
  H88      1.0000 0.08540  0.67980  0.62820  Biso   1.000  H
  H89      1.0000 0.80150  0.10950  0.43560  Biso   1.000  H
  H90      1.0000 0.19850  0.89050  0.56440  Biso   1.000  H
  H91      1.0000 0.61510  0.25570  0.63020  Biso   1.000  H
  H92      1.0000 0.38490  0.74430  0.36980  Biso   1.000  H
  H93      1.0000 0.43040  0.34960  0.28660  Biso   1.000  H
  H94      1.0000 0.56960  0.65040  0.71340  Biso   1.000  H
  H95      1.0000 0.25050  0.55750  0.44800  Biso   1.000  H
  H96      1.0000 0.74950  0.44250  0.55200  Biso   1.000  H
  H97      1.0000 0.82810  0.54110  0.25210  Biso   1.000  H
  H98      1.0000 0.17190  0.45890  0.74790  Biso   1.000  H
  H99      1.0000 0.62680  0.69940  0.44020  Biso   1.000  H
  H100     1.0000 0.37320  0.30060  0.55980  Biso   1.000  H
