data_image0
_cell_length_a       10.285
_cell_length_b       11.727
_cell_length_c       15.521
_cell_angle_alpha    104.99
_cell_angle_beta     91.45
_cell_angle_gamma    103.49

_symmetry_space_group_name_H-M    "P 1"
_symmetry_int_tables_number       1

loop_
  _symmetry_equiv_pos_as_xyz
  'x, y, z'

loop_
  _atom_site_label
  _atom_site_occupancy
  _atom_site_fract_x
  _atom_site_fract_y
  _atom_site_fract_z
  _atom_site_thermal_displace_type
  _atom_site_B_iso_or_equiv
  _atom_site_type_symbol
  Cu1      1.0000 0.50000  0.50000  0.00000  Biso   1.000  Cu
  Cu2      1.0000 0.50479  0.49509  0.24941  Biso   1.000  Cu
  Cu3      1.0000 0.49521  0.50491  0.75059  Biso   1.000  Cu
  Cu4      1.0000 0.50000  0.50000  0.50000  Biso   1.000  Cu
  Si1      1.0000 0.94328  0.27579  0.82671  Biso   1.000  Si
  Si2      1.0000 0.05672  0.72421  0.17329  Biso   1.000  Si
  F1       1.0000 0.89040  0.35640  0.76400  Biso   1.000  F
  F2       1.0000 0.10960  0.64360  0.23600  Biso   1.000  F
  F3       1.0000 0.89030  0.35790  0.91829  Biso   1.000  F
  F4       1.0000 0.10970  0.64210  0.08171  Biso   1.000  F
  F5       1.0000 0.09350  0.37890  0.84870  Biso   1.000  F
  F6       1.0000 0.90650  0.62110  0.15130  Biso   1.000  F
  F7       1.0000 0.79230  0.17580  0.80530  Biso   1.000  F
  F8       1.0000 0.20770  0.82420  0.19470  Biso   1.000  F
  F9       1.0000 0.99680  0.19420  0.73590  Biso   1.000  F
  F10      1.0000 0.00320  0.80580  0.26410  Biso   1.000  F
  F11      1.0000 0.00000  0.19890  0.89070  Biso   1.000  F
  F12      1.0000 0.00000  0.80110  0.10930  Biso   1.000  F
  B1       1.0000 0.43040  0.95320  0.64950  Biso   1.000  B
  B2       1.0000 0.56960  0.04680  0.35050  Biso   1.000  B
  F13      1.0000 0.41480  0.84710  0.67560  Biso   1.000  F
  F14      1.0000 0.58520  0.15290  0.32440  Biso   1.000  F
  F15      1.0000 0.50800  0.05170  0.71592  Biso   1.000  F
  F16      1.0000 0.49200  0.94830  0.28408  Biso   1.000  F
  F17      1.0000 0.30640  0.97600  0.63620  Biso   1.000  F
  F18      1.0000 0.69360  0.02400  0.36380  Biso   1.000  F
  F19      1.0000 0.49610  0.94130  0.57181  Biso   1.000  F
  F20      1.0000 0.50390  0.05870  0.42819  Biso   1.000  F
  B3       1.0000 0.02450  0.73300  0.67880  Biso   1.000  B
  B4       1.0000 0.97550  0.26700  0.32120  Biso   1.000  B
  F21      1.0000 0.12660  0.69170  0.68920  Biso   1.000  F
  F22      1.0000 0.87340  0.30830  0.31080  Biso   1.000  F
  F23      1.0000 0.01630  0.79980  0.61680  Biso   1.000  F
  F24      1.0000 0.98370  0.20020  0.38320  Biso   1.000  F
  F25      1.0000 0.00030  0.81050  0.76400  Biso   1.000  F
  F26      1.0000 0.99970  0.18950  0.23600  Biso   1.000  F
  F27      1.0000 0.90710  0.63860  0.65660  Biso   1.000  F
  F28      1.0000 0.09290  0.36140  0.34340  Biso   1.000  F
  F29      1.0000 0.11900  0.73200  0.71910  Biso   1.000  F
  F30      1.0000 0.88100  0.26800  0.28090  Biso   1.000  F
  F31      1.0000 0.09480  0.69930  0.59010  Biso   1.000  F
  F32      1.0000 0.90520  0.30070  0.40990  Biso   1.000  F
  F33      1.0000 0.02790  0.85460  0.67800  Biso   1.000  F
  F34      1.0000 0.97210  0.14540  0.32200  Biso   1.000  F
  F35      1.0000 0.89200  0.67000  0.66300  Biso   1.000  F
  F36      1.0000 0.10800  0.33000  0.33700  Biso   1.000  F
  O1       1.0000 0.49480  0.03180  0.89340  Biso   1.000  O
  O2       1.0000 0.50520  0.96820  0.10660  Biso   1.000  O
  O3       1.0000 0.04680  0.90940  0.50560  Biso   1.000  O
  O4       1.0000 0.95320  0.09060  0.49440  Biso   1.000  O
  O5       1.0000 0.12980  0.16700  0.57990  Biso   1.000  O
  O6       1.0000 0.87020  0.83300  0.42010  Biso   1.000  O
  O7       1.0000 0.78350  0.85920  0.43370  Biso   1.000  O
  O8       1.0000 0.21650  0.14080  0.56630  Biso   1.000  O
  O9       1.0000 0.64140  0.89540  0.94530  Biso   1.000  O
  O10      1.0000 0.35860  0.10460  0.05470  Biso   1.000  O
  O11      1.0000 0.76980  0.99160  0.91810  Biso   1.000  O
  O12      1.0000 0.23020  0.00840  0.08190  Biso   1.000  O
  O13      1.0000 0.90630  0.98600  0.92850  Biso   1.000  O
  O14      1.0000 0.09370  0.01400  0.07150  Biso   1.000  O
  N1       1.0000 0.59870  0.37630  0.07270  Biso   1.000  N
  N2       1.0000 0.40130  0.62370  0.92730  Biso   1.000  N
  N3       1.0000 0.58600  0.37730  0.16210  Biso   1.000  N
  N4       1.0000 0.41400  0.62270  0.83790  Biso   1.000  N
  N5       1.0000 0.68920  0.23800  0.10300  Biso   1.000  N
  N6       1.0000 0.31080  0.76200  0.89700  Biso   1.000  N
  N7       1.0000 0.75790  0.14500  0.09200  Biso   1.000  N
  N8       1.0000 0.24210  0.85500  0.90800  Biso   1.000  N
  C1       1.0000 0.66190  0.29100  0.03940  Biso   1.000  C
  C2       1.0000 0.33810  0.70900  0.96060  Biso   1.000  C
  H1       1.0000 0.68430  0.27040  0.98070  Biso   1.000  H
  H2       1.0000 0.31570  0.72960  0.01930  Biso   1.000  H
  C3       1.0000 0.64130  0.29410  0.17790  Biso   1.000  C
  C4       1.0000 0.35870  0.70590  0.82210  Biso   1.000  C
  H3       1.0000 0.64660  0.27640  0.23270  Biso   1.000  H
  H4       1.0000 0.35340  0.72360  0.76730  Biso   1.000  H
  N9       1.0000 0.59100  0.65020  0.09820  Biso   1.000  N
  N10      1.0000 0.40900  0.34980  0.90180  Biso   1.000  N
  N11      1.0000 0.60530  0.65140  0.18780  Biso   1.000  N
  N12      1.0000 0.39470  0.34860  0.81220  Biso   1.000  N
  N13      1.0000 0.71760  0.82480  0.17130  Biso   1.000  N
  N14      1.0000 0.28240  0.17520  0.82870  Biso   1.000  N
  N15      1.0000 0.80230  0.94500  0.18830  Biso   1.000  N
  N16      1.0000 0.19770  0.05500  0.81170  Biso   1.000  N
  C5       1.0000 0.65870  0.75540  0.09110  Biso   1.000  C
  C6       1.0000 0.34130  0.24460  0.90890  Biso   1.000  C
  H5       1.0000 0.66520  0.77880  0.03820  Biso   1.000  H
  H6       1.0000 0.33480  0.22120  0.96180  Biso   1.000  H
  C7       1.0000 0.68370  0.75860  0.22970  Biso   1.000  C
  C8       1.0000 0.31630  0.24140  0.77030  Biso   1.000  C
  H7       1.0000 0.71130  0.78460  0.29060  Biso   1.000  H
  H8       1.0000 0.28870  0.21540  0.70940  Biso   1.000  H
  N17      1.0000 0.34060  0.46380  0.07280  Biso   1.000  N
  N18      1.0000 0.65940  0.53620  0.92720  Biso   1.000  N
  N19      1.0000 0.34120  0.45710  0.15990  Biso   1.000  N
  N20      1.0000 0.65880  0.54290  0.84010  Biso   1.000  N
  N21      1.0000 0.13380  0.40990  0.10350  Biso   1.000  N
  N22      1.0000 0.86620  0.59010  0.89650  Biso   1.000  N
  N23      1.0000 0.99180  0.37960  0.09780  Biso   1.000  N
  N24      1.0000 0.00820  0.62040  0.90220  Biso   1.000  N
  C9       1.0000 0.21500  0.43750  0.04070  Biso   1.000  C
  C10      1.0000 0.78500  0.56250  0.95930  Biso   1.000  C
  H9       1.0000 0.18610  0.43780  0.98350  Biso   1.000  H
  H10      1.0000 0.81390  0.56220  0.01650  Biso   1.000  H
  C11      1.0000 0.21490  0.42310  0.17600  Biso   1.000  C
  C12      1.0000 0.78510  0.57690  0.82400  Biso   1.000  C
  H11      1.0000 0.18640  0.41010  0.22990  Biso   1.000  H
  H12      1.0000 0.81360  0.58990  0.77010  Biso   1.000  H
  N25      1.0000 0.40590  0.61160  0.42420  Biso   1.000  N
  N26      1.0000 0.59410  0.38840  0.57580  Biso   1.000  N
  N27      1.0000 0.42490  0.61450  0.33630  Biso   1.000  N
  N28      1.0000 0.57510  0.38550  0.66370  Biso   1.000  N
  N29      1.0000 0.32450  0.75660  0.39650  Biso   1.000  N
  N30      1.0000 0.67550  0.24340  0.60350  Biso   1.000  N
  N31      1.0000 0.25880  0.85120  0.40960  Biso   1.000  N
  N32      1.0000 0.74120  0.14880  0.59040  Biso   1.000  N
  C13      1.0000 0.34510  0.69830  0.45890  Biso   1.000  C
  C14      1.0000 0.65490  0.30170  0.54110  Biso   1.000  C
  H13      1.0000 0.32030  0.71670  0.51710  Biso   1.000  H
  H14      1.0000 0.67970  0.28330  0.48290  Biso   1.000  H
  C15      1.0000 0.37570  0.70160  0.32150  Biso   1.000  C
  C16      1.0000 0.62430  0.29840  0.67850  Biso   1.000  C
  H15      1.0000 0.37570  0.72280  0.26770  Biso   1.000  H
  H16      1.0000 0.62430  0.27720  0.73230  Biso   1.000  H
  N33      1.0000 0.40610  0.34710  0.40580  Biso   1.000  N
  N34      1.0000 0.59390  0.65290  0.59420  Biso   1.000  N
  N35      1.0000 0.40320  0.33880  0.31490  Biso   1.000  N
  N36      1.0000 0.59680  0.66120  0.68510  Biso   1.000  N
  N37      1.0000 0.28670  0.16930  0.33560  Biso   1.000  N
  N38      1.0000 0.71330  0.83070  0.66440  Biso   1.000  N
  N39      1.0000 0.20320  0.04970  0.32330  Biso   1.000  N
  N40      1.0000 0.79680  0.95030  0.67670  Biso   1.000  N
  C17      1.0000 0.33670  0.24330  0.41580  Biso   1.000  C
  C18      1.0000 0.66330  0.75670  0.58420  Biso   1.000  C
  H17      1.0000 0.32430  0.22450  0.47010  Biso   1.000  H
  H18      1.0000 0.67570  0.77550  0.52990  Biso   1.000  H
  C19      1.0000 0.33000  0.23070  0.27500  Biso   1.000  C
  C20      1.0000 0.67000  0.76930  0.72500  Biso   1.000  C
  H19      1.0000 0.31000  0.19990  0.21330  Biso   1.000  H
  H20      1.0000 0.69000  0.80010  0.78670  Biso   1.000  H
  N41      1.0000 0.66730  0.52350  0.42610  Biso   1.000  N
  N42      1.0000 0.33270  0.47650  0.57390  Biso   1.000  N
  N43      1.0000 0.66750  0.53080  0.33860  Biso   1.000  N
  N44      1.0000 0.33250  0.46920  0.66140  Biso   1.000  N
  N45      1.0000 0.87500  0.57490  0.39530  Biso   1.000  N
  N46      1.0000 0.12500  0.42510  0.60470  Biso   1.000  N
  N47      1.0000 0.01760  0.61020  0.40840  Biso   1.000  N
  N48      1.0000 0.98240  0.38980  0.59160  Biso   1.000  N
  C21      1.0000 0.79280  0.54910  0.45830  Biso   1.000  C
  C22      1.0000 0.20720  0.45090  0.54170  Biso   1.000  C
  H21      1.0000 0.82120  0.54960  0.51580  Biso   1.000  H
  H22      1.0000 0.17880  0.45040  0.48420  Biso   1.000  H
  C23      1.0000 0.79350  0.56280  0.32290  Biso   1.000  C
  C24      1.0000 0.20650  0.43720  0.67710  Biso   1.000  C
  H23      1.0000 0.82250  0.57530  0.26900  Biso   1.000  H
  H24      1.0000 0.17750  0.42470  0.73100  Biso   1.000  H
  H25      1.0000 0.33440  0.91800  0.42740  Biso   1.000  H
  H26      1.0000 0.66560  0.08200  0.57260  Biso   1.000  H
  H27      1.0000 0.19340  0.81010  0.35800  Biso   1.000  H
  H28      1.0000 0.80660  0.18990  0.64200  Biso   1.000  H
  H29      1.0000 0.04840  0.71330  0.42090  Biso   1.000  H
  H30      1.0000 0.95160  0.28670  0.57910  Biso   1.000  H
  H31      1.0000 0.05490  0.57150  0.35450  Biso   1.000  H
  H32      1.0000 0.94510  0.42850  0.64550  Biso   1.000  H
  H33      1.0000 0.22240  0.99210  0.26210  Biso   1.000  H
  H34      1.0000 0.77760  0.00790  0.73790  Biso   1.000  H
  H35      1.0000 0.10880  0.05300  0.32060  Biso   1.000  H
  H36      1.0000 0.89120  0.94700  0.67940  Biso   1.000  H
  H37      1.0000 0.82370  0.17600  0.13730  Biso   1.000  H
  H38      1.0000 0.17630  0.82400  0.86270  Biso   1.000  H
  H39      1.0000 0.79470  0.13050  0.03420  Biso   1.000  H
  H40      1.0000 0.20530  0.86950  0.96580  Biso   1.000  H
  H41      1.0000 0.95870  0.34760  0.03600  Biso   1.000  H
  H42      1.0000 0.04130  0.65240  0.96400  Biso   1.000  H
  H43      1.0000 0.96720  0.45740  0.12000  Biso   1.000  H
  H44      1.0000 0.03280  0.54260  0.88000  Biso   1.000  H
  H45      1.0000 0.88770  0.92300  0.19610  Biso   1.000  H
  H46      1.0000 0.11230  0.07700  0.80390  Biso   1.000  H
  H47      1.0000 0.76400  0.99130  0.16730  Biso   1.000  H
  H48      1.0000 0.23600  0.00870  0.83270  Biso   1.000  H
  H49      1.0000 0.58040  0.01910  0.90330  Biso   1.000  H
  H50      1.0000 0.41960  0.98090  0.09670  Biso   1.000  H
  H51      1.0000 0.48800  0.03360  0.82350  Biso   1.000  H
  H52      1.0000 0.51200  0.96640  0.17650  Biso   1.000  H
