data_image0
_cell_length_a       9.688
_cell_length_b       13.529
_cell_length_c       15.76
_cell_angle_alpha    90
_cell_angle_beta     104.136
_cell_angle_gamma    90

_symmetry_space_group_name_H-M    "P 1"
_symmetry_int_tables_number       1

loop_
  _symmetry_equiv_pos_as_xyz
  'x, y, z'

loop_
  _atom_site_label
  _atom_site_occupancy
  _atom_site_fract_x
  _atom_site_fract_y
  _atom_site_fract_z
  _atom_site_thermal_displace_type
  _atom_site_B_iso_or_equiv
  _atom_site_type_symbol
  C1       1.0000 0.41430  0.96520  0.32510  Biso   1.000  C
  C2       1.0000 0.08570  0.46520  0.17490  Biso   1.000  C
  C3       1.0000 0.58570  0.03480  0.67490  Biso   1.000  C
  C4       1.0000 0.91430  0.53480  0.82510  Biso   1.000  C
  C5       1.0000 0.41460  0.86280  0.31780  Biso   1.000  C
  C6       1.0000 0.08540  0.36280  0.18220  Biso   1.000  C
  C7       1.0000 0.58540  0.13720  0.68220  Biso   1.000  C
  C8       1.0000 0.91460  0.63720  0.81780  Biso   1.000  C
  C9       1.0000 0.52050  0.80860  0.37110  Biso   1.000  C
  C10      1.0000 0.97950  0.30860  0.12890  Biso   1.000  C
  C11      1.0000 0.47950  0.19140  0.62890  Biso   1.000  C
  C12      1.0000 0.02050  0.69140  0.87110  Biso   1.000  C
  C13      1.0000 0.62700  0.85850  0.43170  Biso   1.000  C
  C14      1.0000 0.87300  0.35850  0.06830  Biso   1.000  C
  C15      1.0000 0.37300  0.14150  0.56830  Biso   1.000  C
  C16      1.0000 0.12700  0.64150  0.93170  Biso   1.000  C
  C17      1.0000 0.74480  0.81470  0.49320  Biso   1.000  C
  C18      1.0000 0.75520  0.31470  0.00680  Biso   1.000  C
  C19      1.0000 0.25520  0.18530  0.50680  Biso   1.000  C
  C20      1.0000 0.24480  0.68530  0.99320  Biso   1.000  C
  C21      1.0000 0.84460  0.86850  0.55150  Biso   1.000  C
  C22      1.0000 0.65540  0.36850  0.94850  Biso   1.000  C
  C23      1.0000 0.15540  0.13150  0.44850  Biso   1.000  C
  C24      1.0000 0.34460  0.63150  0.05150  Biso   1.000  C
  C25      1.0000 0.84020  0.97370  0.55620  Biso   1.000  C
  C26      1.0000 0.65980  0.47370  0.94380  Biso   1.000  C
  C27      1.0000 0.15980  0.02630  0.44380  Biso   1.000  C
  C28      1.0000 0.34020  0.52630  0.05620  Biso   1.000  C
  C29      1.0000 0.93700  0.03430  0.61420  Biso   1.000  C
  C30      1.0000 0.56300  0.53430  0.88580  Biso   1.000  C
  C31      1.0000 0.06300  0.96570  0.38580  Biso   1.000  C
  C32      1.0000 0.43700  0.46570  0.11420  Biso   1.000  C
  C33      1.0000 0.91770  0.13420  0.61030  Biso   1.000  C
  C34      1.0000 0.58230  0.63420  0.88970  Biso   1.000  C
  C35      1.0000 0.08230  0.86580  0.38970  Biso   1.000  C
  C36      1.0000 0.41770  0.36580  0.11030  Biso   1.000  C
  C37      1.0000 0.80140  0.17410  0.54970  Biso   1.000  C
  C38      1.0000 0.69860  0.67410  0.95030  Biso   1.000  C
  C39      1.0000 0.19860  0.82590  0.45030  Biso   1.000  C
  C40      1.0000 0.30140  0.32590  0.04970  Biso   1.000  C
  C41      1.0000 0.72630  0.01920  0.49680  Biso   1.000  C
  C42      1.0000 0.77370  0.51920  0.00320  Biso   1.000  C
  C43      1.0000 0.27370  0.98080  0.50320  Biso   1.000  C
  C44      1.0000 0.22630  0.48080  0.99680  Biso   1.000  C
  C45      1.0000 0.62110  0.96190  0.43550  Biso   1.000  C
  C46      1.0000 0.87890  0.46190  0.06450  Biso   1.000  C
  C47      1.0000 0.37890  0.03810  0.56450  Biso   1.000  C
  C48      1.0000 0.12110  0.53810  0.93550  Biso   1.000  C
  C49      1.0000 0.89660  0.70990  0.57350  Biso   1.000  C
  C50      1.0000 0.60340  0.20990  0.92650  Biso   1.000  C
  C51      1.0000 0.10340  0.29010  0.42650  Biso   1.000  C
  C52      1.0000 0.39660  0.79010  0.07350  Biso   1.000  C
  C53      1.0000 0.97330  0.61900  0.60790  Biso   1.000  C
  C54      1.0000 0.52670  0.11900  0.89210  Biso   1.000  C
  C55      1.0000 0.02670  0.38100  0.39210  Biso   1.000  C
  C56      1.0000 0.47330  0.88100  0.10790  Biso   1.000  C
  C57      1.0000 0.90840  0.52500  0.60820  Biso   1.000  C
  C58      1.0000 0.59160  0.02500  0.89180  Biso   1.000  C
  C59      1.0000 0.09160  0.47500  0.39180  Biso   1.000  C
  C60      1.0000 0.40840  0.97500  0.10820  Biso   1.000  C
  C61      1.0000 0.99130  0.44500  0.64500  Biso   1.000  C
  C62      1.0000 0.50870  0.94500  0.85500  Biso   1.000  C
  C63      1.0000 0.00870  0.55500  0.35500  Biso   1.000  C
  C64      1.0000 0.49130  0.05500  0.14500  Biso   1.000  C
  C65      1.0000 0.13720  0.45640  0.68100  Biso   1.000  C
  C66      1.0000 0.36280  0.95640  0.81900  Biso   1.000  C
  C67      1.0000 0.86280  0.54360  0.31900  Biso   1.000  C
  C68      1.0000 0.63720  0.04360  0.18100  Biso   1.000  C
  C69      1.0000 0.20090  0.54690  0.67800  Biso   1.000  C
  C70      1.0000 0.29910  0.04690  0.82200  Biso   1.000  C
  C71      1.0000 0.79910  0.45310  0.32200  Biso   1.000  C
  C72      1.0000 0.70090  0.95310  0.17800  Biso   1.000  C
  C73      1.0000 0.11830  0.62700  0.64160  Biso   1.000  C
  C74      1.0000 0.38170  0.12700  0.85840  Biso   1.000  C
  C75      1.0000 0.88170  0.37300  0.35840  Biso   1.000  C
  C76      1.0000 0.61830  0.87300  0.14160  Biso   1.000  C
  N1       1.0000 0.51470  0.01461  0.38213  Biso   1.000  N
  N2       1.0000 0.98530  0.51461  0.11787  Biso   1.000  N
  N3       1.0000 0.48530  0.98539  0.61787  Biso   1.000  N
  N4       1.0000 0.01470  0.48539  0.88213  Biso   1.000  N
  N5       1.0000 0.70740  0.11807  0.49422  Biso   1.000  N
  N6       1.0000 0.79260  0.61807  0.00578  Biso   1.000  N
  N7       1.0000 0.29260  0.88193  0.50578  Biso   1.000  N
  N8       1.0000 0.20740  0.38193  0.99422  Biso   1.000  N
  N9       1.0000 0.77960  0.71730  0.50831  Biso   1.000  N
  N10      1.0000 0.72040  0.21730  0.99169  Biso   1.000  N
  N11      1.0000 0.22040  0.28270  0.49169  Biso   1.000  N
  N12      1.0000 0.27960  0.78270  0.00831  Biso   1.000  N
  N13      1.0000 0.93930  0.80133  0.60106  Biso   1.000  N
  N14      1.0000 0.56070  0.30133  0.89894  Biso   1.000  N
  N15      1.0000 0.06070  0.19867  0.39894  Biso   1.000  N
  N16      1.0000 0.43930  0.69867  0.10106  Biso   1.000  N
  O1       1.0000 0.38500  0.37459  0.74272  Biso   1.000  O
  O2       1.0000 0.11500  0.87459  0.75728  Biso   1.000  O
  O3       1.0000 0.61500  0.62541  0.25728  Biso   1.000  O
  O4       1.0000 0.88500  0.12541  0.24272  Biso   1.000  O
  O5       1.0000 0.18840  0.27090  0.67435  Biso   1.000  O
  O6       1.0000 0.31160  0.77090  0.82565  Biso   1.000  O
  O7       1.0000 0.81160  0.72910  0.32565  Biso   1.000  O
  O8       1.0000 0.68840  0.22910  0.17435  Biso   1.000  O
  O9       1.0000 0.55400  0.30110  0.43130  Biso   1.000  O
  O10      1.0000 0.94600  0.80110  0.06870  Biso   1.000  O
  O11      1.0000 0.44600  0.69890  0.56870  Biso   1.000  O
  O12      1.0000 0.05400  0.19890  0.93130  Biso   1.000  O
  O13      1.0000 0.20390  0.34350  0.81583  Biso   1.000  O
  O14      1.0000 0.29610  0.84350  0.68417  Biso   1.000  O
  O15      1.0000 0.79610  0.65650  0.18417  Biso   1.000  O
  O16      1.0000 0.70390  0.15650  0.31583  Biso   1.000  O
  O17      1.0000 0.65880  0.56052  0.63037  Biso   1.000  O
  O18      1.0000 0.84120  0.06052  0.86963  Biso   1.000  O
  O19      1.0000 0.34120  0.43948  0.36963  Biso   1.000  O
  O20      1.0000 0.15880  0.93948  0.13037  Biso   1.000  O
  O21      1.0000 0.67830  0.53884  0.48113  Biso   1.000  O
  O22      1.0000 0.82170  0.03884  0.01887  Biso   1.000  O
  O23      1.0000 0.32170  0.46116  0.51887  Biso   1.000  O
  O24      1.0000 0.17830  0.96116  0.98113  Biso   1.000  O
  O25      1.0000 0.70190  0.39756  0.57663  Biso   1.000  O
  O26      1.0000 0.79810  0.89756  0.92337  Biso   1.000  O
  O27      1.0000 0.29810  0.60244  0.42337  Biso   1.000  O
  O28      1.0000 0.20190  0.10244  0.07663  Biso   1.000  O
  S1       1.0000 0.23428  0.35199  0.73166  Biso   1.000  S
  S2       1.0000 0.26572  0.85199  0.76834  Biso   1.000  S
  S3       1.0000 0.76572  0.64801  0.26834  Biso   1.000  S
  S4       1.0000 0.73428  0.14801  0.23166  Biso   1.000  S
  S5       1.0000 0.71981  0.50347  0.57114  Biso   1.000  S
  S6       1.0000 0.78019  0.00347  0.92886  Biso   1.000  S
  S7       1.0000 0.28019  0.49653  0.42886  Biso   1.000  S
  S8       1.0000 0.21981  0.99653  0.07114  Biso   1.000  S
  Cu1      1.0000 0.53983  0.16198  0.39612  Biso   1.000  Cu
  Cu2      1.0000 0.96017  0.66198  0.10388  Biso   1.000  Cu
  Cu3      1.0000 0.46017  0.83802  0.60388  Biso   1.000  Cu
  Cu4      1.0000 0.03983  0.33802  0.89612  Biso   1.000  Cu
  Cl1      1.0000 0.33978  0.19651  0.29771  Biso   1.000  Cl
  Cl2      1.0000 0.16022  0.69651  0.20229  Biso   1.000  Cl
  Cl3      1.0000 0.66022  0.80349  0.70229  Biso   1.000  Cl
  Cl4      1.0000 0.83978  0.30349  0.79771  Biso   1.000  Cl
  H1       1.0000 0.34800  0.99900  0.29200  Biso   1.000  H
  H2       1.0000 0.15200  0.49900  0.20800  Biso   1.000  H
  H3       1.0000 0.65200  0.00100  0.70800  Biso   1.000  H
  H4       1.0000 0.84800  0.50100  0.79200  Biso   1.000  H
  H5       1.0000 0.34300  0.83200  0.27300  Biso   1.000  H
  H6       1.0000 0.15700  0.33200  0.22700  Biso   1.000  H
  H7       1.0000 0.65700  0.16800  0.72700  Biso   1.000  H
  H8       1.0000 0.84300  0.66800  0.77300  Biso   1.000  H
  H9       1.0000 0.52100  0.74100  0.36600  Biso   1.000  H
  H10      1.0000 0.97900  0.24100  0.13400  Biso   1.000  H
  H11      1.0000 0.47900  0.25900  0.63400  Biso   1.000  H
  H12      1.0000 0.02100  0.75900  0.86600  Biso   1.000  H
  H13      1.0000 0.73000  0.66500  0.48600  Biso   1.000  H
  H14      1.0000 0.77000  0.16500  0.01400  Biso   1.000  H
  H15      1.0000 0.27000  0.33500  0.51400  Biso   1.000  H
  H16      1.0000 0.23000  0.83500  0.98600  Biso   1.000  H
  H17      1.0000 0.00500  0.00400  0.65800  Biso   1.000  H
  H18      1.0000 0.49500  0.50400  0.84200  Biso   1.000  H
  H19      1.0000 0.99500  0.99600  0.34200  Biso   1.000  H
  H20      1.0000 0.50500  0.49600  0.15800  Biso   1.000  H
  H21      1.0000 0.97700  0.18400  0.65300  Biso   1.000  H
  H22      1.0000 0.52300  0.68400  0.84700  Biso   1.000  H
  H23      1.0000 0.02300  0.81600  0.34700  Biso   1.000  H
  H24      1.0000 0.47700  0.31600  0.15300  Biso   1.000  H
  H25      1.0000 0.78500  0.24200  0.54600  Biso   1.000  H
  H26      1.0000 0.71500  0.74200  0.95400  Biso   1.000  H
  H27      1.0000 0.21500  0.75800  0.45400  Biso   1.000  H
  H28      1.0000 0.28500  0.25800  0.04600  Biso   1.000  H
  H29      1.0000 0.94900  0.38300  0.64600  Biso   1.000  H
  H30      1.0000 0.55100  0.88300  0.85400  Biso   1.000  H
  H31      1.0000 0.05100  0.61700  0.35400  Biso   1.000  H
  H32      1.0000 0.44900  0.11700  0.14600  Biso   1.000  H
  H33      1.0000 0.29500  0.55800  0.69700  Biso   1.000  H
  H34      1.0000 0.20500  0.05800  0.80300  Biso   1.000  H
  H35      1.0000 0.70500  0.44200  0.30300  Biso   1.000  H
  H36      1.0000 0.79500  0.94200  0.19700  Biso   1.000  H
  H37      1.0000 0.16000  0.68500  0.64100  Biso   1.000  H
  H38      1.0000 0.34000  0.18500  0.85900  Biso   1.000  H
  H39      1.0000 0.84000  0.31500  0.35900  Biso   1.000  H
  H40      1.0000 0.66000  0.81500  0.14100  Biso   1.000  H
  H41      1.0000 0.59600  0.32900  0.47700  Biso   1.000  H
  H42      1.0000 0.90400  0.82900  0.02300  Biso   1.000  H
  H43      1.0000 0.40400  0.67100  0.52300  Biso   1.000  H
  H44      1.0000 0.09600  0.17100  0.97700  Biso   1.000  H
  H45      1.0000 0.49300  0.33600  0.41000  Biso   1.000  H
  H46      1.0000 0.00700  0.83600  0.09000  Biso   1.000  H
  H47      1.0000 0.50700  0.66400  0.59000  Biso   1.000  H
  H48      1.0000 0.99300  0.16400  0.91000  Biso   1.000  H
