data_image0
_cell_length_a       5.7076
_cell_length_b       8.0943
_cell_length_c       15.5824
_cell_angle_alpha    80.959
_cell_angle_beta     79.768
_cell_angle_gamma    80.756

_symmetry_space_group_name_H-M    "P 1"
_symmetry_int_tables_number       1

loop_
  _symmetry_equiv_pos_as_xyz
  'x, y, z'

loop_
  _atom_site_label
  _atom_site_occupancy
  _atom_site_fract_x
  _atom_site_fract_y
  _atom_site_fract_z
  _atom_site_thermal_displace_type
  _atom_site_B_iso_or_equiv
  _atom_site_type_symbol
  Cu1      1.0000 0.00000  0.00000  0.50000  Biso   1.000  Cu
  O1       1.0000 0.16450  0.88070  0.23810  Biso   1.000  O
  O2       1.0000 0.83550  0.11930  0.76190  Biso   1.000  O
  O3       1.0000 0.24520  0.91340  0.40625  Biso   1.000  O
  O4       1.0000 0.75480  0.08660  0.59375  Biso   1.000  O
  C1       1.0000 0.86140  0.54810  0.07983  Biso   1.000  C
  C2       1.0000 0.13860  0.45190  0.92017  Biso   1.000  C
  C3       1.0000 0.71510  0.59870  0.16334  Biso   1.000  C
  C4       1.0000 0.28490  0.40130  0.83666  Biso   1.000  C
  C5       1.0000 0.36930  0.76720  0.23749  Biso   1.000  C
  C6       1.0000 0.63070  0.23280  0.76251  Biso   1.000  C
  C7       1.0000 0.77010  0.57900  0.00092  Biso   1.000  C
  C8       1.0000 0.22990  0.42100  0.99908  Biso   1.000  C
  H1       1.0000 0.61360  0.63290  0.00050  Biso   1.000  H
  H2       1.0000 0.38640  0.36710  0.99950  Biso   1.000  H
  C9       1.0000 0.50470  0.71340  0.16112  Biso   1.000  C
  C10      1.0000 0.49530  0.28660  0.83888  Biso   1.000  C
  H3       1.0000 0.45400  0.75460  0.10730  Biso   1.000  H
  H4       1.0000 0.54600  0.24540  0.89270  Biso   1.000  H
  C11      1.0000 0.09650  0.46740  0.07702  Biso   1.000  C
  C12      1.0000 0.90350  0.53260  0.92298  Biso   1.000  C
  H5       1.0000 0.16510  0.44430  0.12820  Biso   1.000  H
  H6       1.0000 0.83490  0.55570  0.87180  Biso   1.000  H
  O5       1.0000 0.24140  0.65230  0.46497  Biso   1.000  O
  O6       1.0000 0.75860  0.34770  0.53503  Biso   1.000  O
  C13      1.0000 0.44080  0.70430  0.31928  Biso   1.000  C
  C14      1.0000 0.55920  0.29570  0.68072  Biso   1.000  C
  C15      1.0000 0.78400  0.53590  0.24504  Biso   1.000  C
  C16      1.0000 0.21600  0.46410  0.75496  Biso   1.000  C
  H7       1.0000 0.92300  0.45910  0.24840  Biso   1.000  H
  H8       1.0000 0.07700  0.54090  0.75160  Biso   1.000  H
  C17      1.0000 0.64670  0.58720  0.32125  Biso   1.000  C
  C18      1.0000 0.35330  0.41280  0.67875  Biso   1.000  C
  H9       1.0000 0.69360  0.54200  0.37520  Biso   1.000  H
  H10      1.0000 0.30640  0.45800  0.62480  Biso   1.000  H
  C19      1.0000 0.07900  0.94130  0.15611  Biso   1.000  C
  C20      1.0000 0.92100  0.05870  0.84389  Biso   1.000  C
  H11      1.0000 0.05630  0.84720  0.12830  Biso   1.000  H
  H12      1.0000 0.94370  0.15280  0.87170  Biso   1.000  H
  H13      1.0000 0.19460  0.00460  0.11670  Biso   1.000  H
  H14      1.0000 0.80540  0.99540  0.88330  Biso   1.000  H
  C21      1.0000 0.84420  0.05300  0.17552  Biso   1.000  C
  C22      1.0000 0.15580  0.94700  0.82448  Biso   1.000  C
  H15      1.0000 0.87050  0.14900  0.20110  Biso   1.000  H
  H16      1.0000 0.12950  0.85100  0.79890  Biso   1.000  H
  H17      1.0000 0.73400  0.99060  0.21820  Biso   1.000  H
  H18      1.0000 0.26600  0.00940  0.78180  Biso   1.000  H
  C23      1.0000 0.29860  0.75830  0.40364  Biso   1.000  C
  C24      1.0000 0.70140  0.24170  0.59636  Biso   1.000  C
  C25      1.0000 0.73280  0.11560  0.09265  Biso   1.000  C
  C26      1.0000 0.26720  0.88440  0.90735  Biso   1.000  C
  H19      1.0000 0.83710  0.18350  0.05190  Biso   1.000  H
  H20      1.0000 0.16290  0.81650  0.94810  Biso   1.000  H
  H21      1.0000 0.57990  0.18200  0.10750  Biso   1.000  H
  H22      1.0000 0.42010  0.81800  0.89250  Biso   1.000  H
  H23      1.0000 0.71120  0.02070  0.06630  Biso   1.000  H
  H24      1.0000 0.28880  0.97930  0.93370  Biso   1.000  H
  O7       1.0000 0.22120  0.93350  0.58894  Biso   1.000  O
  O8       1.0000 0.77880  0.06650  0.41106  Biso   1.000  O
  H25      1.0000 0.32950  0.86090  0.57190  Biso   1.000  H
  H26      1.0000 0.67050  0.13910  0.42810  Biso   1.000  H
  H27      1.0000 0.16600  0.94300  0.64700  Biso   1.000  H
  H28      1.0000 0.83400  0.05700  0.35300  Biso   1.000  H
  O9       1.0000 0.25400  0.30250  0.45470  Biso   1.000  O
  O10      1.0000 0.74600  0.69750  0.54530  Biso   1.000  O
  H29      1.0000 0.09800  0.33500  0.46100  Biso   1.000  H
  H30      1.0000 0.90200  0.66500  0.53900  Biso   1.000  H
  H31      1.0000 0.28900  0.39400  0.45700  Biso   1.000  H
  H32      1.0000 0.71100  0.60600  0.54300  Biso   1.000  H
  O11      1.0000 0.26440  0.22840  0.27770  Biso   1.000  O
  O12      1.0000 0.73560  0.77160  0.72230  Biso   1.000  O
  H33      1.0000 0.29000  0.27500  0.32500  Biso   1.000  H
  H34      1.0000 0.71000  0.72500  0.67500  Biso   1.000  H
  H35      1.0000 0.28000  0.12100  0.30700  Biso   1.000  H
  H36      1.0000 0.72000  0.87900  0.69300  Biso   1.000  H
