data_image0
_cell_length_a       7.2578
_cell_length_b       5.7711
_cell_length_c       8.6604
_cell_angle_alpha    90
_cell_angle_beta     106.948
_cell_angle_gamma    90

_symmetry_space_group_name_H-M    "P 1"
_symmetry_int_tables_number       1

loop_
  _symmetry_equiv_pos_as_xyz
  'x, y, z'

loop_
  _atom_site_label
  _atom_site_occupancy
  _atom_site_fract_x
  _atom_site_fract_y
  _atom_site_fract_z
  _atom_site_thermal_displace_type
  _atom_site_B_iso_or_equiv
  _atom_site_type_symbol
  Cu1      1.0000 0.00000  0.50000  0.50000  Biso   1.000  Cu
  Cu2      1.0000 0.50000  0.00000  0.00000  Biso   1.000  Cu
  Na1      1.0000 0.26357  0.00141  0.35664  Biso   1.000  Na
  Na2      1.0000 0.23643  0.50141  0.14336  Biso   1.000  Na
  Na3      1.0000 0.73643  0.99859  0.64336  Biso   1.000  Na
  Na4      1.0000 0.76357  0.49859  0.85664  Biso   1.000  Na
  O1       1.0000 0.46058  0.69208  0.36247  Biso   1.000  O
  O2       1.0000 0.03942  0.19208  0.13753  Biso   1.000  O
  O3       1.0000 0.53942  0.30792  0.63753  Biso   1.000  O
  O4       1.0000 0.96058  0.80792  0.86247  Biso   1.000  O
  O5       1.0000 0.77498  0.68746  0.48961  Biso   1.000  O
  O6       1.0000 0.72502  0.18746  0.01039  Biso   1.000  O
  O7       1.0000 0.22502  0.31254  0.51039  Biso   1.000  O
  O8       1.0000 0.27498  0.81254  0.98961  Biso   1.000  O
  O9       1.0000 0.49635  0.24530  0.25797  Biso   1.000  O
  O10      1.0000 0.00365  0.74530  0.24203  Biso   1.000  O
  O11      1.0000 0.50365  0.75470  0.74203  Biso   1.000  O
  O12      1.0000 0.99635  0.25470  0.75797  Biso   1.000  O
  O13      1.0000 0.81136  0.26717  0.38761  Biso   1.000  O
  O14      1.0000 0.68864  0.76717  0.11239  Biso   1.000  O
  O15      1.0000 0.18864  0.73283  0.61239  Biso   1.000  O
  O16      1.0000 0.31136  0.23283  0.88761  Biso   1.000  O
  C1       1.0000 0.62010  0.59990  0.39855  Biso   1.000  C
  C2       1.0000 0.87990  0.09990  0.10145  Biso   1.000  C
  C3       1.0000 0.37990  0.40010  0.60145  Biso   1.000  C
  C4       1.0000 0.12010  0.90010  0.89855  Biso   1.000  C
  C5       1.0000 0.64070  0.34910  0.33917  Biso   1.000  C
  C6       1.0000 0.85930  0.84910  0.16083  Biso   1.000  C
  C7       1.0000 0.35930  0.65090  0.66083  Biso   1.000  C
  C8       1.0000 0.14070  0.15090  0.83917  Biso   1.000  C
