data_image0
_cell_length_a       11.2448
_cell_length_b       24.7374
_cell_length_c       18.7288
_cell_angle_alpha    90
_cell_angle_beta     107.204
_cell_angle_gamma    90

_symmetry_space_group_name_H-M    "P 1"
_symmetry_int_tables_number       1

loop_
  _symmetry_equiv_pos_as_xyz
  'x, y, z'

loop_
  _atom_site_label
  _atom_site_occupancy
  _atom_site_fract_x
  _atom_site_fract_y
  _atom_site_fract_z
  _atom_site_thermal_displace_type
  _atom_site_B_iso_or_equiv
  _atom_site_type_symbol
  Cu1      1.0000 0.24716  0.51291  0.48929  Biso   1.000  Cu
  Cu2      1.0000 0.25284  0.01291  0.01071  Biso   1.000  Cu
  Cu3      1.0000 0.75284  0.48709  0.51071  Biso   1.000  Cu
  Cu4      1.0000 0.74716  0.98709  0.98929  Biso   1.000  Cu
  Cu5      1.0000 0.96293  0.55164  0.45550  Biso   1.000  Cu
  Cu6      1.0000 0.53707  0.05164  0.04450  Biso   1.000  Cu
  Cu7      1.0000 0.03707  0.44836  0.54450  Biso   1.000  Cu
  Cu8      1.0000 0.46293  0.94836  0.95550  Biso   1.000  Cu
  Cu9      1.0000 0.49983  0.45597  0.55367  Biso   1.000  Cu
  Cu10     1.0000 0.00017  0.95597  0.94633  Biso   1.000  Cu
  Cu11     1.0000 0.50017  0.54403  0.44633  Biso   1.000  Cu
  Cu12     1.0000 0.99983  0.04403  0.05367  Biso   1.000  Cu
  O1       1.0000 0.13070  0.49197  0.39624  Biso   1.000  O
  O2       1.0000 0.36930  0.99197  0.10376  Biso   1.000  O
  O3       1.0000 0.86930  0.50803  0.60376  Biso   1.000  O
  O4       1.0000 0.63070  0.00803  0.89624  Biso   1.000  O
  O5       1.0000 0.12040  0.41028  0.44131  Biso   1.000  O
  O6       1.0000 0.37960  0.91028  0.05869  Biso   1.000  O
  O7       1.0000 0.87960  0.58972  0.55869  Biso   1.000  O
  O8       1.0000 0.62040  0.08972  0.94131  Biso   1.000  O
  O9       1.0000 0.95310  0.34296  0.34520  Biso   1.000  O
  O10      1.0000 0.54690  0.84296  0.15480  Biso   1.000  O
  O11      1.0000 0.04690  0.65704  0.65480  Biso   1.000  O
  O12      1.0000 0.45310  0.15704  0.84520  Biso   1.000  O
  O13      1.0000 0.17700  0.43278  0.62980  Biso   1.000  O
  O14      1.0000 0.32300  0.93278  0.87020  Biso   1.000  O
  O15      1.0000 0.82300  0.56722  0.37020  Biso   1.000  O
  O16      1.0000 0.67700  0.06722  0.12980  Biso   1.000  O
  O17      1.0000 0.19310  0.34342  0.62340  Biso   1.000  O
  O18      1.0000 0.30690  0.84342  0.87660  Biso   1.000  O
  O19      1.0000 0.80690  0.65658  0.37660  Biso   1.000  O
  O20      1.0000 0.69310  0.15658  0.12340  Biso   1.000  O
  O21      1.0000 0.44470  0.32224  0.68950  Biso   1.000  O
  O22      1.0000 0.05530  0.82224  0.81050  Biso   1.000  O
  O23      1.0000 0.55530  0.67776  0.31050  Biso   1.000  O
  O24      1.0000 0.94470  0.17776  0.18950  Biso   1.000  O
  O25      1.0000 0.37690  0.53366  0.58152  Biso   1.000  O
  O26      1.0000 0.12310  0.03366  0.91848  Biso   1.000  O
  O27      1.0000 0.62310  0.46634  0.41848  Biso   1.000  O
  O28      1.0000 0.87690  0.96634  0.08152  Biso   1.000  O
  O29      1.0000 0.25770  0.58427  0.62980  Biso   1.000  O
  O30      1.0000 0.24230  0.08427  0.87020  Biso   1.000  O
  O31      1.0000 0.74230  0.41573  0.37020  Biso   1.000  O
  O32      1.0000 0.75770  0.91573  0.12980  Biso   1.000  O
  O33      1.0000 0.61610  0.59508  0.64461  Biso   1.000  O
  O34      1.0000 0.88390  0.09508  0.85539  Biso   1.000  O
  O35      1.0000 0.38390  0.40492  0.35539  Biso   1.000  O
  O36      1.0000 0.11610  0.90492  0.14461  Biso   1.000  O
  O37      1.0000 0.39740  0.56308  0.35003  Biso   1.000  O
  O38      1.0000 0.10260  0.06308  0.14997  Biso   1.000  O
  O39      1.0000 0.60260  0.43692  0.64997  Biso   1.000  O
  O40      1.0000 0.89740  0.93692  0.85003  Biso   1.000  O
  O41      1.0000 0.26860  0.59645  0.40840  Biso   1.000  O
  O42      1.0000 0.23140  0.09645  0.09160  Biso   1.000  O
  O43      1.0000 0.73140  0.40355  0.59160  Biso   1.000  O
  O44      1.0000 0.76860  0.90355  0.90840  Biso   1.000  O
  O45      1.0000 0.09740  0.66418  0.31270  Biso   1.000  O
  O46      1.0000 0.40260  0.16418  0.18730  Biso   1.000  O
  O47      1.0000 0.90260  0.33582  0.68730  Biso   1.000  O
  O48      1.0000 0.59740  0.83582  0.81270  Biso   1.000  O
  O49      1.0000 0.05250  0.61963  0.46030  Biso   1.000  O
  O50      1.0000 0.44750  0.11963  0.03970  Biso   1.000  O
  O51      1.0000 0.94750  0.38037  0.53970  Biso   1.000  O
  O52      1.0000 0.55250  0.88037  0.96030  Biso   1.000  O
  O53      1.0000 0.10850  0.51924  0.53154  Biso   1.000  O
  O54      1.0000 0.39150  0.01924  0.96846  Biso   1.000  O
  O55      1.0000 0.89150  0.48076  0.46846  Biso   1.000  O
  O56      1.0000 0.60850  0.98076  0.03154  Biso   1.000  O
  O57      1.0000 0.38970  0.48587  0.46035  Biso   1.000  O
  O58      1.0000 0.11030  0.98587  0.03965  Biso   1.000  O
  O59      1.0000 0.61030  0.51413  0.53965  Biso   1.000  O
  O60      1.0000 0.88970  0.01413  0.96035  Biso   1.000  O
  O61      1.0000 0.39540  0.39140  0.54740  Biso   1.000  O
  O62      1.0000 0.10460  0.89140  0.95260  Biso   1.000  O
  O63      1.0000 0.60460  0.60860  0.45260  Biso   1.000  O
  O64      1.0000 0.89540  0.10860  0.04740  Biso   1.000  O
  C1       1.0000 0.09350  0.44300  0.38880  Biso   1.000  C
  C2       1.0000 0.40650  0.94300  0.11120  Biso   1.000  C
  C3       1.0000 0.90650  0.55700  0.61120  Biso   1.000  C
  C4       1.0000 0.59350  0.05700  0.88880  Biso   1.000  C
  C5       1.0000 0.01140  0.42950  0.31140  Biso   1.000  C
  C6       1.0000 0.48860  0.92950  0.18860  Biso   1.000  C
  C7       1.0000 0.98860  0.57050  0.68860  Biso   1.000  C
  C8       1.0000 0.51140  0.07050  0.81140  Biso   1.000  C
  C9       1.0000 0.99970  0.46810  0.25660  Biso   1.000  C
  C10      1.0000 0.50030  0.96810  0.24340  Biso   1.000  C
  C11      1.0000 0.00030  0.53190  0.74340  Biso   1.000  C
  C12      1.0000 0.49970  0.03190  0.75660  Biso   1.000  C
  H1       1.0000 0.04450  0.50010  0.26900  Biso   1.000  H
  H2       1.0000 0.45550  0.00010  0.23100  Biso   1.000  H
  H3       1.0000 0.95550  0.49990  0.73100  Biso   1.000  H
  H4       1.0000 0.54450  0.99990  0.76900  Biso   1.000  H
  C13      1.0000 0.92480  0.46130  0.18460  Biso   1.000  C
  C14      1.0000 0.57520  0.96130  0.31540  Biso   1.000  C
  C15      1.0000 0.07520  0.53870  0.81540  Biso   1.000  C
  C16      1.0000 0.42480  0.03870  0.68460  Biso   1.000  C
  H5       1.0000 0.91990  0.48830  0.14930  Biso   1.000  H
  H6       1.0000 0.58010  0.98830  0.35070  Biso   1.000  H
  H7       1.0000 0.08010  0.51170  0.85070  Biso   1.000  H
  H8       1.0000 0.41990  0.01170  0.64930  Biso   1.000  H
  C17      1.0000 0.85660  0.41420  0.16460  Biso   1.000  C
  C18      1.0000 0.64340  0.91420  0.33540  Biso   1.000  C
  C19      1.0000 0.14340  0.58580  0.83540  Biso   1.000  C
  C20      1.0000 0.35660  0.08580  0.66460  Biso   1.000  C
  C21      1.0000 0.86690  0.37440  0.21840  Biso   1.000  C
  C22      1.0000 0.63310  0.87440  0.28160  Biso   1.000  C
  C23      1.0000 0.13310  0.62560  0.78160  Biso   1.000  C
  C24      1.0000 0.36690  0.12560  0.71840  Biso   1.000  C
  H9       1.0000 0.82190  0.34250  0.20550  Biso   1.000  H
  H10      1.0000 0.67810  0.84250  0.29450  Biso   1.000  H
  H11      1.0000 0.17810  0.65750  0.79450  Biso   1.000  H
  H12      1.0000 0.32190  0.15750  0.70550  Biso   1.000  H
  C25      1.0000 0.94400  0.38140  0.29190  Biso   1.000  C
  C26      1.0000 0.55600  0.88140  0.20810  Biso   1.000  C
  C27      1.0000 0.05600  0.61860  0.70810  Biso   1.000  C
  C28      1.0000 0.44400  0.11860  0.79190  Biso   1.000  C
  C29      1.0000 0.76940  0.40780  0.08770  Biso   1.000  C
  C30      1.0000 0.73060  0.90780  0.41230  Biso   1.000  C
  C31      1.0000 0.23060  0.59220  0.91230  Biso   1.000  C
  C32      1.0000 0.26940  0.09220  0.58770  Biso   1.000  C
  C33      1.0000 0.71700  0.45290  0.04710  Biso   1.000  C
  C34      1.0000 0.78300  0.95290  0.45290  Biso   1.000  C
  C35      1.0000 0.28300  0.54710  0.95290  Biso   1.000  C
  C36      1.0000 0.21700  0.04710  0.54710  Biso   1.000  C
  H13      1.0000 0.73860  0.48710  0.06770  Biso   1.000  H
  H14      1.0000 0.76140  0.98710  0.43230  Biso   1.000  H
  H15      1.0000 0.26140  0.51290  0.93230  Biso   1.000  H
  H16      1.0000 0.23860  0.01290  0.56770  Biso   1.000  H
  C37      1.0000 0.63330  0.44860  0.97640  Biso   1.000  C
  C38      1.0000 0.86670  0.94860  0.52360  Biso   1.000  C
  C39      1.0000 0.36670  0.55140  0.02360  Biso   1.000  C
  C40      1.0000 0.13330  0.05140  0.47640  Biso   1.000  C
  H17      1.0000 0.59810  0.47980  0.95110  Biso   1.000  H
  H18      1.0000 0.90190  0.97980  0.54890  Biso   1.000  H
  H19      1.0000 0.40190  0.52020  0.04890  Biso   1.000  H
  H20      1.0000 0.09810  0.02020  0.45110  Biso   1.000  H
  C41      1.0000 0.60080  0.39890  0.94250  Biso   1.000  C
  C42      1.0000 0.89920  0.89890  0.55750  Biso   1.000  C
  C43      1.0000 0.39920  0.60110  0.05750  Biso   1.000  C
  C44      1.0000 0.10080  0.10110  0.44250  Biso   1.000  C
  C45      1.0000 0.65720  0.35350  0.98220  Biso   1.000  C
  C46      1.0000 0.84280  0.85350  0.51780  Biso   1.000  C
  C47      1.0000 0.34280  0.64650  0.01780  Biso   1.000  C
  C48      1.0000 0.15720  0.14650  0.48220  Biso   1.000  C
  H21      1.0000 0.63920  0.31950  0.96040  Biso   1.000  H
  H22      1.0000 0.86080  0.81950  0.53960  Biso   1.000  H
  H23      1.0000 0.36080  0.68050  0.03960  Biso   1.000  H
  H24      1.0000 0.13920  0.18050  0.46040  Biso   1.000  H
  C49      1.0000 0.73940  0.35790  0.05340  Biso   1.000  C
  C50      1.0000 0.76060  0.85790  0.44660  Biso   1.000  C
  C51      1.0000 0.26060  0.64210  0.94660  Biso   1.000  C
  C52      1.0000 0.23940  0.14210  0.55340  Biso   1.000  C
  H25      1.0000 0.77510  0.32680  0.07870  Biso   1.000  H
  H26      1.0000 0.72490  0.82680  0.42130  Biso   1.000  H
  H27      1.0000 0.22490  0.67320  0.92130  Biso   1.000  H
  H28      1.0000 0.27510  0.17320  0.57870  Biso   1.000  H
  C53      1.0000 0.86130  0.30080  0.33000  Biso   1.000  C
  C54      1.0000 0.63870  0.80080  0.17000  Biso   1.000  C
  C55      1.0000 0.13870  0.69920  0.67000  Biso   1.000  C
  C56      1.0000 0.36130  0.19920  0.83000  Biso   1.000  C
  H29      1.0000 0.87290  0.27720  0.29130  Biso   1.000  H
  H30      1.0000 0.62710  0.77720  0.20870  Biso   1.000  H
  H31      1.0000 0.12710  0.72280  0.70870  Biso   1.000  H
  H32      1.0000 0.37290  0.22280  0.79130  Biso   1.000  H
  H33      1.0000 0.77860  0.31640  0.31240  Biso   1.000  H
  H34      1.0000 0.72140  0.81640  0.18760  Biso   1.000  H
  H35      1.0000 0.22140  0.68360  0.68760  Biso   1.000  H
  H36      1.0000 0.27860  0.18360  0.81240  Biso   1.000  H
  C57      1.0000 0.87370  0.26950  0.39910  Biso   1.000  C
  C58      1.0000 0.62630  0.76950  0.10090  Biso   1.000  C
  C59      1.0000 0.12630  0.73050  0.60090  Biso   1.000  C
  C60      1.0000 0.37370  0.23050  0.89910  Biso   1.000  C
  H37      1.0000 0.95760  0.25530  0.41700  Biso   1.000  H
  H38      1.0000 0.54240  0.75530  0.08300  Biso   1.000  H
  H39      1.0000 0.04240  0.74470  0.58300  Biso   1.000  H
  H40      1.0000 0.45760  0.24470  0.91700  Biso   1.000  H
  H41      1.0000 0.86130  0.29360  0.43710  Biso   1.000  H
  H42      1.0000 0.63870  0.79360  0.06290  Biso   1.000  H
  H43      1.0000 0.13870  0.70640  0.56290  Biso   1.000  H
  H44      1.0000 0.36130  0.20640  0.93710  Biso   1.000  H
  C61      1.0000 0.78430  0.22430  0.38850  Biso   1.000  C
  C62      1.0000 0.71570  0.72430  0.11150  Biso   1.000  C
  C63      1.0000 0.21570  0.77570  0.61150  Biso   1.000  C
  C64      1.0000 0.28430  0.27570  0.88850  Biso   1.000  C
  H45      1.0000 0.79680  0.20560  0.43500  Biso   1.000  H
  H46      1.0000 0.70320  0.70560  0.06500  Biso   1.000  H
  H47      1.0000 0.20320  0.79440  0.56500  Biso   1.000  H
  H48      1.0000 0.29680  0.29440  0.93500  Biso   1.000  H
  H49      1.0000 0.70090  0.23820  0.37190  Biso   1.000  H
  H50      1.0000 0.79910  0.73820  0.12810  Biso   1.000  H
  H51      1.0000 0.29910  0.76180  0.62810  Biso   1.000  H
  H52      1.0000 0.20090  0.26180  0.87190  Biso   1.000  H
  H53      1.0000 0.79730  0.19980  0.35180  Biso   1.000  H
  H54      1.0000 0.70270  0.69980  0.14820  Biso   1.000  H
  H55      1.0000 0.20270  0.80020  0.64820  Biso   1.000  H
  H56      1.0000 0.29730  0.30020  0.85180  Biso   1.000  H
  C65      1.0000 0.22530  0.38730  0.65460  Biso   1.000  C
  C66      1.0000 0.27470  0.88730  0.84540  Biso   1.000  C
  C67      1.0000 0.77470  0.61270  0.34540  Biso   1.000  C
  C68      1.0000 0.72530  0.11270  0.15460  Biso   1.000  C
  C69      1.0000 0.32820  0.39000  0.72690  Biso   1.000  C
  C70      1.0000 0.17180  0.89000  0.77310  Biso   1.000  C
  C71      1.0000 0.67180  0.61000  0.27310  Biso   1.000  C
  C72      1.0000 0.82820  0.11000  0.22690  Biso   1.000  C
  C73      1.0000 0.31830  0.42680  0.77980  Biso   1.000  C
  C74      1.0000 0.18170  0.92680  0.72020  Biso   1.000  C
  C75      1.0000 0.68170  0.57320  0.22020  Biso   1.000  C
  C76      1.0000 0.81830  0.07320  0.27980  Biso   1.000  C
  H57      1.0000 0.25110  0.45050  0.76860  Biso   1.000  H
  H58      1.0000 0.24890  0.95050  0.73140  Biso   1.000  H
  H59      1.0000 0.74890  0.54950  0.23140  Biso   1.000  H
  H60      1.0000 0.75110  0.04950  0.26860  Biso   1.000  H
  C77      1.0000 0.40550  0.42940  0.84910  Biso   1.000  C
  C78      1.0000 0.09450  0.92940  0.65090  Biso   1.000  C
  C79      1.0000 0.59450  0.57060  0.15090  Biso   1.000  C
  C80      1.0000 0.90550  0.07060  0.34910  Biso   1.000  C
  H61      1.0000 0.39550  0.45450  0.88390  Biso   1.000  H
  H62      1.0000 0.10450  0.95450  0.61610  Biso   1.000  H
  H63      1.0000 0.60450  0.54550  0.11610  Biso   1.000  H
  H64      1.0000 0.89550  0.04550  0.38390  Biso   1.000  H
  C81      1.0000 0.50800  0.39530  0.86780  Biso   1.000  C
  C82      1.0000 0.99200  0.89530  0.63220  Biso   1.000  C
  C83      1.0000 0.49200  0.60470  0.13220  Biso   1.000  C
  C84      1.0000 0.00800  0.10470  0.36780  Biso   1.000  C
  C85      1.0000 0.52060  0.35880  0.81460  Biso   1.000  C
  C86      1.0000 0.97940  0.85880  0.68540  Biso   1.000  C
  C87      1.0000 0.47940  0.64120  0.18540  Biso   1.000  C
  C88      1.0000 0.02060  0.14120  0.31460  Biso   1.000  C
  H65      1.0000 0.58930  0.33600  0.82570  Biso   1.000  H
  H66      1.0000 0.91070  0.83600  0.67430  Biso   1.000  H
  H67      1.0000 0.41070  0.66400  0.17430  Biso   1.000  H
  H68      1.0000 0.08930  0.16400  0.32570  Biso   1.000  H
  C89      1.0000 0.43300  0.35560  0.74520  Biso   1.000  C
  C90      1.0000 0.06700  0.85560  0.75480  Biso   1.000  C
  C91      1.0000 0.56700  0.64440  0.25480  Biso   1.000  C
  C92      1.0000 0.93300  0.14440  0.24520  Biso   1.000  C
  C93      1.0000 0.54790  0.28650  0.70420  Biso   1.000  C
  C94      1.0000 0.95210  0.78650  0.79580  Biso   1.000  C
  C95      1.0000 0.45210  0.71350  0.29580  Biso   1.000  C
  C96      1.0000 0.04790  0.21350  0.20420  Biso   1.000  C
  H69      1.0000 0.54740  0.26190  0.74450  Biso   1.000  H
  H70      1.0000 0.95260  0.76190  0.75550  Biso   1.000  H
  H71      1.0000 0.45260  0.73810  0.25550  Biso   1.000  H
  H72      1.0000 0.04740  0.23810  0.24450  Biso   1.000  H
  H73      1.0000 0.62530  0.30670  0.71850  Biso   1.000  H
  H74      1.0000 0.87470  0.80670  0.78150  Biso   1.000  H
  H75      1.0000 0.37470  0.69330  0.28150  Biso   1.000  H
  H76      1.0000 0.12530  0.19330  0.21850  Biso   1.000  H
  C97      1.0000 0.53540  0.25510  0.63250  Biso   1.000  C
  C98      1.0000 0.96460  0.75510  0.86750  Biso   1.000  C
  C99      1.0000 0.46460  0.74490  0.36750  Biso   1.000  C
  C100     1.0000 0.03540  0.24490  0.13250  Biso   1.000  C
  H77      1.0000 0.45080  0.24170  0.61340  Biso   1.000  H
  H78      1.0000 0.04920  0.74170  0.88660  Biso   1.000  H
  H79      1.0000 0.54920  0.75830  0.38660  Biso   1.000  H
  H80      1.0000 0.95080  0.25830  0.11340  Biso   1.000  H
  H81      1.0000 0.55010  0.27950  0.59540  Biso   1.000  H
  H82      1.0000 0.94990  0.77950  0.90460  Biso   1.000  H
  H83      1.0000 0.44990  0.72050  0.40460  Biso   1.000  H
  H84      1.0000 0.05010  0.22050  0.09540  Biso   1.000  H
  C101     1.0000 0.61470  0.21290  0.64130  Biso   1.000  C
  C102     1.0000 0.88530  0.71290  0.85870  Biso   1.000  C
  C103     1.0000 0.38530  0.78710  0.35870  Biso   1.000  C
  C104     1.0000 0.11470  0.28710  0.14130  Biso   1.000  C
  H85      1.0000 0.60210  0.19490  0.59420  Biso   1.000  H
  H86      1.0000 0.89790  0.69490  0.90580  Biso   1.000  H
  H87      1.0000 0.39790  0.80510  0.40580  Biso   1.000  H
  H88      1.0000 0.10210  0.30510  0.09420  Biso   1.000  H
  H89      1.0000 0.69890  0.22580  0.65900  Biso   1.000  H
  H90      1.0000 0.80110  0.72580  0.84100  Biso   1.000  H
  H91      1.0000 0.30110  0.77420  0.34100  Biso   1.000  H
  H92      1.0000 0.19890  0.27420  0.15900  Biso   1.000  H
  H93      1.0000 0.59950  0.18800  0.67700  Biso   1.000  H
  H94      1.0000 0.90050  0.68800  0.82300  Biso   1.000  H
  H95      1.0000 0.40050  0.81200  0.32300  Biso   1.000  H
  H96      1.0000 0.09950  0.31200  0.17700  Biso   1.000  H
  C105     1.0000 0.35780  0.56310  0.63270  Biso   1.000  C
  C106     1.0000 0.14220  0.06310  0.86730  Biso   1.000  C
  C107     1.0000 0.64220  0.43690  0.36730  Biso   1.000  C
  C108     1.0000 0.85780  0.93690  0.13270  Biso   1.000  C
  C109     1.0000 0.46300  0.56950  0.70430  Biso   1.000  C
  C110     1.0000 0.03700  0.06950  0.79570  Biso   1.000  C
  C111     1.0000 0.53700  0.43050  0.29570  Biso   1.000  C
  C112     1.0000 0.96300  0.93050  0.20430  Biso   1.000  C
  C113     1.0000 0.43470  0.56220  0.77080  Biso   1.000  C
  C114     1.0000 0.06530  0.06220  0.72920  Biso   1.000  C
  C115     1.0000 0.56530  0.43780  0.22920  Biso   1.000  C
  C116     1.0000 0.93470  0.93780  0.27080  Biso   1.000  C
  H97      1.0000 0.35340  0.55370  0.76920  Biso   1.000  H
  H98      1.0000 0.14660  0.05370  0.73080  Biso   1.000  H
  H99      1.0000 0.64660  0.44630  0.23080  Biso   1.000  H
  H100     1.0000 0.85340  0.94630  0.26920  Biso   1.000  H
  C117     1.0000 0.52340  0.56710  0.83910  Biso   1.000  C
  C118     1.0000 0.97660  0.06710  0.66090  Biso   1.000  C
  C119     1.0000 0.47660  0.43290  0.16090  Biso   1.000  C
  C120     1.0000 0.02340  0.93290  0.33910  Biso   1.000  C
  H101     1.0000 0.50100  0.56170  0.88250  Biso   1.000  H
  H102     1.0000 0.99900  0.06170  0.61750  Biso   1.000  H
  H103     1.0000 0.49900  0.43830  0.11750  Biso   1.000  H
  H104     1.0000 0.00100  0.93830  0.38250  Biso   1.000  H
  C121     1.0000 0.64520  0.57987  0.84430  Biso   1.000  C
  C122     1.0000 0.85480  0.07987  0.65570  Biso   1.000  C
  C123     1.0000 0.35480  0.42013  0.15570  Biso   1.000  C
  C124     1.0000 0.14520  0.92013  0.34430  Biso   1.000  C
  C125     1.0000 0.67370  0.58860  0.77740  Biso   1.000  C
  C126     1.0000 0.82630  0.08860  0.72260  Biso   1.000  C
  C127     1.0000 0.32630  0.41140  0.22260  Biso   1.000  C
  C128     1.0000 0.17370  0.91140  0.27740  Biso   1.000  C
  H105     1.0000 0.75470  0.59770  0.77910  Biso   1.000  H
  H106     1.0000 0.74530  0.09770  0.72090  Biso   1.000  H
  H107     1.0000 0.24530  0.40230  0.22090  Biso   1.000  H
  H108     1.0000 0.25470  0.90230  0.27910  Biso   1.000  H
  C129     1.0000 0.58420  0.58380  0.70920  Biso   1.000  C
  C130     1.0000 0.91580  0.08380  0.79080  Biso   1.000  C
  C131     1.0000 0.41580  0.41620  0.29080  Biso   1.000  C
  C132     1.0000 0.08420  0.91620  0.20920  Biso   1.000  C
  C133     1.0000 0.66340  0.64800  0.64030  Biso   1.000  C
  C134     1.0000 0.83660  0.14800  0.85970  Biso   1.000  C
  C135     1.0000 0.33660  0.35200  0.35970  Biso   1.000  C
  C136     1.0000 0.16340  0.85200  0.14030  Biso   1.000  C
  H109     1.0000 0.71290  0.64890  0.60580  Biso   1.000  H
  H110     1.0000 0.78710  0.14890  0.89420  Biso   1.000  H
  H111     1.0000 0.28710  0.35110  0.39420  Biso   1.000  H
  H112     1.0000 0.21290  0.85110  0.10580  Biso   1.000  H
  H113     1.0000 0.71450  0.65990  0.68910  Biso   1.000  H
  H114     1.0000 0.78550  0.15990  0.81090  Biso   1.000  H
  H115     1.0000 0.28550  0.34010  0.31090  Biso   1.000  H
  H116     1.0000 0.21450  0.84010  0.18910  Biso   1.000  H
  C137     1.0000 0.54000  0.68630  0.61030  Biso   1.000  C
  C138     1.0000 0.96000  0.18630  0.88970  Biso   1.000  C
  C139     1.0000 0.46000  0.31370  0.38970  Biso   1.000  C
  C140     1.0000 0.04000  0.81370  0.11030  Biso   1.000  C
  H117     1.0000 0.48480  0.67140  0.56450  Biso   1.000  H
  H118     1.0000 0.01520  0.17140  0.93550  Biso   1.000  H
  H119     1.0000 0.51520  0.32860  0.43550  Biso   1.000  H
  H120     1.0000 0.98480  0.82860  0.06450  Biso   1.000  H
  H121     1.0000 0.49510  0.68750  0.64730  Biso   1.000  H
  H122     1.0000 0.00490  0.18750  0.85270  Biso   1.000  H
  H123     1.0000 0.50490  0.31250  0.35270  Biso   1.000  H
  H124     1.0000 0.99510  0.81250  0.14730  Biso   1.000  H
  C141     1.0000 0.57800  0.74170  0.59630  Biso   1.000  C
  C142     1.0000 0.92200  0.24170  0.90370  Biso   1.000  C
  C143     1.0000 0.42200  0.25830  0.40370  Biso   1.000  C
  C144     1.0000 0.07800  0.75830  0.09630  Biso   1.000  C
  H125     1.0000 0.50980  0.75970  0.56150  Biso   1.000  H
  H126     1.0000 0.99020  0.25970  0.93850  Biso   1.000  H
  H127     1.0000 0.49020  0.24030  0.43850  Biso   1.000  H
  H128     1.0000 0.00980  0.74030  0.06150  Biso   1.000  H
  H129     1.0000 0.64710  0.73960  0.57600  Biso   1.000  H
  H130     1.0000 0.85290  0.23960  0.92400  Biso   1.000  H
  H131     1.0000 0.35290  0.26040  0.42400  Biso   1.000  H
  H132     1.0000 0.14710  0.76040  0.07600  Biso   1.000  H
  H133     1.0000 0.60280  0.76140  0.64250  Biso   1.000  H
  H134     1.0000 0.89720  0.26140  0.85750  Biso   1.000  H
  H135     1.0000 0.39720  0.23860  0.35750  Biso   1.000  H
  H136     1.0000 0.10280  0.73860  0.14250  Biso   1.000  H
  C145     1.0000 0.74420  0.58530  0.91750  Biso   1.000  C
  C146     1.0000 0.75580  0.08530  0.58250  Biso   1.000  C
  C147     1.0000 0.25580  0.41470  0.08250  Biso   1.000  C
  C148     1.0000 0.24420  0.91470  0.41750  Biso   1.000  C
  C149     1.0000 0.71600  0.59850  0.98280  Biso   1.000  C
  C150     1.0000 0.78400  0.09850  0.51720  Biso   1.000  C
  C151     1.0000 0.28400  0.40150  0.01720  Biso   1.000  C
  C152     1.0000 0.21600  0.90150  0.48280  Biso   1.000  C
  H137     1.0000 0.63350  0.60480  0.98090  Biso   1.000  H
  H138     1.0000 0.86650  0.10480  0.51910  Biso   1.000  H
  H139     1.0000 0.36650  0.39520  0.01910  Biso   1.000  H
  H140     1.0000 0.13350  0.89520  0.48090  Biso   1.000  H
  C153     1.0000 0.29480  0.58520  0.35010  Biso   1.000  C
  C154     1.0000 0.20520  0.08520  0.14990  Biso   1.000  C
  C155     1.0000 0.70520  0.41480  0.64990  Biso   1.000  C
  C156     1.0000 0.79480  0.91480  0.85010  Biso   1.000  C
  C157     1.0000 0.20490  0.59370  0.27350  Biso   1.000  C
  C158     1.0000 0.29510  0.09370  0.22650  Biso   1.000  C
  C159     1.0000 0.79510  0.40630  0.72650  Biso   1.000  C
  C160     1.0000 0.70490  0.90630  0.77350  Biso   1.000  C
  C161     1.0000 0.22000  0.56250  0.21540  Biso   1.000  C
  C162     1.0000 0.28000  0.06250  0.28460  Biso   1.000  C
  C163     1.0000 0.78000  0.43750  0.78460  Biso   1.000  C
  C164     1.0000 0.72000  0.93750  0.71540  Biso   1.000  C
  H141     1.0000 0.28950  0.54020  0.22410  Biso   1.000  H
  H142     1.0000 0.21050  0.04020  0.27590  Biso   1.000  H
  H143     1.0000 0.71050  0.45980  0.77590  Biso   1.000  H
  H144     1.0000 0.78950  0.95980  0.72410  Biso   1.000  H
  C165     1.0000 0.13430  0.56350  0.14440  Biso   1.000  C
  C166     1.0000 0.36570  0.06350  0.35560  Biso   1.000  C
  C167     1.0000 0.86570  0.43650  0.85560  Biso   1.000  C
  C168     1.0000 0.63430  0.93650  0.64440  Biso   1.000  C
  H145     1.0000 0.14780  0.54240  0.10640  Biso   1.000  H
  H146     1.0000 0.35220  0.04240  0.39360  Biso   1.000  H
  H147     1.0000 0.85220  0.45760  0.89360  Biso   1.000  H
  H148     1.0000 0.64780  0.95760  0.60640  Biso   1.000  H
  C169     1.0000 0.02970  0.59570  0.13000  Biso   1.000  C
  C170     1.0000 0.47030  0.09570  0.37000  Biso   1.000  C
  C171     1.0000 0.97030  0.40430  0.87000  Biso   1.000  C
  C172     1.0000 0.52970  0.90430  0.63000  Biso   1.000  C
  C173     1.0000 0.01630  0.62910  0.18740  Biso   1.000  C
  C174     1.0000 0.48370  0.12910  0.31260  Biso   1.000  C
  C175     1.0000 0.98370  0.37090  0.81260  Biso   1.000  C
  C176     1.0000 0.51630  0.87090  0.68740  Biso   1.000  C
  H149     1.0000 0.94760  0.65190  0.17830  Biso   1.000  H
  H150     1.0000 0.55240  0.15190  0.32170  Biso   1.000  H
  H151     1.0000 0.05240  0.34810  0.82170  Biso   1.000  H
  H152     1.0000 0.44760  0.84810  0.67830  Biso   1.000  H
  C177     1.0000 0.10300  0.62910  0.25710  Biso   1.000  C
  C178     1.0000 0.39700  0.12910  0.24290  Biso   1.000  C
  C179     1.0000 0.89700  0.37090  0.74290  Biso   1.000  C
  C180     1.0000 0.60300  0.87090  0.75710  Biso   1.000  C
  C181     1.0000 0.01200  0.70740  0.29410  Biso   1.000  C
  C182     1.0000 0.48800  0.20740  0.20590  Biso   1.000  C
  C183     1.0000 0.98800  0.29260  0.70590  Biso   1.000  C
  C184     1.0000 0.51200  0.79260  0.79410  Biso   1.000  C
  H153     1.0000 0.01850  0.72540  0.24940  Biso   1.000  H
  H154     1.0000 0.48150  0.22540  0.25060  Biso   1.000  H
  H155     1.0000 0.98150  0.27460  0.75060  Biso   1.000  H
  H156     1.0000 0.51850  0.77460  0.74940  Biso   1.000  H
  H157     1.0000 0.92770  0.69390  0.28430  Biso   1.000  H
  H158     1.0000 0.57230  0.19390  0.21570  Biso   1.000  H
  H159     1.0000 0.07230  0.30610  0.71570  Biso   1.000  H
  H160     1.0000 0.42770  0.80610  0.78430  Biso   1.000  H
  C185     1.0000 0.04030  0.74690  0.35830  Biso   1.000  C
  C186     1.0000 0.45970  0.24690  0.14170  Biso   1.000  C
  C187     1.0000 0.95970  0.25310  0.64170  Biso   1.000  C
  C188     1.0000 0.54030  0.75310  0.85830  Biso   1.000  C
  H161     1.0000 0.12280  0.76200  0.36580  Biso   1.000  H
  H162     1.0000 0.37720  0.26200  0.13420  Biso   1.000  H
  H163     1.0000 0.87720  0.23800  0.63420  Biso   1.000  H
  H164     1.0000 0.62280  0.73800  0.86580  Biso   1.000  H
  H165     1.0000 0.04030  0.72800  0.40370  Biso   1.000  H
  H166     1.0000 0.45970  0.22800  0.09630  Biso   1.000  H
  H167     1.0000 0.95970  0.27200  0.59630  Biso   1.000  H
  H168     1.0000 0.54030  0.77200  0.90370  Biso   1.000  H
  C189     1.0000 0.94970  0.79070  0.34490  Biso   1.000  C
  C190     1.0000 0.55030  0.29070  0.15510  Biso   1.000  C
  C191     1.0000 0.05030  0.20930  0.65510  Biso   1.000  C
  C192     1.0000 0.44970  0.70930  0.84490  Biso   1.000  C
  H169     1.0000 0.97060  0.81500  0.38680  Biso   1.000  H
  H170     1.0000 0.52940  0.31500  0.11320  Biso   1.000  H
  H171     1.0000 0.02940  0.18500  0.61320  Biso   1.000  H
  H172     1.0000 0.47060  0.68500  0.88680  Biso   1.000  H
  H173     1.0000 0.86820  0.77610  0.33840  Biso   1.000  H
  H174     1.0000 0.63180  0.27610  0.16160  Biso   1.000  H
  H175     1.0000 0.13180  0.22390  0.66160  Biso   1.000  H
  H176     1.0000 0.36820  0.72390  0.83840  Biso   1.000  H
  H177     1.0000 0.95060  0.81000  0.30050  Biso   1.000  H
  H178     1.0000 0.54940  0.31000  0.19950  Biso   1.000  H
  H179     1.0000 0.04940  0.19000  0.69950  Biso   1.000  H
  H180     1.0000 0.45060  0.69000  0.80050  Biso   1.000  H
  C193     1.0000 0.93230  0.59340  0.05670  Biso   1.000  C
  C194     1.0000 0.56770  0.09340  0.44330  Biso   1.000  C
  C195     1.0000 0.06770  0.40660  0.94330  Biso   1.000  C
  C196     1.0000 0.43230  0.90660  0.55670  Biso   1.000  C
  C197     1.0000 0.96060  0.58030  0.99180  Biso   1.000  C
  C198     1.0000 0.53940  0.08030  0.50820  Biso   1.000  C
  C199     1.0000 0.03940  0.41970  0.00820  Biso   1.000  C
  C200     1.0000 0.46060  0.91970  0.49180  Biso   1.000  C
  H181     1.0000 0.04300  0.57390  0.99370  Biso   1.000  H
  H182     1.0000 0.45700  0.07390  0.50630  Biso   1.000  H
  H183     1.0000 0.95700  0.42610  0.00630  Biso   1.000  H
  H184     1.0000 0.54300  0.92610  0.49370  Biso   1.000  H
  C201     1.0000 0.86880  0.57640  0.92410  Biso   1.000  C
  C202     1.0000 0.63120  0.07640  0.57590  Biso   1.000  C
  C203     1.0000 0.13120  0.42360  0.07590  Biso   1.000  C
  C204     1.0000 0.36880  0.92360  0.42410  Biso   1.000  C
  H185     1.0000 0.89120  0.56750  0.88160  Biso   1.000  H
  H186     1.0000 0.60880  0.06750  0.61840  Biso   1.000  H
  H187     1.0000 0.10880  0.43250  0.11840  Biso   1.000  H
  H188     1.0000 0.39120  0.93250  0.38160  Biso   1.000  H
  C205     1.0000 0.80760  0.60250  0.05030  Biso   1.000  C
  C206     1.0000 0.69240  0.10250  0.44970  Biso   1.000  C
  C207     1.0000 0.19240  0.39750  0.94970  Biso   1.000  C
  C208     1.0000 0.30760  0.89750  0.55030  Biso   1.000  C
  H189     1.0000 0.78530  0.61150  0.09280  Biso   1.000  H
  H190     1.0000 0.71470  0.11150  0.40720  Biso   1.000  H
  H191     1.0000 0.21470  0.38850  0.90720  Biso   1.000  H
  H192     1.0000 0.28530  0.88850  0.59280  Biso   1.000  H
  H193     1.0000 0.14700  0.53790  0.57200  Biso   1.000  H
  H194     1.0000 0.35300  0.03790  0.92800  Biso   1.000  H
  H195     1.0000 0.85300  0.46210  0.42800  Biso   1.000  H
  H196     1.0000 0.64700  0.96210  0.07200  Biso   1.000  H
  H197     1.0000 0.37300  0.46190  0.42500  Biso   1.000  H
  H198     1.0000 0.12700  0.96190  0.07500  Biso   1.000  H
  H199     1.0000 0.62700  0.53810  0.57500  Biso   1.000  H
  H200     1.0000 0.87300  0.03810  0.92500  Biso   1.000  H
  H201     1.0000 0.11500  0.62400  0.43900  Biso   1.000  H
  H202     1.0000 0.38500  0.12400  0.06100  Biso   1.000  H
  H203     1.0000 0.88500  0.37600  0.56100  Biso   1.000  H
  H204     1.0000 0.61500  0.87600  0.93900  Biso   1.000  H
  H205     1.0000 0.41400  0.37080  0.58900  Biso   1.000  H
  H206     1.0000 0.08600  0.87080  0.91100  Biso   1.000  H
  H207     1.0000 0.58600  0.62920  0.41100  Biso   1.000  H
  H208     1.0000 0.91400  0.12920  0.08900  Biso   1.000  H
  H209     1.0000 0.32200  0.38700  0.51100  Biso   1.000  H
  H210     1.0000 0.17800  0.88700  0.98900  Biso   1.000  H
  H211     1.0000 0.67800  0.61300  0.48900  Biso   1.000  H
  H212     1.0000 0.82200  0.11300  0.01100  Biso   1.000  H
  H213     1.0000 0.99200  0.64530  0.44100  Biso   1.000  H
  H214     1.0000 0.50800  0.14530  0.05900  Biso   1.000  H
  H215     1.0000 0.00800  0.35470  0.55900  Biso   1.000  H
  H216     1.0000 0.49200  0.85470  0.94100  Biso   1.000  H
  H217     1.0000 0.73830  0.65100  0.68230  Biso   1.000  H
  H218     1.0000 0.76170  0.15100  0.81770  Biso   1.000  H
  H219     1.0000 0.26170  0.34900  0.31770  Biso   1.000  H
  H220     1.0000 0.23830  0.84900  0.18230  Biso   1.000  H
  H221     1.0000 0.69030  0.64840  0.59570  Biso   1.000  H
  H222     1.0000 0.80970  0.14840  0.90430  Biso   1.000  H
  H223     1.0000 0.30970  0.35160  0.40430  Biso   1.000  H
  H224     1.0000 0.19030  0.85160  0.09570  Biso   1.000  H
  C209     1.0000 0.60200  0.69310  0.63920  Biso   1.000  C
  C210     1.0000 0.89800  0.19310  0.86080  Biso   1.000  C
  C211     1.0000 0.39800  0.30690  0.36080  Biso   1.000  C
  C212     1.0000 0.10200  0.80690  0.13920  Biso   1.000  C
  H225     1.0000 0.58090  0.69460  0.68570  Biso   1.000  H
  H226     1.0000 0.91910  0.19460  0.81430  Biso   1.000  H
  H227     1.0000 0.41910  0.30540  0.31430  Biso   1.000  H
  H228     1.0000 0.08090  0.80540  0.18570  Biso   1.000  H
  H229     1.0000 0.52440  0.68950  0.59950  Biso   1.000  H
  H230     1.0000 0.97560  0.18950  0.90050  Biso   1.000  H
  H231     1.0000 0.47560  0.31050  0.40050  Biso   1.000  H
  H232     1.0000 0.02440  0.81050  0.09950  Biso   1.000  H
  C213     1.0000 0.65300  0.74610  0.62970  Biso   1.000  C
  C214     1.0000 0.84700  0.24610  0.87030  Biso   1.000  C
  C215     1.0000 0.34700  0.25390  0.37030  Biso   1.000  C
  C216     1.0000 0.15300  0.75390  0.12970  Biso   1.000  C
  H233     1.0000 0.59120  0.77340  0.62820  Biso   1.000  H
  H234     1.0000 0.90880  0.27340  0.87180  Biso   1.000  H
  H235     1.0000 0.40880  0.22660  0.37180  Biso   1.000  H
  H236     1.0000 0.09120  0.72660  0.12820  Biso   1.000  H
  H237     1.0000 0.67420  0.74670  0.58380  Biso   1.000  H
  H238     1.0000 0.82580  0.24670  0.91620  Biso   1.000  H
  H239     1.0000 0.32580  0.25330  0.41620  Biso   1.000  H
  H240     1.0000 0.17420  0.75330  0.08380  Biso   1.000  H
  H241     1.0000 0.72550  0.75300  0.67080  Biso   1.000  H
  H242     1.0000 0.77450  0.25300  0.82920  Biso   1.000  H
  H243     1.0000 0.27450  0.24700  0.32920  Biso   1.000  H
  H244     1.0000 0.22550  0.74700  0.17080  Biso   1.000  H
  O65      1.0000 0.82010  0.70560  0.51580  Biso   1.000  O
  O66      1.0000 0.67990  0.20560  0.98420  Biso   1.000  O
  O67      1.0000 0.17990  0.29440  0.48420  Biso   1.000  O
  O68      1.0000 0.32010  0.79440  0.01580  Biso   1.000  O
  H245     1.0000 0.85700  0.67810  0.54600  Biso   1.000  H
  H246     1.0000 0.64300  0.17810  0.95400  Biso   1.000  H
  H247     1.0000 0.14300  0.32190  0.45400  Biso   1.000  H
  H248     1.0000 0.35700  0.82190  0.04600  Biso   1.000  H
  H249     1.0000 0.80500  0.69700  0.46650  Biso   1.000  H
  H250     1.0000 0.69500  0.19700  0.03350  Biso   1.000  H
  H251     1.0000 0.19500  0.30300  0.53350  Biso   1.000  H
  H252     1.0000 0.30500  0.80300  0.96650  Biso   1.000  H
