data_image0
_cell_length_a       17.354
_cell_length_b       13.348
_cell_length_c       12.573
_cell_angle_alpha    90
_cell_angle_beta     114.48
_cell_angle_gamma    90

_symmetry_space_group_name_H-M    "P 1"
_symmetry_int_tables_number       1

loop_
  _symmetry_equiv_pos_as_xyz
  'x, y, z'

loop_
  _atom_site_label
  _atom_site_occupancy
  _atom_site_fract_x
  _atom_site_fract_y
  _atom_site_fract_z
  _atom_site_thermal_displace_type
  _atom_site_B_iso_or_equiv
  _atom_site_type_symbol
  Cu1      1.0000 0.00000  0.55502  0.75000  Biso   1.000  Cu
  Cu2      1.0000 0.50000  0.05502  0.75000  Biso   1.000  Cu
  Cu3      1.0000 0.00000  0.44498  0.25000  Biso   1.000  Cu
  Cu4      1.0000 0.50000  0.94498  0.25000  Biso   1.000  Cu
  O1       1.0000 0.93730  0.45250  0.79020  Biso   1.000  O
  O2       1.0000 0.06270  0.45250  0.70980  Biso   1.000  O
  O3       1.0000 0.43730  0.95250  0.79020  Biso   1.000  O
  O4       1.0000 0.56270  0.95250  0.70980  Biso   1.000  O
  O5       1.0000 0.06270  0.54750  0.20980  Biso   1.000  O
  O6       1.0000 0.93730  0.54750  0.29020  Biso   1.000  O
  O7       1.0000 0.56270  0.04750  0.20980  Biso   1.000  O
  O8       1.0000 0.43730  0.04750  0.29020  Biso   1.000  O
  N1       1.0000 0.83340  0.52840  0.47380  Biso   1.000  N
  N2       1.0000 0.16660  0.52840  0.02620  Biso   1.000  N
  N3       1.0000 0.33340  0.02840  0.47380  Biso   1.000  N
  N4       1.0000 0.66660  0.02840  0.02620  Biso   1.000  N
  N5       1.0000 0.16660  0.47160  0.52620  Biso   1.000  N
  N6       1.0000 0.83340  0.47160  0.97380  Biso   1.000  N
  N7       1.0000 0.66660  0.97160  0.52620  Biso   1.000  N
  N8       1.0000 0.33340  0.97160  0.97380  Biso   1.000  N
  O9       1.0000 0.78050  0.51650  0.51390  Biso   1.000  O
  O10      1.0000 0.21950  0.51650  0.98610  Biso   1.000  O
  O11      1.0000 0.28050  0.01650  0.51390  Biso   1.000  O
  O12      1.0000 0.71950  0.01650  0.98610  Biso   1.000  O
  O13      1.0000 0.21950  0.48350  0.48610  Biso   1.000  O
  O14      1.0000 0.78050  0.48350  0.01390  Biso   1.000  O
  O15      1.0000 0.71950  0.98350  0.48610  Biso   1.000  O
  O16      1.0000 0.28050  0.98350  0.01390  Biso   1.000  O
  O17      1.0000 0.81170  0.51370  0.36700  Biso   1.000  O
  O18      1.0000 0.18830  0.51370  0.13300  Biso   1.000  O
  O19      1.0000 0.31170  0.01370  0.36700  Biso   1.000  O
  O20      1.0000 0.68830  0.01370  0.13300  Biso   1.000  O
  O21      1.0000 0.18830  0.48630  0.63300  Biso   1.000  O
  O22      1.0000 0.81170  0.48630  0.86700  Biso   1.000  O
  O23      1.0000 0.68830  0.98630  0.63300  Biso   1.000  O
  O24      1.0000 0.31170  0.98630  0.86700  Biso   1.000  O
  O25      1.0000 0.90710  0.55280  0.53510  Biso   1.000  O
  O26      1.0000 0.09290  0.55280  0.96490  Biso   1.000  O
  O27      1.0000 0.40710  0.05280  0.53510  Biso   1.000  O
  O28      1.0000 0.59290  0.05280  0.96490  Biso   1.000  O
  O29      1.0000 0.09290  0.44720  0.46490  Biso   1.000  O
  O30      1.0000 0.90710  0.44720  0.03510  Biso   1.000  O
  O31      1.0000 0.59290  0.94720  0.46490  Biso   1.000  O
  O32      1.0000 0.40710  0.94720  0.03510  Biso   1.000  O
  O33      1.0000 0.08950  0.73940  0.22760  Biso   1.000  O
  O34      1.0000 0.91050  0.73940  0.27240  Biso   1.000  O
  O35      1.0000 0.58950  0.23940  0.22760  Biso   1.000  O
  O36      1.0000 0.41050  0.23940  0.27240  Biso   1.000  O
  O37      1.0000 0.91050  0.26060  0.77240  Biso   1.000  O
  O38      1.0000 0.08950  0.26060  0.72760  Biso   1.000  O
  O39      1.0000 0.41050  0.76060  0.77240  Biso   1.000  O
  O40      1.0000 0.58950  0.76060  0.72760  Biso   1.000  O
  N9       1.0000 0.06770  0.66080  0.71430  Biso   1.000  N
  N10      1.0000 0.93230  0.66080  0.78570  Biso   1.000  N
  N11      1.0000 0.56770  0.16080  0.71430  Biso   1.000  N
  N12      1.0000 0.43230  0.16080  0.78570  Biso   1.000  N
  N13      1.0000 0.93230  0.33920  0.28570  Biso   1.000  N
  N14      1.0000 0.06770  0.33920  0.21430  Biso   1.000  N
  N15      1.0000 0.43230  0.83920  0.28570  Biso   1.000  N
  N16      1.0000 0.56770  0.83920  0.21430  Biso   1.000  N
  C1       1.0000 0.11790  0.73930  0.58260  Biso   1.000  C
  C2       1.0000 0.88210  0.73930  0.91740  Biso   1.000  C
  C3       1.0000 0.61790  0.23930  0.58260  Biso   1.000  C
  C4       1.0000 0.38210  0.23930  0.91740  Biso   1.000  C
  C5       1.0000 0.88210  0.26070  0.41740  Biso   1.000  C
  C6       1.0000 0.11790  0.26070  0.08260  Biso   1.000  C
  C7       1.0000 0.38210  0.76070  0.41740  Biso   1.000  C
  C8       1.0000 0.61790  0.76070  0.08260  Biso   1.000  C
  C9       1.0000 0.06860  0.66970  0.60920  Biso   1.000  C
  C10      1.0000 0.93140  0.66970  0.89080  Biso   1.000  C
  C11      1.0000 0.56860  0.16970  0.60920  Biso   1.000  C
  C12      1.0000 0.43140  0.16970  0.89080  Biso   1.000  C
  C13      1.0000 0.93140  0.33030  0.39080  Biso   1.000  C
  C14      1.0000 0.06860  0.33030  0.10920  Biso   1.000  C
  C15      1.0000 0.43140  0.83030  0.39080  Biso   1.000  C
  C16      1.0000 0.56860  0.83030  0.10920  Biso   1.000  C
  H1       1.0000 0.03430  0.62690  0.55010  Biso   1.000  H
  H2       1.0000 0.96570  0.62690  0.94990  Biso   1.000  H
  H3       1.0000 0.53430  0.12690  0.55010  Biso   1.000  H
  H4       1.0000 0.46570  0.12690  0.94990  Biso   1.000  H
  H5       1.0000 0.96570  0.37310  0.44990  Biso   1.000  H
  H6       1.0000 0.03430  0.37310  0.05010  Biso   1.000  H
  H7       1.0000 0.46570  0.87310  0.44990  Biso   1.000  H
  H8       1.0000 0.53430  0.87310  0.05010  Biso   1.000  H
  C17      1.0000 0.11790  0.72260  0.79930  Biso   1.000  C
  C18      1.0000 0.88210  0.72260  0.70070  Biso   1.000  C
  C19      1.0000 0.61790  0.22260  0.79930  Biso   1.000  C
  C20      1.0000 0.38210  0.22260  0.70070  Biso   1.000  C
  C21      1.0000 0.88210  0.27740  0.20070  Biso   1.000  C
  C22      1.0000 0.11790  0.27740  0.29930  Biso   1.000  C
  C23      1.0000 0.38210  0.77740  0.20070  Biso   1.000  C
  C24      1.0000 0.61790  0.77740  0.29930  Biso   1.000  C
  H9       1.0000 0.11880  0.71700  0.87360  Biso   1.000  H
  H10      1.0000 0.88120  0.71700  0.62640  Biso   1.000  H
  H11      1.0000 0.61880  0.21700  0.87360  Biso   1.000  H
  H12      1.0000 0.38120  0.21700  0.62640  Biso   1.000  H
  H13      1.0000 0.88120  0.28300  0.12640  Biso   1.000  H
  H14      1.0000 0.11880  0.28300  0.37360  Biso   1.000  H
  H15      1.0000 0.38120  0.78300  0.12640  Biso   1.000  H
  H16      1.0000 0.61880  0.78300  0.37360  Biso   1.000  H
  C25      1.0000 0.16780  0.79380  0.78000  Biso   1.000  C
  C26      1.0000 0.83220  0.79380  0.72000  Biso   1.000  C
  C27      1.0000 0.66780  0.29380  0.78000  Biso   1.000  C
  C28      1.0000 0.33220  0.29380  0.72000  Biso   1.000  C
  C29      1.0000 0.83220  0.20620  0.22000  Biso   1.000  C
  C30      1.0000 0.16780  0.20620  0.28000  Biso   1.000  C
  C31      1.0000 0.33220  0.70620  0.22000  Biso   1.000  C
  C32      1.0000 0.66780  0.70620  0.28000  Biso   1.000  C
  H17      1.0000 0.20100  0.83600  0.84040  Biso   1.000  H
  H18      1.0000 0.79900  0.83600  0.65960  Biso   1.000  H
  H19      1.0000 0.70100  0.33600  0.84040  Biso   1.000  H
  H20      1.0000 0.29900  0.33600  0.65960  Biso   1.000  H
  H21      1.0000 0.79900  0.16400  0.15960  Biso   1.000  H
  H22      1.0000 0.20100  0.16400  0.34040  Biso   1.000  H
  H23      1.0000 0.29900  0.66400  0.15960  Biso   1.000  H
  H24      1.0000 0.70100  0.66400  0.34040  Biso   1.000  H
  C33      1.0000 0.16890  0.80300  0.67200  Biso   1.000  C
  C34      1.0000 0.83110  0.80300  0.82800  Biso   1.000  C
  C35      1.0000 0.66890  0.30300  0.67200  Biso   1.000  C
  C36      1.0000 0.33110  0.30300  0.82800  Biso   1.000  C
  C37      1.0000 0.83110  0.19700  0.32800  Biso   1.000  C
  C38      1.0000 0.16890  0.19700  0.17200  Biso   1.000  C
  C39      1.0000 0.33110  0.69700  0.32800  Biso   1.000  C
  C40      1.0000 0.66890  0.69700  0.17200  Biso   1.000  C
  H25      1.0000 0.20300  0.85060  0.65870  Biso   1.000  H
  H26      1.0000 0.79700  0.85060  0.84130  Biso   1.000  H
  H27      1.0000 0.70300  0.35060  0.65870  Biso   1.000  H
  H28      1.0000 0.29700  0.35060  0.84130  Biso   1.000  H
  H29      1.0000 0.79700  0.14940  0.34130  Biso   1.000  H
  H30      1.0000 0.20300  0.14940  0.15870  Biso   1.000  H
  H31      1.0000 0.29700  0.64940  0.34130  Biso   1.000  H
  H32      1.0000 0.70300  0.64940  0.15870  Biso   1.000  H
  C41      1.0000 0.11110  0.74430  0.46450  Biso   1.000  C
  C42      1.0000 0.88890  0.74430  0.03550  Biso   1.000  C
  C43      1.0000 0.61110  0.24430  0.46450  Biso   1.000  C
  C44      1.0000 0.38890  0.24430  0.03550  Biso   1.000  C
  C45      1.0000 0.88890  0.25570  0.53550  Biso   1.000  C
  C46      1.0000 0.11110  0.25570  0.96450  Biso   1.000  C
  C47      1.0000 0.38890  0.75570  0.53550  Biso   1.000  C
  C48      1.0000 0.61110  0.75570  0.96450  Biso   1.000  C
  H33      1.0000 0.07360  0.69920  0.41200  Biso   1.000  H
  H34      1.0000 0.92640  0.69920  0.08800  Biso   1.000  H
  H35      1.0000 0.57360  0.19920  0.41200  Biso   1.000  H
  H36      1.0000 0.42640  0.19920  0.08800  Biso   1.000  H
  H37      1.0000 0.92640  0.30080  0.58800  Biso   1.000  H
  H38      1.0000 0.07360  0.30080  0.91200  Biso   1.000  H
  H39      1.0000 0.42640  0.80080  0.58800  Biso   1.000  H
  H40      1.0000 0.57360  0.80080  0.91200  Biso   1.000  H
  C49      1.0000 0.15170  0.80540  0.42110  Biso   1.000  C
  C50      1.0000 0.84830  0.80540  0.07890  Biso   1.000  C
  C51      1.0000 0.65170  0.30540  0.42110  Biso   1.000  C
  C52      1.0000 0.34830  0.30540  0.07890  Biso   1.000  C
  C53      1.0000 0.84830  0.19460  0.57890  Biso   1.000  C
  C54      1.0000 0.15170  0.19460  0.92110  Biso   1.000  C
  C55      1.0000 0.34830  0.69460  0.57890  Biso   1.000  C
  C56      1.0000 0.65170  0.69460  0.92110  Biso   1.000  C
  H41      1.0000 0.19140  0.85020  0.47070  Biso   1.000  H
  H42      1.0000 0.80860  0.85020  0.02930  Biso   1.000  H
  H43      1.0000 0.69140  0.35020  0.47070  Biso   1.000  H
  H44      1.0000 0.30860  0.35020  0.02930  Biso   1.000  H
  H45      1.0000 0.80860  0.14980  0.52930  Biso   1.000  H
  H46      1.0000 0.19140  0.14980  0.97070  Biso   1.000  H
  H47      1.0000 0.30860  0.64980  0.52930  Biso   1.000  H
  H48      1.0000 0.69140  0.64980  0.97070  Biso   1.000  H
  C57      1.0000 0.13490  0.80350  0.29560  Biso   1.000  C
  C58      1.0000 0.86510  0.80350  0.20440  Biso   1.000  C
  C59      1.0000 0.63490  0.30350  0.29560  Biso   1.000  C
  C60      1.0000 0.36510  0.30350  0.20440  Biso   1.000  C
  C61      1.0000 0.86510  0.19650  0.70440  Biso   1.000  C
  C62      1.0000 0.13490  0.19650  0.79560  Biso   1.000  C
  C63      1.0000 0.36510  0.69650  0.70440  Biso   1.000  C
  C64      1.0000 0.63490  0.69650  0.79560  Biso   1.000  C
  N17      1.0000 0.17020  0.87760  0.26060  Biso   1.000  N
  N18      1.0000 0.82980  0.87760  0.23940  Biso   1.000  N
  N19      1.0000 0.67020  0.37760  0.26060  Biso   1.000  N
  N20      1.0000 0.32980  0.37760  0.23940  Biso   1.000  N
  N21      1.0000 0.82980  0.12240  0.73940  Biso   1.000  N
  N22      1.0000 0.17020  0.12240  0.76060  Biso   1.000  N
  N23      1.0000 0.32980  0.62240  0.73940  Biso   1.000  N
  N24      1.0000 0.67020  0.62240  0.76060  Biso   1.000  N
  H49      1.0000 0.20320  0.91910  0.31130  Biso   1.000  H
  H50      1.0000 0.79680  0.91910  0.18870  Biso   1.000  H
  H51      1.0000 0.70320  0.41910  0.31130  Biso   1.000  H
  H52      1.0000 0.29680  0.41910  0.18870  Biso   1.000  H
  H53      1.0000 0.79680  0.08090  0.68870  Biso   1.000  H
  H54      1.0000 0.20320  0.08090  0.81130  Biso   1.000  H
  H55      1.0000 0.29680  0.58090  0.68870  Biso   1.000  H
  H56      1.0000 0.70320  0.58090  0.81130  Biso   1.000  H
  C65      1.0000 0.15380  0.88950  0.13900  Biso   1.000  C
  C66      1.0000 0.84620  0.88950  0.36100  Biso   1.000  C
  C67      1.0000 0.65380  0.38950  0.13900  Biso   1.000  C
  C68      1.0000 0.34620  0.38950  0.36100  Biso   1.000  C
  C69      1.0000 0.84620  0.11050  0.86100  Biso   1.000  C
  C70      1.0000 0.15380  0.11050  0.63900  Biso   1.000  C
  C71      1.0000 0.34620  0.61050  0.86100  Biso   1.000  C
  C72      1.0000 0.65380  0.61050  0.63900  Biso   1.000  C
  H57      1.0000 0.15060  0.82380  0.10460  Biso   1.000  H
  H58      1.0000 0.84940  0.82380  0.39540  Biso   1.000  H
  H59      1.0000 0.65060  0.32380  0.10460  Biso   1.000  H
  H60      1.0000 0.34940  0.32380  0.39540  Biso   1.000  H
  H61      1.0000 0.84940  0.17620  0.89540  Biso   1.000  H
  H62      1.0000 0.15060  0.17620  0.60460  Biso   1.000  H
  H63      1.0000 0.34940  0.67620  0.89540  Biso   1.000  H
  H64      1.0000 0.65060  0.67620  0.60460  Biso   1.000  H
  H65      1.0000 0.20110  0.92470  0.13400  Biso   1.000  H
  H66      1.0000 0.79890  0.92470  0.36600  Biso   1.000  H
  H67      1.0000 0.70110  0.42470  0.13400  Biso   1.000  H
  H68      1.0000 0.29890  0.42470  0.36600  Biso   1.000  H
  H69      1.0000 0.79890  0.07530  0.86600  Biso   1.000  H
  H70      1.0000 0.20110  0.07530  0.63400  Biso   1.000  H
  H71      1.0000 0.29890  0.57530  0.86600  Biso   1.000  H
  H72      1.0000 0.70110  0.57530  0.63400  Biso   1.000  H
  C73      1.0000 0.07320  0.94610  0.06840  Biso   1.000  C
  C74      1.0000 0.92680  0.94610  0.43160  Biso   1.000  C
  C75      1.0000 0.57320  0.44610  0.06840  Biso   1.000  C
  C76      1.0000 0.42680  0.44610  0.43160  Biso   1.000  C
  C77      1.0000 0.92680  0.05390  0.93160  Biso   1.000  C
  C78      1.0000 0.07320  0.05390  0.56840  Biso   1.000  C
  C79      1.0000 0.42680  0.55390  0.93160  Biso   1.000  C
  C80      1.0000 0.57320  0.55390  0.56840  Biso   1.000  C
  C81      1.0000 0.02500  0.98860  0.11750  Biso   1.000  C
  C82      1.0000 0.97500  0.98860  0.38250  Biso   1.000  C
  C83      1.0000 0.52500  0.48860  0.11750  Biso   1.000  C
  C84      1.0000 0.47500  0.48860  0.38250  Biso   1.000  C
  C85      1.0000 0.97500  0.01140  0.88250  Biso   1.000  C
  C86      1.0000 0.02500  0.01140  0.61750  Biso   1.000  C
  C87      1.0000 0.47500  0.51140  0.88250  Biso   1.000  C
  C88      1.0000 0.52500  0.51140  0.61750  Biso   1.000  C
  H73      1.0000 0.04080  0.98270  0.19750  Biso   1.000  H
  H74      1.0000 0.95920  0.98270  0.30250  Biso   1.000  H
  H75      1.0000 0.54080  0.48270  0.19750  Biso   1.000  H
  H76      1.0000 0.45920  0.48270  0.30250  Biso   1.000  H
  H77      1.0000 0.95920  0.01730  0.80250  Biso   1.000  H
  H78      1.0000 0.04080  0.01730  0.69750  Biso   1.000  H
  H79      1.0000 0.45920  0.51730  0.80250  Biso   1.000  H
  H80      1.0000 0.54080  0.51730  0.69750  Biso   1.000  H
  C89      1.0000 0.04740  0.95930  0.95050  Biso   1.000  C
  C90      1.0000 0.95260  0.95930  0.54950  Biso   1.000  C
  C91      1.0000 0.54740  0.45930  0.95050  Biso   1.000  C
  C92      1.0000 0.45260  0.45930  0.54950  Biso   1.000  C
  C93      1.0000 0.95260  0.04070  0.04950  Biso   1.000  C
  C94      1.0000 0.04740  0.04070  0.45050  Biso   1.000  C
  C95      1.0000 0.45260  0.54070  0.04950  Biso   1.000  C
  C96      1.0000 0.54740  0.54070  0.45050  Biso   1.000  C
  H81      1.0000 0.08000  0.93200  0.91490  Biso   1.000  H
  H82      1.0000 0.92000  0.93200  0.58510  Biso   1.000  H
  H83      1.0000 0.58000  0.43200  0.91490  Biso   1.000  H
  H84      1.0000 0.42000  0.43200  0.58510  Biso   1.000  H
  H85      1.0000 0.92000  0.06800  0.08510  Biso   1.000  H
  H86      1.0000 0.08000  0.06800  0.41490  Biso   1.000  H
  H87      1.0000 0.42000  0.56800  0.08510  Biso   1.000  H
  H88      1.0000 0.58000  0.56800  0.41490  Biso   1.000  H
  H89      1.0000 0.93000  0.39400  0.77700  Biso   1.000  H
  H90      1.0000 0.07000  0.39400  0.72300  Biso   1.000  H
  H91      1.0000 0.43000  0.89400  0.77700  Biso   1.000  H
  H92      1.0000 0.57000  0.89400  0.72300  Biso   1.000  H
  H93      1.0000 0.07000  0.60600  0.22300  Biso   1.000  H
  H94      1.0000 0.93000  0.60600  0.27700  Biso   1.000  H
  H95      1.0000 0.57000  0.10600  0.22300  Biso   1.000  H
  H96      1.0000 0.43000  0.10600  0.27700  Biso   1.000  H
  H97      1.0000 0.89600  0.46600  0.81600  Biso   1.000  H
  H98      1.0000 0.10400  0.46600  0.68400  Biso   1.000  H
  H99      1.0000 0.39600  0.96600  0.81600  Biso   1.000  H
  H100     1.0000 0.60400  0.96600  0.68400  Biso   1.000  H
  H101     1.0000 0.10400  0.53400  0.18400  Biso   1.000  H
  H102     1.0000 0.89600  0.53400  0.31600  Biso   1.000  H
  H103     1.0000 0.60400  0.03400  0.18400  Biso   1.000  H
  H104     1.0000 0.39600  0.03400  0.31600  Biso   1.000  H
