data_image0
_cell_length_a       9.486
_cell_length_b       9.8437
_cell_length_c       10.9604
_cell_angle_alpha    66.711
_cell_angle_beta     86.387
_cell_angle_gamma    68.479

_symmetry_space_group_name_H-M    "P 1"
_symmetry_int_tables_number       1

loop_
  _symmetry_equiv_pos_as_xyz
  'x, y, z'

loop_
  _atom_site_label
  _atom_site_occupancy
  _atom_site_fract_x
  _atom_site_fract_y
  _atom_site_fract_z
  _atom_site_thermal_displace_type
  _atom_site_B_iso_or_equiv
  _atom_site_type_symbol
  Cu1      1.0000 0.71040  0.58420  0.06000  Biso   1.000  Cu
  Cu2      1.0000 0.28960  0.41580  0.94000  Biso   1.000  Cu
  Mo1      1.0000 0.05550  0.25330  0.20620  Biso   1.000  Mo
  Mo2      1.0000 0.94450  0.74670  0.79380  Biso   1.000  Mo
  Mo3      1.0000 0.09090  0.89100  0.42270  Biso   1.000  Mo
  Mo4      1.0000 0.90910  0.10900  0.57730  Biso   1.000  Mo
  O1       1.0000 0.85940  0.37850  0.16270  Biso   1.000  O
  O2       1.0000 0.14060  0.62150  0.83730  Biso   1.000  O
  O3       1.0000 0.14250  0.29930  0.30900  Biso   1.000  O
  O4       1.0000 0.85750  0.70070  0.69100  Biso   1.000  O
  O5       1.0000 0.14160  0.29850  0.05740  Biso   1.000  O
  O6       1.0000 0.85840  0.70150  0.94260  Biso   1.000  O
  O7       1.0000 0.11750  0.03330  0.25010  Biso   1.000  O
  O8       1.0000 0.88250  0.96670  0.74990  Biso   1.000  O
  O9       1.0000 0.96740  0.12150  0.40330  Biso   1.000  O
  O10      1.0000 0.03260  0.87850  0.59670  Biso   1.000  O
  O11      1.0000 0.27580  0.75830  0.46650  Biso   1.000  O
  O12      1.0000 0.72420  0.24170  0.53350  Biso   1.000  O
  O13      1.0000 0.99020  0.80440  0.37510  Biso   1.000  O
  O14      1.0000 0.00980  0.19560  0.62490  Biso   1.000  O
  N1       1.0000 0.66560  0.53710  0.90600  Biso   1.000  N
  N2       1.0000 0.33440  0.46290  0.09400  Biso   1.000  N
  N3       1.0000 0.50800  0.74580  0.99410  Biso   1.000  N
  N4       1.0000 0.49200  0.25420  0.00590  Biso   1.000  N
  N5       1.0000 0.67640  0.67400  0.20050  Biso   1.000  N
  N6       1.0000 0.32360  0.32600  0.79950  Biso   1.000  N
  C1       1.0000 0.76130  0.43040  0.86360  Biso   1.000  C
  C2       1.0000 0.23870  0.56960  0.13640  Biso   1.000  C
  C3       1.0000 0.72200  0.41120  0.75210  Biso   1.000  C
  C4       1.0000 0.27800  0.58880  0.24790  Biso   1.000  C
  C5       1.0000 0.58020  0.50800  0.68370  Biso   1.000  C
  C6       1.0000 0.41980  0.49200  0.31630  Biso   1.000  C
  C7       1.0000 0.48080  0.62400  0.72390  Biso   1.000  C
  C8       1.0000 0.51920  0.37600  0.27610  Biso   1.000  C
  C9       1.0000 0.52870  0.63670  0.83470  Biso   1.000  C
  C10      1.0000 0.47130  0.36330  0.16530  Biso   1.000  C
  C11      1.0000 0.43630  0.75730  0.88710  Biso   1.000  C
  C12      1.0000 0.56370  0.24270  0.11290  Biso   1.000  C
  C13      1.0000 0.29150  0.87160  0.83770  Biso   1.000  C
  C14      1.0000 0.70850  0.12840  0.16230  Biso   1.000  C
  C15      1.0000 0.22420  0.97000  0.90360  Biso   1.000  C
  C16      1.0000 0.77580  0.03000  0.09640  Biso   1.000  C
  C17      1.0000 0.29830  0.95540  0.01720  Biso   1.000  C
  C18      1.0000 0.70170  0.04460  0.98280  Biso   1.000  C
  C19      1.0000 0.44370  0.83820  0.06130  Biso   1.000  C
  C20      1.0000 0.55630  0.16180  0.93870  Biso   1.000  C
  C21      1.0000 0.54010  0.79670  0.18090  Biso   1.000  C
  C22      1.0000 0.45990  0.20330  0.81910  Biso   1.000  C
  C23      1.0000 0.49800  0.86820  0.27090  Biso   1.000  C
  C24      1.0000 0.50200  0.13180  0.72910  Biso   1.000  C
  C25      1.0000 0.59620  0.81510  0.38250  Biso   1.000  C
  C26      1.0000 0.40380  0.18490  0.61750  Biso   1.000  C
  C27      1.0000 0.73560  0.69200  0.40100  Biso   1.000  C
  C28      1.0000 0.26440  0.30800  0.59900  Biso   1.000  C
  C29      1.0000 0.77230  0.62360  0.30860  Biso   1.000  C
  C30      1.0000 0.22770  0.37640  0.69140  Biso   1.000  C
