data_image0
_cell_length_a       9.8525
_cell_length_b       13.0977
_cell_length_c       14.578
_cell_angle_alpha    101.557
_cell_angle_beta     102.287
_cell_angle_gamma    101.833

_symmetry_space_group_name_H-M    "P 1"
_symmetry_int_tables_number       1

loop_
  _symmetry_equiv_pos_as_xyz
  'x, y, z'

loop_
  _atom_site_label
  _atom_site_occupancy
  _atom_site_fract_x
  _atom_site_fract_y
  _atom_site_fract_z
  _atom_site_thermal_displace_type
  _atom_site_B_iso_or_equiv
  _atom_site_type_symbol
  Cu1      1.0000 0.50000  0.50000  0.50000  Biso   1.000  Cu
  O1       1.0000 0.64280  0.63780  0.52624  Biso   1.000  O
  O2       1.0000 0.35720  0.36220  0.47376  Biso   1.000  O
  C1       1.0000 0.83490  0.76710  0.51460  Biso   1.000  C
  C2       1.0000 0.16510  0.23290  0.48540  Biso   1.000  C
  F1       1.0000 0.74900  0.83270  0.51570  Biso   1.000  F
  F2       1.0000 0.25100  0.16730  0.48430  Biso   1.000  F
  F3       1.0000 0.91900  0.79500  0.60200  Biso   1.000  F
  F4       1.0000 0.08100  0.20500  0.39800  Biso   1.000  F
  F5       1.0000 0.91700  0.78400  0.45800  Biso   1.000  F
  F6       1.0000 0.08300  0.21600  0.54200  Biso   1.000  F
  C3       1.0000 0.74950  0.65020  0.49310  Biso   1.000  C
  C4       1.0000 0.25050  0.34980  0.50690  Biso   1.000  C
  C5       1.0000 0.79730  0.57250  0.44150  Biso   1.000  C
  C6       1.0000 0.20270  0.42750  0.55850  Biso   1.000  C
  H1       1.0000 0.87670  0.59300  0.41800  Biso   1.000  H
  H2       1.0000 0.12330  0.40700  0.58200  Biso   1.000  H
  C7       1.0000 0.72980  0.46340  0.42320  Biso   1.000  C
  C8       1.0000 0.27020  0.53660  0.57680  Biso   1.000  C
  C9       1.0000 0.78770  0.38050  0.36440  Biso   1.000  C
  C10      1.0000 0.21230  0.61950  0.63560  Biso   1.000  C
  F7       1.0000 0.89300  0.41600  0.35100  Biso   1.000  F
  F8       1.0000 0.10700  0.58400  0.64900  Biso   1.000  F
  F9       1.0000 0.83000  0.31800  0.43200  Biso   1.000  F
  F10      1.0000 0.17000  0.68200  0.56800  Biso   1.000  F
  F11      1.0000 0.69900  0.31660  0.29330  Biso   1.000  F
  F12      1.0000 0.30100  0.68340  0.70670  Biso   1.000  F
  O3       1.0000 0.62160  0.42010  0.44619  Biso   1.000  O
  O4       1.0000 0.37840  0.57990  0.55381  Biso   1.000  O
  Cu2      1.0000 0.00000  0.00000  0.00000  Biso   1.000  Cu
  O5       1.0000 0.84080  0.06844  0.99794  Biso   1.000  O
  O6       1.0000 0.15920  0.93156  0.00206  Biso   1.000  O
  C11      1.0000 0.66620  0.14190  0.04550  Biso   1.000  C
  C12      1.0000 0.33380  0.85810  0.95450  Biso   1.000  C
  F13      1.0000 0.58420  0.10800  0.95550  Biso   1.000  F
  F14      1.0000 0.41580  0.89200  0.04450  Biso   1.000  F
  F15      1.0000 0.56000  0.13900  0.10190  Biso   1.000  F
  F16      1.0000 0.44000  0.86100  0.89810  Biso   1.000  F
  F17      1.0000 0.73400  0.25200  0.06300  Biso   1.000  F
  F18      1.0000 0.26600  0.74800  0.93700  Biso   1.000  F
  C13      1.0000 0.77010  0.07180  0.05920  Biso   1.000  C
  C14      1.0000 0.22990  0.92820  0.94080  Biso   1.000  C
  C15      1.0000 0.77610  0.01960  0.13260  Biso   1.000  C
  C16      1.0000 0.22390  0.98040  0.86740  Biso   1.000  C
  H3       1.0000 0.71600  0.02860  0.17330  Biso   1.000  H
  H4       1.0000 0.28400  0.97140  0.82670  Biso   1.000  H
  C17      1.0000 0.86770  0.95460  0.14800  Biso   1.000  C
  C18      1.0000 0.13230  0.04540  0.85200  Biso   1.000  C
  C19      1.0000 0.86390  0.89830  0.23080  Biso   1.000  C
  C20      1.0000 0.13610  0.10170  0.76920  Biso   1.000  C
  F19      1.0000 0.98900  0.89000  0.27200  Biso   1.000  F
  F20      1.0000 0.01100  0.11000  0.72800  Biso   1.000  F
  F21      1.0000 0.78500  0.81200  0.20670  Biso   1.000  F
  F22      1.0000 0.21500  0.18800  0.79330  Biso   1.000  F
  F23      1.0000 0.83800  0.95900  0.30740  Biso   1.000  F
  F24      1.0000 0.16200  0.04100  0.69260  Biso   1.000  F
  O7       1.0000 0.95680  0.93326  0.10383  Biso   1.000  O
  O8       1.0000 0.04320  0.06674  0.89617  Biso   1.000  O
  O9       1.0000 0.56320  0.48803  0.66113  Biso   1.000  O
  O10      1.0000 0.43680  0.51197  0.33887  Biso   1.000  O
  N1       1.0000 0.67020  0.47180  0.71920  Biso   1.000  N
  N2       1.0000 0.32980  0.52820  0.28080  Biso   1.000  N
  C21      1.0000 0.67380  0.36050  0.72700  Biso   1.000  C
  C22      1.0000 0.32620  0.63950  0.27300  Biso   1.000  C
  C23      1.0000 0.55820  0.32450  0.77620  Biso   1.000  C
  C24      1.0000 0.44180  0.67550  0.22380  Biso   1.000  C
  H5       1.0000 0.46520  0.31240  0.73260  Biso   1.000  H
  H6       1.0000 0.53480  0.68760  0.26740  Biso   1.000  H
  H7       1.0000 0.56860  0.37950  0.83370  Biso   1.000  H
  H8       1.0000 0.43140  0.62050  0.16630  Biso   1.000  H
  H9       1.0000 0.56750  0.25890  0.79360  Biso   1.000  H
  H10      1.0000 0.43250  0.74110  0.20640  Biso   1.000  H
  C25      1.0000 0.63890  0.28520  0.62730  Biso   1.000  C
  C26      1.0000 0.36110  0.71480  0.37270  Biso   1.000  C
  H11      1.0000 0.71190  0.30740  0.59580  Biso   1.000  H
  H12      1.0000 0.28810  0.69260  0.40420  Biso   1.000  H
  H13      1.0000 0.54740  0.28730  0.58960  Biso   1.000  H
  H14      1.0000 0.45260  0.71270  0.41040  Biso   1.000  H
  H15      1.0000 0.63520  0.21310  0.63320  Biso   1.000  H
  H16      1.0000 0.36480  0.78690  0.36680  Biso   1.000  H
  C27      1.0000 0.82970  0.38180  0.79100  Biso   1.000  C
  C28      1.0000 0.17030  0.61820  0.20900  Biso   1.000  C
  C29      1.0000 0.93800  0.37060  0.72800  Biso   1.000  C
  C30      1.0000 0.06200  0.62940  0.27200  Biso   1.000  C
  H17      1.0000 0.03310  0.38510  0.76960  Biso   1.000  H
  H18      1.0000 0.96690  0.61490  0.23040  Biso   1.000  H
  H19      1.0000 0.93630  0.42130  0.68870  Biso   1.000  H
  H20      1.0000 0.06370  0.57870  0.31130  Biso   1.000  H
  H21      1.0000 0.91120  0.29870  0.68680  Biso   1.000  H
  H22      1.0000 0.08880  0.70130  0.31320  Biso   1.000  H
  C31      1.0000 0.85000  0.32180  0.86740  Biso   1.000  C
  C32      1.0000 0.15000  0.67820  0.13260  Biso   1.000  C
  H23      1.0000 0.78240  0.33030  0.90520  Biso   1.000  H
  H24      1.0000 0.21760  0.66970  0.09480  Biso   1.000  H
  H25      1.0000 0.94610  0.34970  0.90890  Biso   1.000  H
  H26      1.0000 0.05390  0.65030  0.09110  Biso   1.000  H
  H27      1.0000 0.83470  0.24660  0.83740  Biso   1.000  H
  H28      1.0000 0.16530  0.75340  0.16260  Biso   1.000  H
  N3       1.0000 0.86040  0.49960  0.83590  Biso   1.000  N
  N4       1.0000 0.13960  0.50040  0.16410  Biso   1.000  N
  O11      1.0000 0.97360  0.54890  0.90360  Biso   1.000  O
  O12      1.0000 0.02640  0.45110  0.09640  Biso   1.000  O
  C33      1.0000 0.77120  0.54740  0.78850  Biso   1.000  C
  C34      1.0000 0.22880  0.45260  0.21150  Biso   1.000  C
  C35      1.0000 0.78070  0.65980  0.80870  Biso   1.000  C
  C36      1.0000 0.21930  0.34020  0.19130  Biso   1.000  C
  C37      1.0000 0.88120  0.74250  0.88290  Biso   1.000  C
  C38      1.0000 0.11880  0.25750  0.11710  Biso   1.000  C
  H29      1.0000 0.95540  0.73130  0.92800  Biso   1.000  H
  H30      1.0000 0.04460  0.26870  0.07200  Biso   1.000  H
  N5       1.0000 0.85860  0.83810  0.88170  Biso   1.000  N
  N6       1.0000 0.14140  0.16190  0.11830  Biso   1.000  N
  N7       1.0000 0.74460  0.81840  0.80380  Biso   1.000  N
  N8       1.0000 0.25540  0.18160  0.19620  Biso   1.000  N
  C39      1.0000 0.69840  0.91020  0.77550  Biso   1.000  C
  C40      1.0000 0.30160  0.08980  0.22450  Biso   1.000  C
  H31      1.0000 0.68250  0.95490  0.83180  Biso   1.000  H
  H32      1.0000 0.31750  0.04510  0.16820  Biso   1.000  H
  H33      1.0000 0.77670  0.95330  0.75800  Biso   1.000  H
  H34      1.0000 0.22330  0.04670  0.24200  Biso   1.000  H
  C41      1.0000 0.57240  0.88460  0.69750  Biso   1.000  C
  C42      1.0000 0.42760  0.11540  0.30250  Biso   1.000  C
  H35      1.0000 0.49350  0.84180  0.71460  Biso   1.000  H
  H36      1.0000 0.50650  0.15820  0.28540  Biso   1.000  H
  H37      1.0000 0.58790  0.84050  0.64070  Biso   1.000  H
  H38      1.0000 0.41210  0.15950  0.35930  Biso   1.000  H
  C43      1.0000 0.52920  0.98070  0.67130  Biso   1.000  C
  C44      1.0000 0.47080  0.01930  0.32870  Biso   1.000  C
  H39      1.0000 0.51750  0.02610  0.72890  Biso   1.000  H
  H40      1.0000 0.48250  0.97390  0.27110  Biso   1.000  H
  H41      1.0000 0.60700  0.02200  0.65210  Biso   1.000  H
  H42      1.0000 0.39300  0.97800  0.34790  Biso   1.000  H
  C45      1.0000 0.39730  0.95590  0.59370  Biso   1.000  C
  C46      1.0000 0.60270  0.04410  0.40630  Biso   1.000  C
  H43      1.0000 0.37830  0.02180  0.58190  Biso   1.000  H
  H44      1.0000 0.62170  0.97820  0.41810  Biso   1.000  H
  H45      1.0000 0.31850  0.91690  0.61250  Biso   1.000  H
  H46      1.0000 0.68150  0.08310  0.38750  Biso   1.000  H
  H47      1.0000 0.40820  0.91270  0.53550  Biso   1.000  H
  H48      1.0000 0.59180  0.08730  0.46450  Biso   1.000  H
  C47      1.0000 0.69540  0.71330  0.76000  Biso   1.000  C
  C48      1.0000 0.30460  0.28670  0.24000  Biso   1.000  C
  H49      1.0000 0.61710  0.68180  0.70600  Biso   1.000  H
  H50      1.0000 0.38290  0.31820  0.29400  Biso   1.000  H
  C49      1.0000 0.37080  0.43450  0.98930  Biso   1.000  C
  C50      1.0000 0.62920  0.56550  0.01070  Biso   1.000  C
  H51      1.0000 0.28060  0.38940  0.98110  Biso   1.000  H
  H52      1.0000 0.71940  0.61060  0.01890  Biso   1.000  H
  C51      1.0000 0.48500  0.41780  0.04270  Biso   1.000  C
  C52      1.0000 0.51500  0.58220  0.95730  Biso   1.000  C
  H53      1.0000 0.47570  0.36130  0.07260  Biso   1.000  H
  H54      1.0000 0.52430  0.63870  0.92740  Biso   1.000  H
  C53      1.0000 0.38310  0.51770  0.94560  Biso   1.000  C
  C54      1.0000 0.61690  0.48230  0.05440  Biso   1.000  C
  H55      1.0000 0.30180  0.52980  0.90820  Biso   1.000  H
  H56      1.0000 0.69820  0.47020  0.09180  Biso   1.000  H
  F25      1.0000 0.73810  0.88900  0.25440  Biso   1.000  F
  F26      1.0000 0.26190  0.11100  0.74560  Biso   1.000  F
  F27      1.0000 0.85600  0.79660  0.19850  Biso   1.000  F
  F28      1.0000 0.14400  0.20340  0.80150  Biso   1.000  F
  F29      1.0000 0.97000  0.94000  0.30240  Biso   1.000  F
  F30      1.0000 0.03000  0.06000  0.69760  Biso   1.000  F
  F31      1.0000 0.12100  0.18880  0.39100  Biso   1.000  F
  F32      1.0000 0.87900  0.81120  0.60900  Biso   1.000  F
  F33      1.0000 0.05020  0.22130  0.51500  Biso   1.000  F
  F34      1.0000 0.94980  0.77870  0.48500  Biso   1.000  F
  F35      1.0000 0.23500  0.17810  0.53180  Biso   1.000  F
  F36      1.0000 0.76500  0.82190  0.46820  Biso   1.000  F
  F37      1.0000 0.05700  0.57600  0.63260  Biso   1.000  F
  F38      1.0000 0.94300  0.42400  0.36740  Biso   1.000  F
  F39      1.0000 0.21900  0.70500  0.61620  Biso   1.000  F
  F40      1.0000 0.78100  0.29500  0.38380  Biso   1.000  F
  F41      1.0000 0.26600  0.63400  0.72870  Biso   1.000  F
  F42      1.0000 0.73400  0.36600  0.27130  Biso   1.000  F
  F43      1.0000 0.60800  0.14100  0.95840  Biso   1.000  F
  F44      1.0000 0.39200  0.85900  0.04160  Biso   1.000  F
  F45      1.0000 0.58600  0.12300  0.08900  Biso   1.000  F
  F46      1.0000 0.41400  0.87700  0.91100  Biso   1.000  F
  F47      1.0000 0.73900  0.23200  0.08600  Biso   1.000  F
  F48      1.0000 0.26100  0.76800  0.91400  Biso   1.000  F
