data_image0
_cell_length_a       9.6163
_cell_length_b       12.9234
_cell_length_c       14.1191
_cell_angle_alpha    100.304
_cell_angle_beta     102.48
_cell_angle_gamma    102.098

_symmetry_space_group_name_H-M    "P 1"
_symmetry_int_tables_number       1

loop_
  _symmetry_equiv_pos_as_xyz
  'x, y, z'

loop_
  _atom_site_label
  _atom_site_occupancy
  _atom_site_fract_x
  _atom_site_fract_y
  _atom_site_fract_z
  _atom_site_thermal_displace_type
  _atom_site_B_iso_or_equiv
  _atom_site_type_symbol
  Cu1      1.0000 0.50000  0.50000  0.50000  Biso   1.000  Cu
  O1       1.0000 0.65131  0.64018  0.53345  Biso   1.000  O
  O2       1.0000 0.34869  0.35982  0.46655  Biso   1.000  O
  C1       1.0000 0.85480  0.77297  0.53002  Biso   1.000  C
  C2       1.0000 0.14520  0.22703  0.46998  Biso   1.000  C
  F1       1.0000 0.76895  0.84045  0.51546  Biso   1.000  F
  F2       1.0000 0.23105  0.15955  0.48454  Biso   1.000  F
  F3       1.0000 0.92606  0.80136  0.62680  Biso   1.000  F
  F4       1.0000 0.07394  0.19864  0.37320  Biso   1.000  F
  F5       1.0000 0.95529  0.79223  0.47913  Biso   1.000  F
  F6       1.0000 0.04471  0.20777  0.52087  Biso   1.000  F
  C3       1.0000 0.76390  0.65462  0.50126  Biso   1.000  C
  C4       1.0000 0.23610  0.34538  0.49874  Biso   1.000  C
  C5       1.0000 0.81400  0.57666  0.44635  Biso   1.000  C
  C6       1.0000 0.18600  0.42334  0.55365  Biso   1.000  C
  H1       1.0000 0.89540  0.59860  0.42230  Biso   1.000  H
  H2       1.0000 0.10460  0.40140  0.57770  Biso   1.000  H
  C7       1.0000 0.74430  0.46632  0.42670  Biso   1.000  C
  C8       1.0000 0.25570  0.53368  0.57330  Biso   1.000  C
  C9       1.0000 0.80330  0.38460  0.36540  Biso   1.000  C
  C10      1.0000 0.19670  0.61540  0.63460  Biso   1.000  C
  F7       1.0000 0.92790  0.42940  0.35100  Biso   1.000  F
  F8       1.0000 0.07210  0.57060  0.64900  Biso   1.000  F
  F9       1.0000 0.83400  0.30000  0.41200  Biso   1.000  F
  F10      1.0000 0.16600  0.70000  0.58800  Biso   1.000  F
  F11      1.0000 0.71390  0.33980  0.27770  Biso   1.000  F
  F12      1.0000 0.28610  0.66020  0.72230  Biso   1.000  F
  O3       1.0000 0.63302  0.42143  0.45252  Biso   1.000  O
  O4       1.0000 0.36698  0.57857  0.54748  Biso   1.000  O
  Cu2      1.0000 0.00000  0.00000  0.00000  Biso   1.000  Cu
  O5       1.0000 0.83198  0.06430  0.99596  Biso   1.000  O
  O6       1.0000 0.16802  0.93570  0.00404  Biso   1.000  O
  C11      1.0000 0.65410  0.13942  0.04841  Biso   1.000  C
  C12      1.0000 0.34590  0.86058  0.95159  Biso   1.000  C
  F13      1.0000 0.57879  0.12040  0.95340  Biso   1.000  F
  F14      1.0000 0.42121  0.87960  0.04660  Biso   1.000  F
  F15      1.0000 0.55644  0.12568  0.10210  Biso   1.000  F
  F16      1.0000 0.44356  0.87432  0.89790  Biso   1.000  F
  F17      1.0000 0.72743  0.24357  0.07561  Biso   1.000  F
  F18      1.0000 0.27257  0.75643  0.92439  Biso   1.000  F
  C13      1.0000 0.76140  0.06710  0.06120  Biso   1.000  C
  C14      1.0000 0.23860  0.93290  0.93880  Biso   1.000  C
  C15      1.0000 0.77240  0.01646  0.13988  Biso   1.000  C
  C16      1.0000 0.22760  0.98354  0.86012  Biso   1.000  C
  H3       1.0000 0.71500  0.02740  0.18410  Biso   1.000  H
  H4       1.0000 0.28500  0.97260  0.81590  Biso   1.000  H
  C17      1.0000 0.86750  0.94929  0.15458  Biso   1.000  C
  C18      1.0000 0.13250  0.05071  0.84542  Biso   1.000  C
  C19      1.0000 0.86820  0.89020  0.23970  Biso   1.000  C
  C20      1.0000 0.13180  0.10980  0.76030  Biso   1.000  C
  F19      1.0000 0.01200  0.91170  0.30640  Biso   1.000  F
  F20      1.0000 0.98800  0.08830  0.69360  Biso   1.000  F
  F21      1.0000 0.82700  0.78250  0.20640  Biso   1.000  F
  F22      1.0000 0.17300  0.21750  0.79360  Biso   1.000  F
  F23      1.0000 0.78700  0.92060  0.29590  Biso   1.000  F
  F24      1.0000 0.21300  0.07940  0.70410  Biso   1.000  F
  O7       1.0000 0.95689  0.92846  0.10606  Biso   1.000  O
  O8       1.0000 0.04311  0.07154  0.89394  Biso   1.000  O
  O9       1.0000 0.54225  0.48354  0.66511  Biso   1.000  O
  O10      1.0000 0.45775  0.51646  0.33489  Biso   1.000  O
  N1       1.0000 0.65560  0.46481  0.72200  Biso   1.000  N
  N2       1.0000 0.34440  0.53519  0.27800  Biso   1.000  N
  C21      1.0000 0.65850  0.35144  0.73282  Biso   1.000  C
  C22      1.0000 0.34150  0.64856  0.26718  Biso   1.000  C
  C23      1.0000 0.55220  0.32139  0.79513  Biso   1.000  C
  C24      1.0000 0.44780  0.67861  0.20487  Biso   1.000  C
  H5       1.0000 0.45270  0.30730  0.75540  Biso   1.000  H
  H6       1.0000 0.54730  0.69270  0.24460  Biso   1.000  H
  H7       1.0000 0.57050  0.38050  0.85200  Biso   1.000  H
  H8       1.0000 0.42950  0.61950  0.14800  Biso   1.000  H
  H9       1.0000 0.56630  0.25740  0.81730  Biso   1.000  H
  H10      1.0000 0.43370  0.74260  0.18270  Biso   1.000  H
  C25      1.0000 0.60860  0.27373  0.63106  Biso   1.000  C
  C26      1.0000 0.39140  0.72627  0.36894  Biso   1.000  C
  H11      1.0000 0.67920  0.29160  0.59390  Biso   1.000  H
  H12      1.0000 0.32080  0.70840  0.40610  Biso   1.000  H
  H13      1.0000 0.51430  0.27970  0.59600  Biso   1.000  H
  H14      1.0000 0.48570  0.72030  0.40400  Biso   1.000  H
  H15      1.0000 0.60060  0.20060  0.63870  Biso   1.000  H
  H16      1.0000 0.39940  0.79940  0.36130  Biso   1.000  H
  C27      1.0000 0.82400  0.37116  0.78759  Biso   1.000  C
  C28      1.0000 0.17600  0.62884  0.21241  Biso   1.000  C
  C29      1.0000 0.92180  0.35662  0.71694  Biso   1.000  C
  C30      1.0000 0.07820  0.64338  0.28306  Biso   1.000  C
  H17      1.0000 0.02210  0.37030  0.75510  Biso   1.000  H
  H18      1.0000 0.97790  0.62970  0.24490  Biso   1.000  H
  H19      1.0000 0.91540  0.40690  0.67470  Biso   1.000  H
  H20      1.0000 0.08460  0.59310  0.32530  Biso   1.000  H
  H21      1.0000 0.88950  0.28350  0.67660  Biso   1.000  H
  H22      1.0000 0.11050  0.71650  0.32340  Biso   1.000  H
  C31      1.0000 0.85510  0.31065  0.86929  Biso   1.000  C
  C32      1.0000 0.14490  0.68935  0.13071  Biso   1.000  C
  H23      1.0000 0.78810  0.31700  0.91020  Biso   1.000  H
  H24      1.0000 0.21190  0.68300  0.08980  Biso   1.000  H
  H25      1.0000 0.95460  0.34150  0.90960  Biso   1.000  H
  H26      1.0000 0.04540  0.65850  0.09040  Biso   1.000  H
  H27      1.0000 0.84230  0.23520  0.83970  Biso   1.000  H
  H28      1.0000 0.15770  0.76480  0.16030  Biso   1.000  H
  N3       1.0000 0.86390  0.49157  0.83382  Biso   1.000  N
  N4       1.0000 0.13610  0.50843  0.16618  Biso   1.000  N
  O11      1.0000 0.98709  0.54080  0.89705  Biso   1.000  O
  O12      1.0000 0.01291  0.45920  0.10295  Biso   1.000  O
  C33      1.0000 0.76580  0.54036  0.78744  Biso   1.000  C
  C34      1.0000 0.23420  0.45964  0.21256  Biso   1.000  C
  C35      1.0000 0.78160  0.65631  0.80734  Biso   1.000  C
  C36      1.0000 0.21840  0.34369  0.19266  Biso   1.000  C
  C37      1.0000 0.89140  0.73898  0.87963  Biso   1.000  C
  C38      1.0000 0.10860  0.26102  0.12037  Biso   1.000  C
  H29      1.0000 0.97000  0.72750  0.92430  Biso   1.000  H
  H30      1.0000 0.03000  0.27250  0.07570  Biso   1.000  H
  N5       1.0000 0.86740  0.83619  0.87534  Biso   1.000  N
  N6       1.0000 0.13260  0.16381  0.12466  Biso   1.000  N
  N7       1.0000 0.74410  0.81636  0.80061  Biso   1.000  N
  N8       1.0000 0.25590  0.18364  0.19939  Biso   1.000  N
  C39      1.0000 0.69730  0.90871  0.76885  Biso   1.000  C
  C40      1.0000 0.30270  0.09129  0.23115  Biso   1.000  C
  H31      1.0000 0.77330  0.94830  0.74380  Biso   1.000  H
  H32      1.0000 0.22670  0.05170  0.25620  Biso   1.000  H
  H33      1.0000 0.68810  0.95770  0.82650  Biso   1.000  H
  H34      1.0000 0.31190  0.04230  0.17350  Biso   1.000  H
  C41      1.0000 0.55310  0.87614  0.68929  Biso   1.000  C
  C42      1.0000 0.44690  0.12386  0.31071  Biso   1.000  C
  H35      1.0000 0.47550  0.83830  0.71410  Biso   1.000  H
  H36      1.0000 0.52450  0.16170  0.28590  Biso   1.000  H
  H37      1.0000 0.56070  0.82700  0.63120  Biso   1.000  H
  H38      1.0000 0.43930  0.17300  0.36880  Biso   1.000  H
  C43      1.0000 0.51460  0.97651  0.65990  Biso   1.000  C
  C44      1.0000 0.48540  0.02349  0.34010  Biso   1.000  C
  H39      1.0000 0.50790  0.02530  0.71860  Biso   1.000  H
  H40      1.0000 0.49210  0.97470  0.28140  Biso   1.000  H
  H41      1.0000 0.59360  0.01440  0.63620  Biso   1.000  H
  H42      1.0000 0.40640  0.98560  0.36380  Biso   1.000  H
  C45      1.0000 0.37070  0.94990  0.57951  Biso   1.000  C
  C46      1.0000 0.62930  0.05010  0.42049  Biso   1.000  C
  H43      1.0000 0.34960  0.01620  0.56650  Biso   1.000  H
  H44      1.0000 0.65040  0.98380  0.43350  Biso   1.000  H
  H45      1.0000 0.29230  0.91060  0.60170  Biso   1.000  H
  H46      1.0000 0.70770  0.08940  0.39830  Biso   1.000  H
  H47      1.0000 0.37900  0.90600  0.51950  Biso   1.000  H
  H48      1.0000 0.62100  0.09400  0.48050  Biso   1.000  H
  C47      1.0000 0.68830  0.71017  0.75824  Biso   1.000  C
  C48      1.0000 0.31170  0.28983  0.24176  Biso   1.000  C
  H49      1.0000 0.60360  0.67850  0.70610  Biso   1.000  H
  H50      1.0000 0.39640  0.32150  0.29390  Biso   1.000  H
  C49      1.0000 0.36410  0.43310  0.99148  Biso   1.000  C
  C50      1.0000 0.63590  0.56690  0.00852  Biso   1.000  C
  H51      1.0000 0.27250  0.38740  0.98560  Biso   1.000  H
  H52      1.0000 0.72750  0.61260  0.01440  Biso   1.000  H
  C51      1.0000 0.48890  0.41870  0.05106  Biso   1.000  C
  C52      1.0000 0.51110  0.58130  0.94894  Biso   1.000  C
  H53      1.0000 0.48100  0.36380  0.08570  Biso   1.000  H
  H54      1.0000 0.51900  0.63620  0.91430  Biso   1.000  H
  C53      1.0000 0.37400  0.51470  0.94043  Biso   1.000  C
  C54      1.0000 0.62600  0.48530  0.05957  Biso   1.000  C
  H55      1.0000 0.28960  0.52480  0.90070  Biso   1.000  H
  H56      1.0000 0.71040  0.47520  0.09930  Biso   1.000  H
  F25      1.0000 0.76100  0.90050  0.28740  Biso   1.000  F
  F26      1.0000 0.23900  0.09950  0.71260  Biso   1.000  F
  F27      1.0000 0.84200  0.78420  0.20310  Biso   1.000  F
  F28      1.0000 0.15800  0.21580  0.79690  Biso   1.000  F
  F29      1.0000 0.99100  0.92450  0.29960  Biso   1.000  F
  F30      1.0000 0.00900  0.07550  0.70040  Biso   1.000  F
  F31      1.0000 0.06100  0.57440  0.64840  Biso   1.000  F
  F32      1.0000 0.93900  0.42560  0.35160  Biso   1.000  F
  F33      1.0000 0.19500  0.69300  0.59100  Biso   1.000  F
  F34      1.0000 0.80500  0.30700  0.40900  Biso   1.000  F
  F35      1.0000 0.29660  0.66000  0.72530  Biso   1.000  F
  F36      1.0000 0.70340  0.34000  0.27470  Biso   1.000  F
