data_image0
_cell_length_a       9.87
_cell_length_b       13.083
_cell_length_c       14.514
_cell_angle_alpha    101.278
_cell_angle_beta     102.63
_cell_angle_gamma    101.867

_symmetry_space_group_name_H-M    "P 1"
_symmetry_int_tables_number       1

loop_
  _symmetry_equiv_pos_as_xyz
  'x, y, z'

loop_
  _atom_site_label
  _atom_site_occupancy
  _atom_site_fract_x
  _atom_site_fract_y
  _atom_site_fract_z
  _atom_site_thermal_displace_type
  _atom_site_B_iso_or_equiv
  _atom_site_type_symbol
  Cu1      1.0000 0.50000  0.50000  0.50000  Biso   1.000  Cu
  O1       1.0000 0.64380  0.63830  0.52664  Biso   1.000  O
  O2       1.0000 0.35620  0.36170  0.47336  Biso   1.000  O
  C1       1.0000 0.83590  0.76790  0.51610  Biso   1.000  C
  C2       1.0000 0.16410  0.23210  0.48390  Biso   1.000  C
  F1       1.0000 0.76000  0.83360  0.51500  Biso   1.000  F
  F2       1.0000 0.24000  0.16640  0.48500  Biso   1.000  F
  F3       1.0000 0.91700  0.80000  0.60510  Biso   1.000  F
  F4       1.0000 0.08300  0.20000  0.39490  Biso   1.000  F
  F5       1.0000 0.92000  0.78500  0.45500  Biso   1.000  F
  F6       1.0000 0.08000  0.21500  0.54500  Biso   1.000  F
  C3       1.0000 0.75070  0.65050  0.49350  Biso   1.000  C
  C4       1.0000 0.24930  0.34950  0.50650  Biso   1.000  C
  C5       1.0000 0.79810  0.57140  0.44260  Biso   1.000  C
  C6       1.0000 0.20190  0.42860  0.55740  Biso   1.000  C
  H1       1.0000 0.87790  0.59170  0.41960  Biso   1.000  H
  H2       1.0000 0.12210  0.40830  0.58040  Biso   1.000  H
  C7       1.0000 0.73300  0.46450  0.42430  Biso   1.000  C
  C8       1.0000 0.26700  0.53550  0.57570  Biso   1.000  C
  C9       1.0000 0.79300  0.38120  0.36830  Biso   1.000  C
  C10      1.0000 0.20700  0.61880  0.63170  Biso   1.000  C
  F7       1.0000 0.89000  0.41460  0.34600  Biso   1.000  F
  F8       1.0000 0.11000  0.58540  0.65400  Biso   1.000  F
  F9       1.0000 0.82500  0.31380  0.42180  Biso   1.000  F
  F10      1.0000 0.17500  0.68620  0.57820  Biso   1.000  F
  F11      1.0000 0.69900  0.32510  0.29020  Biso   1.000  F
  F12      1.0000 0.30100  0.67490  0.70980  Biso   1.000  F
  O3       1.0000 0.62480  0.42030  0.44738  Biso   1.000  O
  O4       1.0000 0.37520  0.57970  0.55262  Biso   1.000  O
  Cu2      1.0000 0.00000  0.00000  0.00000  Biso   1.000  Cu
  O5       1.0000 0.84110  0.06813  0.99786  Biso   1.000  O
  O6       1.0000 0.15890  0.93187  0.00214  Biso   1.000  O
  C11      1.0000 0.66790  0.14310  0.04640  Biso   1.000  C
  C12      1.0000 0.33210  0.85690  0.95360  Biso   1.000  C
  F13      1.0000 0.58000  0.11500  0.96130  Biso   1.000  F
  F14      1.0000 0.42000  0.88500  0.03870  Biso   1.000  F
  F15      1.0000 0.56200  0.13920  0.09900  Biso   1.000  F
  F16      1.0000 0.43800  0.86080  0.90100  Biso   1.000  F
  F17      1.0000 0.74000  0.24120  0.06460  Biso   1.000  F
  F18      1.0000 0.26000  0.75880  0.93540  Biso   1.000  F
  C13      1.0000 0.77120  0.07050  0.05980  Biso   1.000  C
  C14      1.0000 0.22880  0.92950  0.94020  Biso   1.000  C
  C15      1.0000 0.77830  0.01940  0.13320  Biso   1.000  C
  C16      1.0000 0.22170  0.98060  0.86680  Biso   1.000  C
  H3       1.0000 0.71870  0.02880  0.17400  Biso   1.000  H
  H4       1.0000 0.28130  0.97120  0.82600  Biso   1.000  H
  C17      1.0000 0.87020  0.95430  0.14980  Biso   1.000  C
  C18      1.0000 0.12980  0.04570  0.85020  Biso   1.000  C
  C19      1.0000 0.86680  0.89760  0.23310  Biso   1.000  C
  C20      1.0000 0.13320  0.10240  0.76690  Biso   1.000  C
  F19      1.0000 0.99700  0.89960  0.28010  Biso   1.000  F
  F20      1.0000 0.00300  0.10040  0.71990  Biso   1.000  F
  F21      1.0000 0.80400  0.80380  0.20390  Biso   1.000  F
  F22      1.0000 0.19600  0.19620  0.79610  Biso   1.000  F
  F23      1.0000 0.83000  0.95110  0.30480  Biso   1.000  F
  F24      1.0000 0.17000  0.04890  0.69520  Biso   1.000  F
  O7       1.0000 0.95770  0.93367  0.10472  Biso   1.000  O
  O8       1.0000 0.04230  0.06633  0.89528  Biso   1.000  O
  O9       1.0000 0.56140  0.48820  0.66140  Biso   1.000  O
  O10      1.0000 0.43860  0.51180  0.33860  Biso   1.000  O
  N1       1.0000 0.66910  0.47140  0.71950  Biso   1.000  N
  N2       1.0000 0.33090  0.52860  0.28050  Biso   1.000  N
  C21      1.0000 0.67340  0.35980  0.72710  Biso   1.000  C
  C22      1.0000 0.32660  0.64020  0.27290  Biso   1.000  C
  C23      1.0000 0.55780  0.32430  0.77810  Biso   1.000  C
  C24      1.0000 0.44220  0.67570  0.22190  Biso   1.000  C
  H5       1.0000 0.46430  0.31200  0.73450  Biso   1.000  H
  H6       1.0000 0.53570  0.68800  0.26550  Biso   1.000  H
  H7       1.0000 0.56930  0.37970  0.83550  Biso   1.000  H
  H8       1.0000 0.43070  0.62030  0.16450  Biso   1.000  H
  H9       1.0000 0.56740  0.25880  0.79620  Biso   1.000  H
  H10      1.0000 0.43260  0.74120  0.20380  Biso   1.000  H
  C25      1.0000 0.63410  0.28410  0.62700  Biso   1.000  C
  C26      1.0000 0.36590  0.71590  0.37300  Biso   1.000  C
  H11      1.0000 0.70590  0.30490  0.59420  Biso   1.000  H
  H12      1.0000 0.29410  0.69510  0.40580  Biso   1.000  H
  H13      1.0000 0.54250  0.28740  0.59000  Biso   1.000  H
  H14      1.0000 0.45750  0.71260  0.41000  Biso   1.000  H
  H15      1.0000 0.62900  0.21170  0.63320  Biso   1.000  H
  H16      1.0000 0.37100  0.78830  0.36680  Biso   1.000  H
  C27      1.0000 0.82930  0.38160  0.78920  Biso   1.000  C
  C28      1.0000 0.17070  0.61840  0.21080  Biso   1.000  C
  C29      1.0000 0.93440  0.36990  0.72690  Biso   1.000  C
  C30      1.0000 0.06560  0.63010  0.27310  Biso   1.000  C
  H17      1.0000 0.02980  0.38440  0.76860  Biso   1.000  H
  H18      1.0000 0.97020  0.61560  0.23140  Biso   1.000  H
  H19      1.0000 0.93230  0.42030  0.68680  Biso   1.000  H
  H20      1.0000 0.06770  0.57970  0.31320  Biso   1.000  H
  H21      1.0000 0.90700  0.29780  0.68600  Biso   1.000  H
  H22      1.0000 0.09300  0.70220  0.31400  Biso   1.000  H
  C31      1.0000 0.85240  0.32070  0.86660  Biso   1.000  C
  C32      1.0000 0.14760  0.67930  0.13340  Biso   1.000  C
  H23      1.0000 0.78550  0.32840  0.90500  Biso   1.000  H
  H24      1.0000 0.21450  0.67160  0.09500  Biso   1.000  H
  H25      1.0000 0.94880  0.34910  0.90790  Biso   1.000  H
  H26      1.0000 0.05120  0.65090  0.09210  Biso   1.000  H
  H27      1.0000 0.83750  0.24570  0.83630  Biso   1.000  H
  H28      1.0000 0.16250  0.75430  0.16370  Biso   1.000  H
  N3       1.0000 0.86100  0.49910  0.83540  Biso   1.000  N
  N4       1.0000 0.13900  0.50090  0.16460  Biso   1.000  N
  O11      1.0000 0.97620  0.54900  0.90250  Biso   1.000  O
  O12      1.0000 0.02380  0.45100  0.09750  Biso   1.000  O
  C33      1.0000 0.76940  0.54590  0.78720  Biso   1.000  C
  C34      1.0000 0.23060  0.45410  0.21280  Biso   1.000  C
  C35      1.0000 0.78150  0.66060  0.80950  Biso   1.000  C
  C36      1.0000 0.21850  0.33940  0.19050  Biso   1.000  C
  C37      1.0000 0.88140  0.74190  0.88320  Biso   1.000  C
  C38      1.0000 0.11860  0.25810  0.11680  Biso   1.000  C
  H29      1.0000 0.95550  0.73060  0.92880  Biso   1.000  H
  H30      1.0000 0.04450  0.26940  0.07120  Biso   1.000  H
  N5       1.0000 0.85870  0.83770  0.88110  Biso   1.000  N
  N6       1.0000 0.14130  0.16230  0.11890  Biso   1.000  N
  N7       1.0000 0.74330  0.81820  0.80430  Biso   1.000  N
  N8       1.0000 0.25670  0.18180  0.19570  Biso   1.000  N
  C39      1.0000 0.69550  0.90920  0.77660  Biso   1.000  C
  C40      1.0000 0.30450  0.09080  0.22340  Biso   1.000  C
  H31      1.0000 0.67870  0.95250  0.83330  Biso   1.000  H
  H32      1.0000 0.32130  0.04750  0.16670  Biso   1.000  H
  H33      1.0000 0.77330  0.95370  0.75990  Biso   1.000  H
  H34      1.0000 0.22670  0.04630  0.24010  Biso   1.000  H
  C41      1.0000 0.56980  0.88360  0.69790  Biso   1.000  C
  C42      1.0000 0.43020  0.11640  0.30210  Biso   1.000  C
  H35      1.0000 0.49060  0.84100  0.71490  Biso   1.000  H
  H36      1.0000 0.50940  0.15900  0.28510  Biso   1.000  H
  H37      1.0000 0.58500  0.83930  0.64110  Biso   1.000  H
  H38      1.0000 0.41500  0.16070  0.35890  Biso   1.000  H
  C43      1.0000 0.52740  0.98140  0.67100  Biso   1.000  C
  C44      1.0000 0.47260  0.01860  0.32900  Biso   1.000  C
  H39      1.0000 0.51710  0.02750  0.72870  Biso   1.000  H
  H40      1.0000 0.48290  0.97250  0.27130  Biso   1.000  H
  H41      1.0000 0.60470  0.02200  0.65090  Biso   1.000  H
  H42      1.0000 0.39530  0.97800  0.34910  Biso   1.000  H
  C45      1.0000 0.39690  0.95650  0.59480  Biso   1.000  C
  C46      1.0000 0.60310  0.04350  0.40520  Biso   1.000  C
  H43      1.0000 0.37720  0.02220  0.58260  Biso   1.000  H
  H44      1.0000 0.62280  0.97780  0.41740  Biso   1.000  H
  H45      1.0000 0.31900  0.91740  0.61430  Biso   1.000  H
  H46      1.0000 0.68100  0.08260  0.38570  Biso   1.000  H
  H47      1.0000 0.40700  0.91310  0.53640  Biso   1.000  H
  H48      1.0000 0.59300  0.08690  0.46360  Biso   1.000  H
  C47      1.0000 0.69440  0.71290  0.76010  Biso   1.000  C
  C48      1.0000 0.30560  0.28710  0.23990  Biso   1.000  C
  H49      1.0000 0.61590  0.68090  0.70590  Biso   1.000  H
  H50      1.0000 0.38410  0.31910  0.29410  Biso   1.000  H
  C49      1.0000 0.37110  0.43670  0.98880  Biso   1.000  C
  C50      1.0000 0.62890  0.56330  0.01120  Biso   1.000  C
  H51      1.0000 0.28030  0.39280  0.98110  Biso   1.000  H
  H52      1.0000 0.71970  0.60720  0.01890  Biso   1.000  H
  C51      1.0000 0.48670  0.41720  0.04340  Biso   1.000  C
  C52      1.0000 0.51330  0.58280  0.95660  Biso   1.000  C
  H53      1.0000 0.47690  0.35990  0.07260  Biso   1.000  H
  H54      1.0000 0.52310  0.64010  0.92740  Biso   1.000  H
  C53      1.0000 0.61580  0.48170  0.05490  Biso   1.000  C
  C54      1.0000 0.38420  0.51830  0.94510  Biso   1.000  C
  H55      1.0000 0.69720  0.47020  0.09340  Biso   1.000  H
  H56      1.0000 0.30280  0.52980  0.90660  Biso   1.000  H
  F25      1.0000 0.73610  0.88310  0.25030  Biso   1.000  F
  F26      1.0000 0.26390  0.11690  0.74970  Biso   1.000  F
  F27      1.0000 0.86800  0.79880  0.20680  Biso   1.000  F
  F28      1.0000 0.13200  0.20120  0.79320  Biso   1.000  F
  F29      1.0000 0.96000  0.94600  0.30620  Biso   1.000  F
  F30      1.0000 0.04000  0.05400  0.69380  Biso   1.000  F
  F31      1.0000 0.11900  0.19400  0.38900  Biso   1.000  F
  F32      1.0000 0.88100  0.80600  0.61100  Biso   1.000  F
  F33      1.0000 0.05000  0.22130  0.50950  Biso   1.000  F
  F34      1.0000 0.95000  0.77870  0.49050  Biso   1.000  F
  F35      1.0000 0.24600  0.17480  0.52100  Biso   1.000  F
  F36      1.0000 0.75400  0.82520  0.47900  Biso   1.000  F
  F37      1.0000 0.05730  0.57260  0.63100  Biso   1.000  F
  F38      1.0000 0.94270  0.42740  0.36900  Biso   1.000  F
  F39      1.0000 0.21400  0.70100  0.60700  Biso   1.000  F
  F40      1.0000 0.78600  0.29900  0.39300  Biso   1.000  F
  F41      1.0000 0.26800  0.64200  0.72200  Biso   1.000  F
  F42      1.0000 0.73200  0.35800  0.27800  Biso   1.000  F
  F43      1.0000 0.61000  0.13100  0.95210  Biso   1.000  F
  F44      1.0000 0.39000  0.86900  0.04790  Biso   1.000  F
  F45      1.0000 0.58600  0.12100  0.09360  Biso   1.000  F
  F46      1.0000 0.41400  0.87900  0.90640  Biso   1.000  F
  F47      1.0000 0.73100  0.24460  0.08400  Biso   1.000  F
  F48      1.0000 0.26900  0.75540  0.91600  Biso   1.000  F
