data_image0
_cell_length_a       9.659
_cell_length_b       12.957
_cell_length_c       14.2137
_cell_angle_alpha    100.598
_cell_angle_beta     102.361
_cell_angle_gamma    101.915

_symmetry_space_group_name_H-M    "P 1"
_symmetry_int_tables_number       1

loop_
  _symmetry_equiv_pos_as_xyz
  'x, y, z'

loop_
  _atom_site_label
  _atom_site_occupancy
  _atom_site_fract_x
  _atom_site_fract_y
  _atom_site_fract_z
  _atom_site_thermal_displace_type
  _atom_site_B_iso_or_equiv
  _atom_site_type_symbol
  Cu1      1.0000 0.50000  0.50000  0.50000  Biso   1.000  Cu
  O1       1.0000 0.64946  0.63969  0.53190  Biso   1.000  O
  O2       1.0000 0.35054  0.36031  0.46810  Biso   1.000  O
  C1       1.0000 0.85070  0.77160  0.52720  Biso   1.000  C
  C2       1.0000 0.14930  0.22840  0.47280  Biso   1.000  C
  F1       1.0000 0.76700  0.84740  0.51840  Biso   1.000  F
  F2       1.0000 0.23300  0.15260  0.48160  Biso   1.000  F
  F3       1.0000 0.92560  0.79940  0.62230  Biso   1.000  F
  F4       1.0000 0.07440  0.20060  0.37770  Biso   1.000  F
  F5       1.0000 0.94600  0.78680  0.47470  Biso   1.000  F
  F6       1.0000 0.05400  0.21320  0.52530  Biso   1.000  F
  C3       1.0000 0.76120  0.65375  0.49941  Biso   1.000  C
  C4       1.0000 0.23880  0.34625  0.50059  Biso   1.000  C
  C5       1.0000 0.81100  0.57534  0.44534  Biso   1.000  C
  C6       1.0000 0.18900  0.42466  0.55466  Biso   1.000  C
  H1       1.0000 0.89180  0.59680  0.42120  Biso   1.000  H
  H2       1.0000 0.10820  0.40320  0.57880  Biso   1.000  H
  C7       1.0000 0.74290  0.46577  0.42650  Biso   1.000  C
  C8       1.0000 0.25710  0.53423  0.57350  Biso   1.000  C
  C9       1.0000 0.80180  0.38390  0.36570  Biso   1.000  C
  C10      1.0000 0.19820  0.61610  0.63430  Biso   1.000  C
  F7       1.0000 0.92070  0.42770  0.35120  Biso   1.000  F
  F8       1.0000 0.07930  0.57230  0.64880  Biso   1.000  F
  F9       1.0000 0.69700  0.33640  0.27300  Biso   1.000  F
  F10      1.0000 0.30300  0.66360  0.72700  Biso   1.000  F
  F11      1.0000 0.82600  0.30550  0.41500  Biso   1.000  F
  F12      1.0000 0.17400  0.69450  0.58500  Biso   1.000  F
  O3       1.0000 0.63166  0.42113  0.45111  Biso   1.000  O
  O4       1.0000 0.36834  0.57887  0.54889  Biso   1.000  O
  Cu2      1.0000 0.00000  0.00000  0.00000  Biso   1.000  Cu
  O5       1.0000 0.83350  0.06526  0.99658  Biso   1.000  O
  O6       1.0000 0.16650  0.93474  0.00342  Biso   1.000  O
  C11      1.0000 0.65570  0.13990  0.04810  Biso   1.000  C
  C12      1.0000 0.34430  0.86010  0.95190  Biso   1.000  C
  F13      1.0000 0.56700  0.11260  0.95840  Biso   1.000  F
  F14      1.0000 0.43300  0.88740  0.04160  Biso   1.000  F
  F15      1.0000 0.74300  0.25400  0.07600  Biso   1.000  F
  F16      1.0000 0.25700  0.74600  0.92400  Biso   1.000  F
  F17      1.0000 0.57400  0.13200  0.11000  Biso   1.000  F
  F18      1.0000 0.42600  0.86800  0.89000  Biso   1.000  F
  C13      1.0000 0.76310  0.06818  0.06135  Biso   1.000  C
  C14      1.0000 0.23690  0.93182  0.93865  Biso   1.000  C
  C15      1.0000 0.77270  0.01725  0.13861  Biso   1.000  C
  C16      1.0000 0.22730  0.98275  0.86139  Biso   1.000  C
  H3       1.0000 0.71420  0.02750  0.18180  Biso   1.000  H
  H4       1.0000 0.28580  0.97250  0.81820  Biso   1.000  H
  C17      1.0000 0.86790  0.95078  0.15374  Biso   1.000  C
  C18      1.0000 0.13210  0.04922  0.84626  Biso   1.000  C
  C19      1.0000 0.86760  0.89200  0.23810  Biso   1.000  C
  C20      1.0000 0.13240  0.10800  0.76190  Biso   1.000  C
  F19      1.0000 0.00720  0.91020  0.29790  Biso   1.000  F
  F20      1.0000 0.99280  0.08980  0.70210  Biso   1.000  F
  F21      1.0000 0.82000  0.78850  0.20350  Biso   1.000  F
  F22      1.0000 0.18000  0.21150  0.79650  Biso   1.000  F
  F23      1.0000 0.79890  0.92810  0.30430  Biso   1.000  F
  F24      1.0000 0.20110  0.07190  0.69570  Biso   1.000  F
  O7       1.0000 0.95725  0.92983  0.10579  Biso   1.000  O
  O8       1.0000 0.04275  0.07017  0.89421  Biso   1.000  O
  O9       1.0000 0.54634  0.48463  0.66446  Biso   1.000  O
  O10      1.0000 0.45366  0.51537  0.33554  Biso   1.000  O
  N1       1.0000 0.65820  0.46611  0.72132  Biso   1.000  N
  N2       1.0000 0.34180  0.53389  0.27868  Biso   1.000  N
  C21      1.0000 0.66200  0.35310  0.73169  Biso   1.000  C
  C22      1.0000 0.33800  0.64690  0.26831  Biso   1.000  C
  C23      1.0000 0.55360  0.32195  0.79140  Biso   1.000  C
  C24      1.0000 0.44640  0.67805  0.20860  Biso   1.000  C
  H5       1.0000 0.45540  0.30820  0.75090  Biso   1.000  H
  H6       1.0000 0.54460  0.69180  0.24910  Biso   1.000  H
  H7       1.0000 0.57010  0.38030  0.84840  Biso   1.000  H
  H8       1.0000 0.42990  0.61970  0.15160  Biso   1.000  H
  H9       1.0000 0.56690  0.25770  0.81270  Biso   1.000  H
  H10      1.0000 0.43310  0.74230  0.18730  Biso   1.000  H
  C25      1.0000 0.61540  0.27587  0.63031  Biso   1.000  C
  C26      1.0000 0.38460  0.72413  0.36969  Biso   1.000  C
  H11      1.0000 0.68650  0.29460  0.59420  Biso   1.000  H
  H12      1.0000 0.31350  0.70540  0.40580  Biso   1.000  H
  H13      1.0000 0.52160  0.28110  0.59480  Biso   1.000  H
  H14      1.0000 0.47840  0.71890  0.40520  Biso   1.000  H
  H15      1.0000 0.60840  0.20290  0.63760  Biso   1.000  H
  H16      1.0000 0.39160  0.79710  0.36240  Biso   1.000  H
  C27      1.0000 0.82520  0.37302  0.78789  Biso   1.000  C
  C28      1.0000 0.17480  0.62698  0.21211  Biso   1.000  C
  C29      1.0000 0.92570  0.35890  0.71960  Biso   1.000  C
  C30      1.0000 0.07430  0.64110  0.28040  Biso   1.000  C
  H17      1.0000 0.02470  0.37280  0.75880  Biso   1.000  H
  H18      1.0000 0.97530  0.62720  0.24120  Biso   1.000  H
  H19      1.0000 0.92060  0.40910  0.67770  Biso   1.000  H
  H20      1.0000 0.07940  0.59090  0.32230  Biso   1.000  H
  H21      1.0000 0.89500  0.28600  0.67930  Biso   1.000  H
  H22      1.0000 0.10500  0.71400  0.32070  Biso   1.000  H
  C31      1.0000 0.85460  0.31260  0.86913  Biso   1.000  C
  C32      1.0000 0.14540  0.68740  0.13087  Biso   1.000  C
  H23      1.0000 0.78730  0.31940  0.90940  Biso   1.000  H
  H24      1.0000 0.21270  0.68060  0.09060  Biso   1.000  H
  H25      1.0000 0.95320  0.34290  0.90960  Biso   1.000  H
  H26      1.0000 0.04680  0.65710  0.09040  Biso   1.000  H
  H27      1.0000 0.84170  0.23720  0.83970  Biso   1.000  H
  H28      1.0000 0.15830  0.76280  0.16030  Biso   1.000  H
  N3       1.0000 0.86380  0.49267  0.83415  Biso   1.000  N
  N4       1.0000 0.13620  0.50733  0.16585  Biso   1.000  N
  O11      1.0000 0.98450  0.54208  0.89833  Biso   1.000  O
  O12      1.0000 0.01550  0.45792  0.10167  Biso   1.000  O
  C33      1.0000 0.76690  0.54164  0.78752  Biso   1.000  C
  C34      1.0000 0.23310  0.45836  0.21248  Biso   1.000  C
  C35      1.0000 0.78210  0.65707  0.80768  Biso   1.000  C
  C36      1.0000 0.21790  0.34293  0.19232  Biso   1.000  C
  C37      1.0000 0.88900  0.73933  0.88035  Biso   1.000  C
  C38      1.0000 0.11100  0.26067  0.11965  Biso   1.000  C
  H29      1.0000 0.96620  0.72770  0.92530  Biso   1.000  H
  H30      1.0000 0.03380  0.27230  0.07470  Biso   1.000  H
  N5       1.0000 0.86590  0.83655  0.87680  Biso   1.000  N
  N6       1.0000 0.13410  0.16345  0.12320  Biso   1.000  N
  N7       1.0000 0.74420  0.81680  0.80119  Biso   1.000  N
  N8       1.0000 0.25580  0.18320  0.19881  Biso   1.000  N
  C39      1.0000 0.69780  0.90891  0.77036  Biso   1.000  C
  C40      1.0000 0.30220  0.09109  0.22964  Biso   1.000  C
  H31      1.0000 0.77430  0.94900  0.74670  Biso   1.000  H
  H32      1.0000 0.22570  0.05100  0.25330  Biso   1.000  H
  H33      1.0000 0.68750  0.95720  0.82780  Biso   1.000  H
  H34      1.0000 0.31250  0.04280  0.17220  Biso   1.000  H
  C41      1.0000 0.55630  0.87764  0.69075  Biso   1.000  C
  C42      1.0000 0.44370  0.12236  0.30925  Biso   1.000  C
  H35      1.0000 0.47850  0.83870  0.71410  Biso   1.000  H
  H36      1.0000 0.52150  0.16130  0.28590  Biso   1.000  H
  H37      1.0000 0.56550  0.82970  0.63260  Biso   1.000  H
  H38      1.0000 0.43450  0.17030  0.36740  Biso   1.000  H
  C43      1.0000 0.51740  0.97796  0.66299  Biso   1.000  C
  C44      1.0000 0.48260  0.02204  0.33701  Biso   1.000  C
  H39      1.0000 0.50770  0.02510  0.72140  Biso   1.000  H
  H40      1.0000 0.49230  0.97490  0.27860  Biso   1.000  H
  H41      1.0000 0.59700  0.01740  0.64150  Biso   1.000  H
  H42      1.0000 0.40300  0.98260  0.35850  Biso   1.000  H
  C45      1.0000 0.37700  0.95160  0.58170  Biso   1.000  C
  C46      1.0000 0.62300  0.04840  0.41830  Biso   1.000  C
  H43      1.0000 0.35630  0.01780  0.56890  Biso   1.000  H
  H44      1.0000 0.64370  0.98220  0.43110  Biso   1.000  H
  H45      1.0000 0.29790  0.91190  0.60220  Biso   1.000  H
  H46      1.0000 0.70210  0.08810  0.39780  Biso   1.000  H
  H47      1.0000 0.38780  0.90830  0.52250  Biso   1.000  H
  H48      1.0000 0.61220  0.09170  0.47750  Biso   1.000  H
  C47      1.0000 0.68960  0.71079  0.75839  Biso   1.000  C
  C48      1.0000 0.31040  0.28921  0.24161  Biso   1.000  C
  H49      1.0000 0.60620  0.67920  0.70600  Biso   1.000  H
  H50      1.0000 0.39380  0.32080  0.29400  Biso   1.000  H
  C49      1.0000 0.36460  0.43400  0.99070  Biso   1.000  C
  C50      1.0000 0.63540  0.56600  0.00930  Biso   1.000  C
  H51      1.0000 0.27310  0.38870  0.98430  Biso   1.000  H
  H52      1.0000 0.72690  0.61130  0.01570  Biso   1.000  H
  C51      1.0000 0.48820  0.41830  0.04920  Biso   1.000  C
  C52      1.0000 0.51180  0.58170  0.95080  Biso   1.000  C
  H53      1.0000 0.47960  0.36310  0.08280  Biso   1.000  H
  H54      1.0000 0.52040  0.63690  0.91720  Biso   1.000  H
  C53      1.0000 0.37580  0.51630  0.94160  Biso   1.000  C
  C54      1.0000 0.62420  0.48370  0.05840  Biso   1.000  C
  H55      1.0000 0.29230  0.52760  0.90280  Biso   1.000  H
  H56      1.0000 0.70770  0.47240  0.09720  Biso   1.000  H
  F25      1.0000 0.75420  0.89960  0.27530  Biso   1.000  F
  F26      1.0000 0.24580  0.10040  0.72470  Biso   1.000  F
  F27      1.0000 0.84800  0.78550  0.20490  Biso   1.000  F
  F28      1.0000 0.15200  0.21450  0.79510  Biso   1.000  F
  F29      1.0000 0.99000  0.92590  0.30230  Biso   1.000  F
  F30      1.0000 0.01000  0.07410  0.69770  Biso   1.000  F
  F31      1.0000 0.08750  0.19490  0.37660  Biso   1.000  F
  F32      1.0000 0.91250  0.80510  0.62340  Biso   1.000  F
  F33      1.0000 0.04310  0.20750  0.51930  Biso   1.000  F
  F34      1.0000 0.95690  0.79250  0.48070  Biso   1.000  F
  F35      1.0000 0.23500  0.17180  0.49820  Biso   1.000  F
  F36      1.0000 0.76500  0.82820  0.50180  Biso   1.000  F
  F37      1.0000 0.05880  0.57560  0.64600  Biso   1.000  F
  F38      1.0000 0.94120  0.42440  0.35400  Biso   1.000  F
  F39      1.0000 0.19100  0.69780  0.59500  Biso   1.000  F
  F40      1.0000 0.80900  0.30220  0.40500  Biso   1.000  F
  F41      1.0000 0.27800  0.65830  0.71870  Biso   1.000  F
  F42      1.0000 0.72200  0.34170  0.28130  Biso   1.000  F
  F43      1.0000 0.59500  0.12850  0.95050  Biso   1.000  F
  F44      1.0000 0.40500  0.87150  0.04950  Biso   1.000  F
  F45      1.0000 0.54500  0.12200  0.09400  Biso   1.000  F
  F46      1.0000 0.45500  0.87800  0.90600  Biso   1.000  F
  F47      1.0000 0.71400  0.23280  0.07400  Biso   1.000  F
  F48      1.0000 0.28600  0.76720  0.92600  Biso   1.000  F
