data_image0
_cell_length_a       9.976
_cell_length_b       12.951
_cell_length_c       13.822
_cell_angle_alpha    99.964
_cell_angle_beta     101.876
_cell_angle_gamma    103.741

_symmetry_space_group_name_H-M    "P 1"
_symmetry_int_tables_number       1

loop_
  _symmetry_equiv_pos_as_xyz
  'x, y, z'

loop_
  _atom_site_label
  _atom_site_occupancy
  _atom_site_fract_x
  _atom_site_fract_y
  _atom_site_fract_z
  _atom_site_thermal_displace_type
  _atom_site_B_iso_or_equiv
  _atom_site_type_symbol
  Cu1      1.0000 0.00000  0.00000  0.50000  Biso   1.000  Cu
  O1       1.0000 0.86700  0.07547  0.54255  Biso   1.000  O
  O2       1.0000 0.13300  0.92453  0.45745  Biso   1.000  O
  C1       1.0000 0.69730  0.11310  0.62350  Biso   1.000  C
  C2       1.0000 0.30270  0.88690  0.37650  Biso   1.000  C
  F1       1.0000 0.78906  0.16693  0.71247  Biso   1.000  F
  F2       1.0000 0.21094  0.83307  0.28753  Biso   1.000  F
  F3       1.0000 0.67550  0.18659  0.57044  Biso   1.000  F
  F4       1.0000 0.32450  0.81341  0.42956  Biso   1.000  F
  F5       1.0000 0.57325  0.06912  0.64259  Biso   1.000  F
  F6       1.0000 0.42675  0.93088  0.35741  Biso   1.000  F
  C3       1.0000 0.75680  0.03040  0.56730  Biso   1.000  C
  C4       1.0000 0.24320  0.96960  0.43270  Biso   1.000  C
  C5       1.0000 0.68740  0.92090  0.54940  Biso   1.000  C
  C6       1.0000 0.31260  0.07910  0.45060  Biso   1.000  C
  H1       1.0000 0.60750  0.89960  0.57380  Biso   1.000  H
  H2       1.0000 0.39250  0.10040  0.42620  Biso   1.000  H
  C7       1.0000 0.73400  0.84090  0.49540  Biso   1.000  C
  C8       1.0000 0.26600  0.15910  0.50460  Biso   1.000  C
  C9       1.0000 0.64070  0.72290  0.46710  Biso   1.000  C
  C10      1.0000 0.35930  0.27710  0.53290  Biso   1.000  C
  F7       1.0000 0.52810  0.69900  0.52200  Biso   1.000  F
  F8       1.0000 0.47190  0.30100  0.47800  Biso   1.000  F
  F9       1.0000 0.70900  0.65120  0.48800  Biso   1.000  F
  F10      1.0000 0.29100  0.34880  0.51200  Biso   1.000  F
  F11      1.0000 0.58400  0.70000  0.37000  Biso   1.000  F
  F12      1.0000 0.41600  0.30000  0.63000  Biso   1.000  F
  O3       1.0000 0.84410  0.85414  0.46388  Biso   1.000  O
  O4       1.0000 0.15590  0.14586  0.53612  Biso   1.000  O
  Cu2      1.0000 0.50000  0.50000  0.00000  Biso   1.000  Cu
  O5       1.0000 0.65979  0.43709  0.99882  Biso   1.000  O
  O6       1.0000 0.34021  0.56291  0.00118  Biso   1.000  O
  C11      1.0000 0.82860  0.36630  0.94130  Biso   1.000  C
  C12      1.0000 0.17140  0.63370  0.05870  Biso   1.000  C
  F13      1.0000 0.75520  0.26195  0.91835  Biso   1.000  F
  F14      1.0000 0.24480  0.73805  0.08165  Biso   1.000  F
  F15      1.0000 0.91580  0.37701  0.88031  Biso   1.000  F
  F16      1.0000 0.08420  0.62299  0.11969  Biso   1.000  F
  F17      1.0000 0.90960  0.38907  0.03589  Biso   1.000  F
  F18      1.0000 0.09040  0.61093  0.96411  Biso   1.000  F
  C13      1.0000 0.72620  0.43730  0.93150  Biso   1.000  C
  C14      1.0000 0.27380  0.56270  0.06850  Biso   1.000  C
  C15      1.0000 0.71490  0.49000  0.85280  Biso   1.000  C
  C16      1.0000 0.28510  0.51000  0.14720  Biso   1.000  C
  H3       1.0000 0.77110  0.48230  0.80750  Biso   1.000  H
  H4       1.0000 0.22890  0.51770  0.19250  Biso   1.000  H
  C17      1.0000 0.62230  0.55400  0.83930  Biso   1.000  C
  C18      1.0000 0.37770  0.44600  0.16070  Biso   1.000  C
  C19      1.0000 0.61710  0.61160  0.75150  Biso   1.000  C
  C20      1.0000 0.38290  0.38840  0.24850  Biso   1.000  C
  F19      1.0000 0.66200  0.71540  0.78510  Biso   1.000  F
  F20      1.0000 0.33800  0.28460  0.21490  Biso   1.000  F
  F21      1.0000 0.47900  0.58960  0.69370  Biso   1.000  F
  F22      1.0000 0.52100  0.41040  0.30630  Biso   1.000  F
  F23      1.0000 0.68180  0.58080  0.68240  Biso   1.000  F
  F24      1.0000 0.31820  0.41920  0.31760  Biso   1.000  F
  O7       1.0000 0.53730  0.57226  0.89084  Biso   1.000  O
  O8       1.0000 0.46270  0.42774  0.10916  Biso   1.000  O
  O9       1.0000 0.96490  0.01670  0.33812  Biso   1.000  O
  O10      1.0000 0.03510  0.98330  0.66188  Biso   1.000  O
  N1       1.0000 0.85570  0.03523  0.28183  Biso   1.000  N
  N2       1.0000 0.14430  0.96477  0.71817  Biso   1.000  N
  C21      1.0000 0.85470  0.14820  0.27020  Biso   1.000  C
  C22      1.0000 0.14530  0.85180  0.72980  Biso   1.000  C
  C23      1.0000 0.95730  0.17860  0.20510  Biso   1.000  C
  C24      1.0000 0.04270  0.82140  0.79490  Biso   1.000  C
  H5       1.0000 0.05350  0.19070  0.24390  Biso   1.000  H
  H6       1.0000 0.94650  0.80930  0.75610  Biso   1.000  H
  H7       1.0000 0.93540  0.12020  0.14600  Biso   1.000  H
  H8       1.0000 0.06460  0.87980  0.85400  Biso   1.000  H
  H9       1.0000 0.94750  0.24410  0.18440  Biso   1.000  H
  H10      1.0000 0.05250  0.75590  0.81560  Biso   1.000  H
  C25      1.0000 0.90680  0.22730  0.37390  Biso   1.000  C
  C26      1.0000 0.09320  0.77270  0.62610  Biso   1.000  C
  H11      1.0000 0.00630  0.23550  0.40130  Biso   1.000  H
  H12      1.0000 0.99370  0.76450  0.59870  Biso   1.000  H
  H13      1.0000 0.89380  0.29710  0.36720  Biso   1.000  H
  H14      1.0000 0.10620  0.70290  0.63280  Biso   1.000  H
  H15      1.0000 0.85320  0.19950  0.41870  Biso   1.000  H
  H16      1.0000 0.14680  0.80050  0.58130  Biso   1.000  H
  C27      1.0000 0.69500  0.12790  0.21660  Biso   1.000  C
  C28      1.0000 0.30500  0.87210  0.78340  Biso   1.000  C
  C29      1.0000 0.66330  0.18860  0.13410  Biso   1.000  C
  C30      1.0000 0.33670  0.81140  0.86590  Biso   1.000  C
  H17      1.0000 0.56210  0.16910  0.10530  Biso   1.000  H
  H18      1.0000 0.43790  0.83090  0.89470  Biso   1.000  H
  H19      1.0000 0.69860  0.26590  0.16280  Biso   1.000  H
  H20      1.0000 0.30140  0.73410  0.83720  Biso   1.000  H
  H21      1.0000 0.70930  0.16920  0.08190  Biso   1.000  H
  H22      1.0000 0.29070  0.83080  0.91810  Biso   1.000  H
  C31      1.0000 0.60360  0.14170  0.29070  Biso   1.000  C
  C32      1.0000 0.39640  0.85830  0.70930  Biso   1.000  C
  H23      1.0000 0.50600  0.12730  0.25350  Biso   1.000  H
  H24      1.0000 0.49400  0.87270  0.74650  Biso   1.000  H
  H25      1.0000 0.60990  0.09130  0.33370  Biso   1.000  H
  H26      1.0000 0.39010  0.90870  0.66630  Biso   1.000  H
  H27      1.0000 0.63710  0.21510  0.33170  Biso   1.000  H
  H28      1.0000 0.36290  0.78490  0.66830  Biso   1.000  H
  N3       1.0000 0.65370  0.00760  0.16934  Biso   1.000  N
  N4       1.0000 0.34630  0.99240  0.83066  Biso   1.000  N
  O11      1.0000 0.53570  0.95823  0.10421  Biso   1.000  O
  O12      1.0000 0.46430  0.04177  0.89579  Biso   1.000  O
  C33      1.0000 0.74640  0.95900  0.21560  Biso   1.000  C
  C34      1.0000 0.25360  0.04100  0.78440  Biso   1.000  C
  C35      1.0000 0.72840  0.84310  0.19540  Biso   1.000  C
  C36      1.0000 0.27160  0.15690  0.80460  Biso   1.000  C
  C37      1.0000 0.61720  0.76010  0.12400  Biso   1.000  C
  C38      1.0000 0.38280  0.23990  0.87600  Biso   1.000  C
  H29      1.0000 0.54010  0.77180  0.08110  Biso   1.000  H
  H30      1.0000 0.45990  0.22820  0.91890  Biso   1.000  H
  N5       1.0000 0.63720  0.66313  0.12618  Biso   1.000  N
  N6       1.0000 0.36280  0.33687  0.87382  Biso   1.000  N
  N7       1.0000 0.76090  0.68272  0.19938  Biso   1.000  N
  N8       1.0000 0.23910  0.31728  0.80062  Biso   1.000  N
  C39      1.0000 0.80650  0.59020  0.22730  Biso   1.000  C
  C40      1.0000 0.19350  0.40980  0.77270  Biso   1.000  C
  H31      1.0000 0.73110  0.54510  0.24900  Biso   1.000  H
  H32      1.0000 0.26890  0.45490  0.75100  Biso   1.000  H
  H33      1.0000 0.81930  0.54610  0.16750  Biso   1.000  H
  H34      1.0000 0.18070  0.45390  0.83250  Biso   1.000  H
  C41      1.0000 0.94250  0.62220  0.31040  Biso   1.000  C
  C42      1.0000 0.05750  0.37780  0.68960  Biso   1.000  C
  H35      1.0000 0.01920  0.66640  0.28920  Biso   1.000  H
  H36      1.0000 0.98080  0.33360  0.71080  Biso   1.000  H
  H37      1.0000 0.93070  0.66550  0.37100  Biso   1.000  H
  H38      1.0000 0.06930  0.33450  0.62900  Biso   1.000  H
  C43      1.0000 0.98110  0.52140  0.33410  Biso   1.000  C
  C44      1.0000 0.01890  0.47860  0.66590  Biso   1.000  C
  H39      1.0000 0.98710  0.47660  0.27220  Biso   1.000  H
  H40      1.0000 0.01290  0.52340  0.72780  Biso   1.000  H
  H41      1.0000 0.90530  0.47920  0.35750  Biso   1.000  H
  H42      1.0000 0.09470  0.52080  0.64250  Biso   1.000  H
  C45      1.0000 0.12040  0.54710  0.41360  Biso   1.000  C
  C46      1.0000 0.87960  0.45290  0.58640  Biso   1.000  C
  H43      1.0000 0.13970  0.48010  0.42420  Biso   1.000  H
  H44      1.0000 0.86030  0.51990  0.57580  Biso   1.000  H
  H45      1.0000 0.19620  0.58870  0.39100  Biso   1.000  H
  H46      1.0000 0.80380  0.41130  0.60900  Biso   1.000  H
  H47      1.0000 0.11400  0.58870  0.47620  Biso   1.000  H
  H48      1.0000 0.88600  0.41130  0.52380  Biso   1.000  H
  C47      1.0000 0.81870  0.78910  0.24170  Biso   1.000  C
  C48      1.0000 0.18130  0.21090  0.75830  Biso   1.000  C
  H49      1.0000 0.90330  0.82100  0.29240  Biso   1.000  H
  H50      1.0000 0.09670  0.17900  0.70760  Biso   1.000  H
  C49      1.0000 0.81190  0.00820  0.90140  Biso   1.000  C
  C50      1.0000 0.18810  0.99180  0.09860  Biso   1.000  C
  H51      1.0000 0.84840  0.06800  0.87280  Biso   1.000  H
  H52      1.0000 0.15160  0.93200  0.12720  Biso   1.000  H
  H53      1.0000 0.76160  0.94440  0.84770  Biso   1.000  H
  H54      1.0000 0.23840  0.05560  0.15230  Biso   1.000  H
  H55      1.0000 0.74790  0.02690  0.94010  Biso   1.000  H
  H56      1.0000 0.25210  0.97310  0.05990  Biso   1.000  H
  C51      1.0000 0.90890  0.98960  0.95580  Biso   1.000  C
  C52      1.0000 0.09110  0.01040  0.04420  Biso   1.000  C
  C53      1.0000 0.03000  0.07040  0.95770  Biso   1.000  C
  C54      1.0000 0.97000  0.92960  0.04230  Biso   1.000  C
  H57      1.0000 0.02270  0.12230  0.91640  Biso   1.000  H
  H58      1.0000 0.97730  0.87770  0.08360  Biso   1.000  H
  C55      1.0000 0.16180  0.07600  0.01930  Biso   1.000  C
  C56      1.0000 0.83820  0.92400  0.98070  Biso   1.000  C
  H59      1.0000 0.24550  0.13170  0.02060  Biso   1.000  H
  H60      1.0000 0.75450  0.86830  0.97940  Biso   1.000  H
  C57      1.0000 0.17250  0.00080  0.07900  Biso   1.000  C
  C58      1.0000 0.82750  0.99920  0.92100  Biso   1.000  C
  H61      1.0000 0.26350  0.00460  0.12160  Biso   1.000  H
  H62      1.0000 0.73650  0.99540  0.87840  Biso   1.000  H
  C59      1.0000 0.05140  0.92000  0.07710  Biso   1.000  C
  C60      1.0000 0.94860  0.08000  0.92290  Biso   1.000  C
  H63      1.0000 0.05870  0.86810  0.11840  Biso   1.000  H
  H64      1.0000 0.94130  0.13190  0.88160  Biso   1.000  H
  C61      1.0000 0.91950  0.91450  0.01550  Biso   1.000  C
  C62      1.0000 0.08050  0.08550  0.98450  Biso   1.000  C
  H65      1.0000 0.83590  0.85870  0.01420  Biso   1.000  H
  H66      1.0000 0.16410  0.14130  0.98580  Biso   1.000  H
  F25      1.0000 0.27600  0.39560  0.28970  Biso   1.000  F
  F26      1.0000 0.72400  0.60440  0.71030  Biso   1.000  F
  F27      1.0000 0.36200  0.28110  0.21630  Biso   1.000  F
  F28      1.0000 0.63800  0.71890  0.78370  Biso   1.000  F
  F29      1.0000 0.49800  0.57140  0.68670  Biso   1.000  F
  F30      1.0000 0.50200  0.42860  0.31330  Biso   1.000  F
  F31      1.0000 0.56180  0.71100  0.51800  Biso   1.000  F
  F32      1.0000 0.43820  0.28900  0.48200  Biso   1.000  F
  F33      1.0000 0.72800  0.65750  0.47400  Biso   1.000  F
  F34      1.0000 0.27200  0.34250  0.52600  Biso   1.000  F
  F35      1.0000 0.55400  0.68900  0.37000  Biso   1.000  F
  F36      1.0000 0.44600  0.31100  0.63000  Biso   1.000  F
