data_image0
_cell_length_a       10.105
_cell_length_b       12.996
_cell_length_c       14.018
_cell_angle_alpha    100.365
_cell_angle_beta     102.594
_cell_angle_gamma    103.263

_symmetry_space_group_name_H-M    "P 1"
_symmetry_int_tables_number       1

loop_
  _symmetry_equiv_pos_as_xyz
  'x, y, z'

loop_
  _atom_site_label
  _atom_site_occupancy
  _atom_site_fract_x
  _atom_site_fract_y
  _atom_site_fract_z
  _atom_site_thermal_displace_type
  _atom_site_B_iso_or_equiv
  _atom_site_type_symbol
  Cu1      1.0000 0.00000  0.00000  0.50000  Biso   1.000  Cu
  O1       1.0000 0.87410  0.07746  0.54696  Biso   1.000  O
  O2       1.0000 0.12590  0.92254  0.45304  Biso   1.000  O
  C1       1.0000 0.70280  0.11480  0.62160  Biso   1.000  C
  C2       1.0000 0.29720  0.88520  0.37840  Biso   1.000  C
  F1       1.0000 0.78990  0.17000  0.70840  Biso   1.000  F
  F2       1.0000 0.21010  0.83000  0.29160  Biso   1.000  F
  F3       1.0000 0.67000  0.17800  0.56360  Biso   1.000  F
  F4       1.0000 0.33000  0.82200  0.43640  Biso   1.000  F
  F5       1.0000 0.59800  0.07600  0.64460  Biso   1.000  F
  F6       1.0000 0.40200  0.92400  0.35540  Biso   1.000  F
  C3       1.0000 0.76530  0.03340  0.56930  Biso   1.000  C
  C4       1.0000 0.23470  0.96660  0.43070  Biso   1.000  C
  C5       1.0000 0.69820  0.92420  0.54930  Biso   1.000  C
  C6       1.0000 0.30180  0.07580  0.45070  Biso   1.000  C
  H1       1.0000 0.61800  0.90270  0.57120  Biso   1.000  H
  H2       1.0000 0.38200  0.09730  0.42880  Biso   1.000  H
  C7       1.0000 0.74460  0.84560  0.49840  Biso   1.000  C
  C8       1.0000 0.25540  0.15440  0.50160  Biso   1.000  C
  C9       1.0000 0.65550  0.72770  0.47100  Biso   1.000  C
  C10      1.0000 0.34450  0.27230  0.52900  Biso   1.000  C
  F7       1.0000 0.54590  0.70930  0.52300  Biso   1.000  F
  F8       1.0000 0.45410  0.29070  0.47700  Biso   1.000  F
  F9       1.0000 0.72900  0.66430  0.50330  Biso   1.000  F
  F10      1.0000 0.27100  0.33570  0.49670  Biso   1.000  F
  F11      1.0000 0.61000  0.69640  0.37160  Biso   1.000  F
  F12      1.0000 0.39000  0.30360  0.62840  Biso   1.000  F
  O3       1.0000 0.85320  0.85882  0.46797  Biso   1.000  O
  O4       1.0000 0.14680  0.14118  0.53203  Biso   1.000  O
  Cu2      1.0000 0.50000  0.50000  0.00000  Biso   1.000  Cu
  O5       1.0000 0.65350  0.43453  0.99832  Biso   1.000  O
  O6       1.0000 0.34650  0.56547  0.00168  Biso   1.000  O
  C11      1.0000 0.82160  0.36390  0.94400  Biso   1.000  C
  C12      1.0000 0.17840  0.63610  0.05600  Biso   1.000  C
  F13      1.0000 0.75170  0.26068  0.92040  Biso   1.000  F
  F14      1.0000 0.24830  0.73932  0.07960  Biso   1.000  F
  F15      1.0000 0.90710  0.37440  0.88610  Biso   1.000  F
  F16      1.0000 0.09290  0.62560  0.11390  Biso   1.000  F
  F17      1.0000 0.89870  0.38510  0.03720  Biso   1.000  F
  F18      1.0000 0.10130  0.61490  0.96280  Biso   1.000  F
  C13      1.0000 0.72010  0.43420  0.93310  Biso   1.000  C
  C14      1.0000 0.27990  0.56580  0.06690  Biso   1.000  C
  C15      1.0000 0.70870  0.48570  0.85590  Biso   1.000  C
  C16      1.0000 0.29130  0.51430  0.14410  Biso   1.000  C
  H3       1.0000 0.76430  0.47700  0.81180  Biso   1.000  H
  H4       1.0000 0.23570  0.52300  0.18820  Biso   1.000  H
  C17      1.0000 0.61920  0.54930  0.84070  Biso   1.000  C
  C18      1.0000 0.38080  0.45070  0.15930  Biso   1.000  C
  C19      1.0000 0.61560  0.60480  0.75360  Biso   1.000  C
  C20      1.0000 0.38440  0.39520  0.24640  Biso   1.000  C
  F19      1.0000 0.67400  0.70170  0.77780  Biso   1.000  F
  F20      1.0000 0.32600  0.29830  0.22220  Biso   1.000  F
  F21      1.0000 0.48320  0.59920  0.70650  Biso   1.000  F
  F22      1.0000 0.51680  0.40080  0.29350  Biso   1.000  F
  F23      1.0000 0.64670  0.55320  0.67730  Biso   1.000  F
  F24      1.0000 0.35330  0.44680  0.32270  Biso   1.000  F
  O7       1.0000 0.53500  0.56826  0.88985  Biso   1.000  O
  O8       1.0000 0.46500  0.43174  0.11015  Biso   1.000  O
  O9       1.0000 0.95390  0.01516  0.33646  Biso   1.000  O
  O10      1.0000 0.04610  0.98484  0.66354  Biso   1.000  O
  N1       1.0000 0.84600  0.03257  0.27983  Biso   1.000  N
  N2       1.0000 0.15400  0.96743  0.72017  Biso   1.000  N
  C21      1.0000 0.84240  0.14390  0.26980  Biso   1.000  C
  C22      1.0000 0.15760  0.85610  0.73020  Biso   1.000  C
  C23      1.0000 0.94330  0.17690  0.20810  Biso   1.000  C
  C24      1.0000 0.05670  0.82310  0.79190  Biso   1.000  C
  H5       1.0000 0.03860  0.18870  0.24710  Biso   1.000  H
  H6       1.0000 0.96140  0.81130  0.75290  Biso   1.000  H
  H7       1.0000 0.92250  0.12010  0.14830  Biso   1.000  H
  H8       1.0000 0.07750  0.87990  0.85170  Biso   1.000  H
  H9       1.0000 0.93290  0.24280  0.18960  Biso   1.000  H
  H10      1.0000 0.06710  0.75720  0.81040  Biso   1.000  H
  C25      1.0000 0.89150  0.22200  0.37220  Biso   1.000  C
  C26      1.0000 0.10850  0.77800  0.62780  Biso   1.000  C
  H11      1.0000 0.99010  0.23110  0.40060  Biso   1.000  H
  H12      1.0000 0.00990  0.76890  0.59940  Biso   1.000  H
  H13      1.0000 0.87700  0.29120  0.36580  Biso   1.000  H
  H14      1.0000 0.12300  0.70880  0.63420  Biso   1.000  H
  H15      1.0000 0.83860  0.19350  0.41550  Biso   1.000  H
  H16      1.0000 0.16140  0.80650  0.58450  Biso   1.000  H
  C27      1.0000 0.68540  0.12240  0.21580  Biso   1.000  C
  C28      1.0000 0.31460  0.87760  0.78420  Biso   1.000  C
  C29      1.0000 0.65360  0.18300  0.13490  Biso   1.000  C
  C30      1.0000 0.34640  0.81700  0.86510  Biso   1.000  C
  H17      1.0000 0.55330  0.16410  0.10600  Biso   1.000  H
  H18      1.0000 0.44670  0.83590  0.89400  Biso   1.000  H
  H19      1.0000 0.68890  0.26000  0.16400  Biso   1.000  H
  H20      1.0000 0.31110  0.74000  0.83600  Biso   1.000  H
  H21      1.0000 0.69830  0.16330  0.08330  Biso   1.000  H
  H22      1.0000 0.30170  0.83670  0.91670  Biso   1.000  H
  C31      1.0000 0.59340  0.13440  0.28810  Biso   1.000  C
  C32      1.0000 0.40660  0.86560  0.71190  Biso   1.000  C
  H23      1.0000 0.49700  0.11990  0.25010  Biso   1.000  H
  H24      1.0000 0.50300  0.88010  0.74990  Biso   1.000  H
  H25      1.0000 0.59990  0.08360  0.32960  Biso   1.000  H
  H26      1.0000 0.40010  0.91640  0.67040  Biso   1.000  H
  H27      1.0000 0.62540  0.20730  0.32980  Biso   1.000  H
  H28      1.0000 0.37460  0.79270  0.67020  Biso   1.000  H
  N3       1.0000 0.64890  0.00350  0.16770  Biso   1.000  N
  N4       1.0000 0.35110  0.99650  0.83230  Biso   1.000  N
  O11      1.0000 0.53250  0.95350  0.10330  Biso   1.000  O
  O12      1.0000 0.46750  0.04650  0.89670  Biso   1.000  O
  C33      1.0000 0.74090  0.95650  0.21350  Biso   1.000  C
  C34      1.0000 0.25910  0.04350  0.78650  Biso   1.000  C
  C35      1.0000 0.72630  0.84170  0.19270  Biso   1.000  C
  C36      1.0000 0.27370  0.15830  0.80730  Biso   1.000  C
  C37      1.0000 0.61960  0.75900  0.12010  Biso   1.000  C
  C38      1.0000 0.38040  0.24100  0.87990  Biso   1.000  C
  H29      1.0000 0.54350  0.77020  0.07650  Biso   1.000  H
  H30      1.0000 0.45650  0.22980  0.92350  Biso   1.000  H
  N5       1.0000 0.64130  0.66280  0.12170  Biso   1.000  N
  N6       1.0000 0.35870  0.33720  0.87830  Biso   1.000  N
  N7       1.0000 0.76180  0.68252  0.19582  Biso   1.000  N
  N8       1.0000 0.23820  0.31748  0.80418  Biso   1.000  N
  C39      1.0000 0.80860  0.59170  0.22180  Biso   1.000  C
  C40      1.0000 0.19140  0.40830  0.77820  Biso   1.000  C
  H31      1.0000 0.73310  0.54450  0.23950  Biso   1.000  H
  H32      1.0000 0.26690  0.45550  0.76050  Biso   1.000  H
  H33      1.0000 0.82430  0.55020  0.16260  Biso   1.000  H
  H34      1.0000 0.17570  0.44980  0.83740  Biso   1.000  H
  C41      1.0000 0.93610  0.61980  0.30400  Biso   1.000  C
  C42      1.0000 0.06390  0.38020  0.69600  Biso   1.000  C
  H35      1.0000 0.01270  0.66610  0.28670  Biso   1.000  H
  H36      1.0000 0.98730  0.33390  0.71330  Biso   1.000  H
  H37      1.0000 0.92140  0.66110  0.36380  Biso   1.000  H
  H38      1.0000 0.07860  0.33890  0.63620  Biso   1.000  H
  C43      1.0000 0.97830  0.52060  0.32750  Biso   1.000  C
  C44      1.0000 0.02170  0.47940  0.67250  Biso   1.000  C
  H39      1.0000 0.98630  0.47710  0.26620  Biso   1.000  H
  H40      1.0000 0.01370  0.52290  0.73380  Biso   1.000  H
  H41      1.0000 0.90340  0.47680  0.34840  Biso   1.000  H
  H42      1.0000 0.09660  0.52320  0.65160  Biso   1.000  H
  C45      1.0000 0.11180  0.54500  0.40630  Biso   1.000  C
  C46      1.0000 0.88820  0.45500  0.59370  Biso   1.000  C
  H43      1.0000 0.13050  0.47810  0.41660  Biso   1.000  H
  H44      1.0000 0.86950  0.52190  0.58340  Biso   1.000  H
  H45      1.0000 0.18750  0.58640  0.38570  Biso   1.000  H
  H46      1.0000 0.81250  0.41360  0.61430  Biso   1.000  H
  H47      1.0000 0.10440  0.58640  0.46800  Biso   1.000  H
  H48      1.0000 0.89560  0.41360  0.53200  Biso   1.000  H
  C47      1.0000 0.81510  0.78850  0.23880  Biso   1.000  C
  C48      1.0000 0.18490  0.21150  0.76120  Biso   1.000  C
  H49      1.0000 0.89760  0.82080  0.29060  Biso   1.000  H
  H50      1.0000 0.10240  0.17920  0.70940  Biso   1.000  H
  C49      1.0000 0.81320  0.00580  0.89130  Biso   1.000  C
  C50      1.0000 0.18680  0.99420  0.10870  Biso   1.000  C
  H51      1.0000 0.84510  0.07120  0.87010  Biso   1.000  H
  H52      1.0000 0.15490  0.92880  0.12990  Biso   1.000  H
  H53      1.0000 0.78380  0.94420  0.83450  Biso   1.000  H
  H54      1.0000 0.21620  0.05580  0.16550  Biso   1.000  H
  H55      1.0000 0.73510  0.01000  0.91890  Biso   1.000  H
  H56      1.0000 0.26490  0.99000  0.08110  Biso   1.000  H
  C51      1.0000 0.91350  0.99510  0.95800  Biso   1.000  C
  C52      1.0000 0.08650  0.00490  0.04200  Biso   1.000  C
  C53      1.0000 0.03350  0.07600  0.96300  Biso   1.000  C
  C54      1.0000 0.96650  0.92400  0.03700  Biso   1.000  C
  H57      1.0000 0.02620  0.13010  0.92520  Biso   1.000  H
  H58      1.0000 0.97380  0.86990  0.07480  Biso   1.000  H
  C55      1.0000 0.16420  0.07850  0.02270  Biso   1.000  C
  C56      1.0000 0.83580  0.92150  0.97730  Biso   1.000  C
  H59      1.0000 0.24710  0.13440  0.02610  Biso   1.000  H
  H60      1.0000 0.75290  0.86560  0.97390  Biso   1.000  H
  C57      1.0000 0.17480  0.00020  0.07740  Biso   1.000  C
  C58      1.0000 0.82520  0.99980  0.92260  Biso   1.000  C
  H61      1.0000 0.26500  0.00190  0.11860  Biso   1.000  H
  H62      1.0000 0.73500  0.99810  0.88140  Biso   1.000  H
  C59      1.0000 0.05480  0.91930  0.07240  Biso   1.000  C
  C60      1.0000 0.94520  0.08070  0.92760  Biso   1.000  C
  H63      1.0000 0.06210  0.86520  0.11020  Biso   1.000  H
  H64      1.0000 0.93790  0.13480  0.88980  Biso   1.000  H
  C61      1.0000 0.92410  0.91680  0.01280  Biso   1.000  C
  C62      1.0000 0.07590  0.08320  0.98720  Biso   1.000  C
  H65      1.0000 0.84120  0.86090  0.00930  Biso   1.000  H
  H66      1.0000 0.15880  0.13910  0.99070  Biso   1.000  H
  F25      1.0000 0.26090  0.38060  0.27070  Biso   1.000  F
  F26      1.0000 0.73910  0.61940  0.72930  Biso   1.000  F
  F27      1.0000 0.37600  0.29360  0.21540  Biso   1.000  F
  F28      1.0000 0.62400  0.70640  0.78460  Biso   1.000  F
  F29      1.0000 0.48400  0.44070  0.31640  Biso   1.000  F
  F30      1.0000 0.51600  0.55930  0.68360  Biso   1.000  F
  F31      1.0000 0.69200  0.19300  0.57600  Biso   1.000  F
  F32      1.0000 0.30800  0.80700  0.42400  Biso   1.000  F
  F33      1.0000 0.57140  0.06780  0.63520  Biso   1.000  F
  F34      1.0000 0.42860  0.93220  0.36480  Biso   1.000  F
  F35      1.0000 0.57500  0.71250  0.51320  Biso   1.000  F
  F36      1.0000 0.42500  0.28750  0.48680  Biso   1.000  F
  F37      1.0000 0.73270  0.66290  0.47700  Biso   1.000  F
  F38      1.0000 0.26730  0.33710  0.52300  Biso   1.000  F
  F39      1.0000 0.57200  0.69790  0.38110  Biso   1.000  F
  F40      1.0000 0.42800  0.30210  0.61890  Biso   1.000  F
