data_image0
_cell_length_a       9.9068
_cell_length_b       12.971
_cell_length_c       13.694
_cell_angle_alpha    99.944
_cell_angle_beta     102.506
_cell_angle_gamma    103.967

_symmetry_space_group_name_H-M    "P 1"
_symmetry_int_tables_number       1

loop_
  _symmetry_equiv_pos_as_xyz
  'x, y, z'

loop_
  _atom_site_label
  _atom_site_occupancy
  _atom_site_fract_x
  _atom_site_fract_y
  _atom_site_fract_z
  _atom_site_thermal_displace_type
  _atom_site_B_iso_or_equiv
  _atom_site_type_symbol
  Cu1      1.0000 0.00000  0.00000  0.50000  Biso   1.000  Cu
  O1       1.0000 0.14322  0.93062  0.46668  Biso   1.000  O
  O2       1.0000 0.85678  0.06938  0.53332  Biso   1.000  O
  C1       1.0000 0.30290  0.89009  0.37473  Biso   1.000  C
  C2       1.0000 0.69710  0.10991  0.62527  Biso   1.000  C
  F1       1.0000 0.20335  0.83839  0.28493  Biso   1.000  F
  F2       1.0000 0.79665  0.16161  0.71507  Biso   1.000  F
  F3       1.0000 0.32338  0.81352  0.42578  Biso   1.000  F
  F4       1.0000 0.67662  0.18648  0.57422  Biso   1.000  F
  F5       1.0000 0.42613  0.93201  0.35218  Biso   1.000  F
  F6       1.0000 0.57387  0.06799  0.64782  Biso   1.000  F
  C3       1.0000 0.25070  0.97434  0.43663  Biso   1.000  C
  C4       1.0000 0.74930  0.02566  0.56337  Biso   1.000  C
  C5       1.0000 0.32290  0.08424  0.45225  Biso   1.000  C
  C6       1.0000 0.67710  0.91576  0.54775  Biso   1.000  C
  H1       1.0000 0.40230  0.10430  0.42400  Biso   1.000  H
  H2       1.0000 0.59770  0.89570  0.57600  Biso   1.000  H
  C7       1.0000 0.28140  0.16640  0.50887  Biso   1.000  C
  C8       1.0000 0.71860  0.83360  0.49113  Biso   1.000  C
  C9       1.0000 0.38010  0.28450  0.53453  Biso   1.000  C
  C10      1.0000 0.61990  0.71550  0.46547  Biso   1.000  C
  F7       1.0000 0.47340  0.29976  0.47761  Biso   1.000  F
  F8       1.0000 0.52660  0.70024  0.52239  Biso   1.000  F
  F9       1.0000 0.30227  0.35509  0.52190  Biso   1.000  F
  F10      1.0000 0.69773  0.64491  0.47810  Biso   1.000  F
  F11      1.0000 0.45791  0.31446  0.63376  Biso   1.000  F
  F12      1.0000 0.54209  0.68554  0.36624  Biso   1.000  F
  O3       1.0000 0.17490  0.15629  0.54366  Biso   1.000  O
  O4       1.0000 0.82510  0.84371  0.45634  Biso   1.000  O
  Cu2      1.0000 0.50000  0.50000  0.00000  Biso   1.000  Cu
  O5       1.0000 0.33825  0.56107  0.00141  Biso   1.000  O
  O6       1.0000 0.66175  0.43893  0.99859  Biso   1.000  O
  C11      1.0000 0.17000  0.63199  0.06186  Biso   1.000  C
  C12      1.0000 0.83000  0.36801  0.93814  Biso   1.000  C
  F13      1.0000 0.24617  0.73705  0.08495  Biso   1.000  F
  F14      1.0000 0.75383  0.26295  0.91505  Biso   1.000  F
  F15      1.0000 0.08487  0.62134  0.12519  Biso   1.000  F
  F16      1.0000 0.91513  0.37866  0.87481  Biso   1.000  F
  F17      1.0000 0.08532  0.60847  0.96659  Biso   1.000  F
  F18      1.0000 0.91468  0.39153  0.03341  Biso   1.000  F
  C13      1.0000 0.27240  0.56068  0.07046  Biso   1.000  C
  C14      1.0000 0.72760  0.43932  0.92954  Biso   1.000  C
  C15      1.0000 0.28520  0.50690  0.14990  Biso   1.000  C
  C16      1.0000 0.71480  0.49310  0.85010  Biso   1.000  C
  H3       1.0000 0.22860  0.51400  0.19710  Biso   1.000  H
  H4       1.0000 0.77140  0.48600  0.80290  Biso   1.000  H
  C17      1.0000 0.37910  0.44276  0.16185  Biso   1.000  C
  C18      1.0000 0.62090  0.55724  0.83815  Biso   1.000  C
  C19      1.0000 0.38790  0.38500  0.25070  Biso   1.000  C
  C20      1.0000 0.61210  0.61500  0.74930  Biso   1.000  C
  F19      1.0000 0.35419  0.27703  0.21467  Biso   1.000  F
  F20      1.0000 0.64581  0.72297  0.78533  Biso   1.000  F
  F21      1.0000 0.52216  0.41700  0.31272  Biso   1.000  F
  F22      1.0000 0.47784  0.58300  0.68728  Biso   1.000  F
  F23      1.0000 0.30030  0.40299  0.30861  Biso   1.000  F
  F24      1.0000 0.69970  0.59701  0.69139  Biso   1.000  F
  O7       1.0000 0.46332  0.42525  0.10887  Biso   1.000  O
  O8       1.0000 0.53668  0.57475  0.89113  Biso   1.000  O
  O9       1.0000 0.02533  0.98374  0.65153  Biso   1.000  O
  O10      1.0000 0.97467  0.01626  0.34847  Biso   1.000  O
  N1       1.0000 0.13590  0.96401  0.70956  Biso   1.000  N
  N2       1.0000 0.86410  0.03599  0.29044  Biso   1.000  N
  C21      1.0000 0.13240  0.85097  0.72300  Biso   1.000  C
  C22      1.0000 0.86760  0.14903  0.27700  Biso   1.000  C
  C23      1.0000 0.02630  0.82300  0.78680  Biso   1.000  C
  C24      1.0000 0.97370  0.17700  0.21320  Biso   1.000  C
  H5       1.0000 0.92790  0.81200  0.74520  Biso   1.000  H
  H6       1.0000 0.07210  0.18800  0.25480  Biso   1.000  H
  H7       1.0000 0.04990  0.88310  0.84770  Biso   1.000  H
  H8       1.0000 0.95010  0.11690  0.15230  Biso   1.000  H
  H9       1.0000 0.03300  0.75590  0.80860  Biso   1.000  H
  H10      1.0000 0.96700  0.24410  0.19140  Biso   1.000  H
  C25      1.0000 0.07940  0.76940  0.61869  Biso   1.000  C
  C26      1.0000 0.92060  0.23060  0.38131  Biso   1.000  C
  H11      1.0000 0.97740  0.76200  0.58830  Biso   1.000  H
  H12      1.0000 0.02260  0.23800  0.41170  Biso   1.000  H
  H13      1.0000 0.09000  0.69820  0.62770  Biso   1.000  H
  H14      1.0000 0.91000  0.30180  0.37230  Biso   1.000  H
  H15      1.0000 0.13650  0.79560  0.57300  Biso   1.000  H
  H16      1.0000 0.86350  0.20440  0.42700  Biso   1.000  H
  C27      1.0000 0.29320  0.87068  0.77993  Biso   1.000  C
  C28      1.0000 0.70680  0.12932  0.22007  Biso   1.000  C
  C29      1.0000 0.32010  0.80990  0.86480  Biso   1.000  C
  C30      1.0000 0.67990  0.19010  0.13520  Biso   1.000  C
  H17      1.0000 0.42430  0.82760  0.89580  Biso   1.000  H
  H18      1.0000 0.57570  0.17240  0.10420  Biso   1.000  H
  H19      1.0000 0.28020  0.73100  0.83540  Biso   1.000  H
  H20      1.0000 0.71980  0.26900  0.16460  Biso   1.000  H
  H21      1.0000 0.27320  0.83210  0.91760  Biso   1.000  H
  H22      1.0000 0.72680  0.16790  0.08240  Biso   1.000  H
  C31      1.0000 0.38860  0.85530  0.70780  Biso   1.000  C
  C32      1.0000 0.61140  0.14470  0.29220  Biso   1.000  C
  H23      1.0000 0.48820  0.86880  0.74860  Biso   1.000  H
  H24      1.0000 0.51180  0.13120  0.25140  Biso   1.000  H
  H25      1.0000 0.38590  0.90690  0.66340  Biso   1.000  H
  H26      1.0000 0.61410  0.09310  0.33660  Biso   1.000  H
  H27      1.0000 0.35290  0.78040  0.66510  Biso   1.000  H
  H28      1.0000 0.64710  0.21960  0.33490  Biso   1.000  H
  N3       1.0000 0.33710  0.99124  0.82769  Biso   1.000  N
  N4       1.0000 0.66290  0.00876  0.17231  Biso   1.000  N
  O11      1.0000 0.45430  0.04054  0.89696  Biso   1.000  O
  O12      1.0000 0.54570  0.95946  0.10304  Biso   1.000  O
  C33      1.0000 0.24620  0.04107  0.77891  Biso   1.000  C
  C34      1.0000 0.75380  0.95893  0.22109  Biso   1.000  C
  C35      1.0000 0.26560  0.15649  0.80017  Biso   1.000  C
  C36      1.0000 0.73440  0.84351  0.19983  Biso   1.000  C
  C37      1.0000 0.38090  0.23984  0.87201  Biso   1.000  C
  C38      1.0000 0.61910  0.76016  0.12799  Biso   1.000  C
  H29      1.0000 0.46120  0.22770  0.91570  Biso   1.000  H
  H30      1.0000 0.53880  0.77230  0.08430  Biso   1.000  H
  N5       1.0000 0.36190  0.33722  0.87031  Biso   1.000  N
  N6       1.0000 0.63810  0.66278  0.12969  Biso   1.000  N
  N7       1.0000 0.23500  0.31748  0.79737  Biso   1.000  N
  N8       1.0000 0.76500  0.68252  0.20263  Biso   1.000  N
  C39      1.0000 0.18940  0.41060  0.76980  Biso   1.000  C
  C40      1.0000 0.81060  0.58940  0.23020  Biso   1.000  C
  H31      1.0000 0.26730  0.45740  0.74860  Biso   1.000  H
  H32      1.0000 0.73270  0.54260  0.25140  Biso   1.000  H
  H33      1.0000 0.17580  0.45480  0.83150  Biso   1.000  H
  H34      1.0000 0.82420  0.54520  0.16850  Biso   1.000  H
  C41      1.0000 0.05200  0.37791  0.68451  Biso   1.000  C
  C42      1.0000 0.94800  0.62209  0.31549  Biso   1.000  C
  H35      1.0000 0.97320  0.33100  0.70480  Biso   1.000  H
  H36      1.0000 0.02680  0.66900  0.29520  Biso   1.000  H
  H37      1.0000 0.06510  0.33520  0.62180  Biso   1.000  H
  H38      1.0000 0.93490  0.66480  0.37820  Biso   1.000  H
  C43      1.0000 0.01110  0.47850  0.66150  Biso   1.000  C
  C44      1.0000 0.98890  0.52150  0.33850  Biso   1.000  C
  H39      1.0000 0.00690  0.52390  0.72620  Biso   1.000  H
  H40      1.0000 0.99310  0.47610  0.27380  Biso   1.000  H
  H41      1.0000 0.08770  0.52230  0.63700  Biso   1.000  H
  H42      1.0000 0.91230  0.47770  0.36300  Biso   1.000  H
  C45      1.0000 0.86810  0.45270  0.58210  Biso   1.000  C
  C46      1.0000 0.13190  0.54730  0.41790  Biso   1.000  C
  H43      1.0000 0.84860  0.52100  0.57110  Biso   1.000  H
  H44      1.0000 0.15140  0.47900  0.42890  Biso   1.000  H
  H45      1.0000 0.79100  0.41090  0.60640  Biso   1.000  H
  H46      1.0000 0.20900  0.58910  0.39360  Biso   1.000  H
  H47      1.0000 0.87180  0.40940  0.51710  Biso   1.000  H
  H48      1.0000 0.12820  0.59060  0.48290  Biso   1.000  H
  C47      1.0000 0.17430  0.21101  0.75440  Biso   1.000  C
  C48      1.0000 0.82570  0.78899  0.24560  Biso   1.000  C
  H49      1.0000 0.08550  0.17870  0.70250  Biso   1.000  H
  H50      1.0000 0.91450  0.82130  0.29750  Biso   1.000  H
  C49      1.0000 0.22800  0.00050  0.11170  Biso   1.000  C
  C50      1.0000 0.77200  0.99950  0.88830  Biso   1.000  C
  H51      1.0000 0.30400  0.02600  0.08200  Biso   1.000  H
  H52      1.0000 0.69600  0.97400  0.91800  Biso   1.000  H
  H53      1.0000 0.24600  0.04600  0.18700  Biso   1.000  H
  H54      1.0000 0.75400  0.95400  0.81300  Biso   1.000  H
  H55      1.0000 0.23700  0.95700  0.11800  Biso   1.000  H
  H56      1.0000 0.76300  0.04300  0.88200  Biso   1.000  H
  C51      1.0000 0.09020  0.00470  0.04470  Biso   1.000  C
  C52      1.0000 0.90980  0.99530  0.95530  Biso   1.000  C
  C53      1.0000 0.09120  0.08280  0.98940  Biso   1.000  C
  C54      1.0000 0.90880  0.91720  0.01060  Biso   1.000  C
  H57      1.0000 0.18400  0.13800  0.99400  Biso   1.000  H
  H58      1.0000 0.81600  0.86200  0.00600  Biso   1.000  H
  C55      1.0000 0.96240  0.08990  0.92720  Biso   1.000  C
  C56      1.0000 0.03760  0.91010  0.07280  Biso   1.000  C
  H59      1.0000 0.97200  0.14900  0.89500  Biso   1.000  H
  H60      1.0000 0.02800  0.85100  0.10500  Biso   1.000  H
  C57      1.0000 0.83570  0.01560  0.92510  Biso   1.000  C
  C58      1.0000 0.16430  0.98440  0.07490  Biso   1.000  C
  H61      1.0000 0.76600  0.99800  0.87100  Biso   1.000  H
  H62      1.0000 0.23400  0.00200  0.12900  Biso   1.000  H
  C59      1.0000 0.83260  0.93600  0.97770  Biso   1.000  C
  C60      1.0000 0.16740  0.06400  0.02230  Biso   1.000  C
  H63      1.0000 0.75100  0.89400  0.97500  Biso   1.000  H
  H64      1.0000 0.24900  0.10600  0.02500  Biso   1.000  H
  C61      1.0000 0.96180  0.92930  0.03800  Biso   1.000  C
  C62      1.0000 0.03820  0.07070  0.96200  Biso   1.000  C
  H65      1.0000 0.96000  0.88600  0.06900  Biso   1.000  H
  H66      1.0000 0.04000  0.11400  0.93100  Biso   1.000  H
