data_image0
_cell_length_a       9.9513
_cell_length_b       13.03
_cell_length_c       13.74
_cell_angle_alpha    99.933
_cell_angle_beta     102.501
_cell_angle_gamma    103.927

_symmetry_space_group_name_H-M    "P 1"
_symmetry_int_tables_number       1

loop_
  _symmetry_equiv_pos_as_xyz
  'x, y, z'

loop_
  _atom_site_label
  _atom_site_occupancy
  _atom_site_fract_x
  _atom_site_fract_y
  _atom_site_fract_z
  _atom_site_thermal_displace_type
  _atom_site_B_iso_or_equiv
  _atom_site_type_symbol
  Cu1      1.0000 0.00000  0.00000  0.50000  Biso   1.000  Cu
  O1       1.0000 0.14211  0.93036  0.46618  Biso   1.000  O
  O2       1.0000 0.85789  0.06964  0.53382  Biso   1.000  O
  C1       1.0000 0.30210  0.88980  0.37532  Biso   1.000  C
  C2       1.0000 0.69790  0.11020  0.62468  Biso   1.000  C
  F1       1.0000 0.20358  0.83792  0.28555  Biso   1.000  F
  F2       1.0000 0.79642  0.16208  0.71445  Biso   1.000  F
  F3       1.0000 0.32345  0.81381  0.42649  Biso   1.000  F
  F4       1.0000 0.67655  0.18619  0.57351  Biso   1.000  F
  F5       1.0000 0.42538  0.93167  0.35260  Biso   1.000  F
  F6       1.0000 0.57462  0.06833  0.64740  Biso   1.000  F
  C3       1.0000 0.24980  0.97443  0.43617  Biso   1.000  C
  C4       1.0000 0.75020  0.02557  0.56383  Biso   1.000  C
  C5       1.0000 0.32160  0.08341  0.45205  Biso   1.000  C
  C6       1.0000 0.67840  0.91659  0.54795  Biso   1.000  C
  H1       1.0000 0.40100  0.10330  0.42430  Biso   1.000  H
  H2       1.0000 0.59900  0.89670  0.57570  Biso   1.000  H
  C7       1.0000 0.28000  0.16598  0.50840  Biso   1.000  C
  C8       1.0000 0.72000  0.83402  0.49160  Biso   1.000  C
  C9       1.0000 0.37800  0.28383  0.53417  Biso   1.000  C
  C10      1.0000 0.62200  0.71617  0.46583  Biso   1.000  C
  F7       1.0000 0.47091  0.29881  0.47757  Biso   1.000  F
  F8       1.0000 0.52909  0.70119  0.52243  Biso   1.000  F
  F9       1.0000 0.30014  0.35376  0.52122  Biso   1.000  F
  F10      1.0000 0.69986  0.64624  0.47878  Biso   1.000  F
  F11      1.0000 0.45491  0.31333  0.63318  Biso   1.000  F
  F12      1.0000 0.54509  0.68667  0.36682  Biso   1.000  F
  O3       1.0000 0.17298  0.15588  0.54294  Biso   1.000  O
  O4       1.0000 0.82702  0.84412  0.45706  Biso   1.000  O
  Cu2      1.0000 0.50000  0.50000  0.00000  Biso   1.000  Cu
  O5       1.0000 0.33924  0.56186  0.00112  Biso   1.000  O
  O6       1.0000 0.66076  0.43814  0.99888  Biso   1.000  O
  C11      1.0000 0.17040  0.63225  0.06073  Biso   1.000  C
  C12      1.0000 0.82960  0.36775  0.93927  Biso   1.000  C
  F13      1.0000 0.24600  0.73708  0.08524  Biso   1.000  F
  F14      1.0000 0.75400  0.26292  0.91476  Biso   1.000  F
  F15      1.0000 0.08403  0.62056  0.12296  Biso   1.000  F
  F16      1.0000 0.91597  0.37944  0.87704  Biso   1.000  F
  F17      1.0000 0.08808  0.61003  0.96510  Biso   1.000  F
  F18      1.0000 0.91192  0.38997  0.03490  Biso   1.000  F
  C13      1.0000 0.27330  0.56079  0.06977  Biso   1.000  C
  C14      1.0000 0.72670  0.43921  0.93023  Biso   1.000  C
  C15      1.0000 0.28460  0.50739  0.14888  Biso   1.000  C
  C16      1.0000 0.71540  0.49261  0.85112  Biso   1.000  C
  H3       1.0000 0.22750  0.51450  0.19540  Biso   1.000  H
  H4       1.0000 0.77250  0.48550  0.80460  Biso   1.000  H
  C17      1.0000 0.37870  0.44311  0.16140  Biso   1.000  C
  C18      1.0000 0.62130  0.55689  0.83860  Biso   1.000  C
  C19      1.0000 0.38630  0.38566  0.25010  Biso   1.000  C
  C20      1.0000 0.61370  0.61434  0.74990  Biso   1.000  C
  F19      1.0000 0.35451  0.27829  0.21502  Biso   1.000  F
  F20      1.0000 0.64549  0.72171  0.78498  Biso   1.000  F
  F21      1.0000 0.52010  0.41731  0.31285  Biso   1.000  F
  F22      1.0000 0.47990  0.58269  0.68715  Biso   1.000  F
  F23      1.0000 0.29870  0.40273  0.30719  Biso   1.000  F
  F24      1.0000 0.70130  0.59727  0.69281  Biso   1.000  F
  O7       1.0000 0.46328  0.42571  0.10872  Biso   1.000  O
  O8       1.0000 0.53672  0.57429  0.89128  Biso   1.000  O
  O9       1.0000 0.02649  0.98387  0.65197  Biso   1.000  O
  O10      1.0000 0.97351  0.01613  0.34803  Biso   1.000  O
  N1       1.0000 0.13700  0.96463  0.70994  Biso   1.000  N
  N2       1.0000 0.86300  0.03537  0.29006  Biso   1.000  N
  C21      1.0000 0.13410  0.85127  0.72304  Biso   1.000  C
  C22      1.0000 0.86590  0.14873  0.27696  Biso   1.000  C
  C23      1.0000 0.02870  0.82310  0.78740  Biso   1.000  C
  C24      1.0000 0.97130  0.17690  0.21260  Biso   1.000  C
  H5       1.0000 0.93050  0.81190  0.74620  Biso   1.000  H
  H6       1.0000 0.06950  0.18810  0.25380  Biso   1.000  H
  H7       1.0000 0.05220  0.88300  0.84800  Biso   1.000  H
  H8       1.0000 0.94780  0.11700  0.15200  Biso   1.000  H
  H9       1.0000 0.03600  0.75640  0.80920  Biso   1.000  H
  H10      1.0000 0.96400  0.24360  0.19080  Biso   1.000  H
  C25      1.0000 0.08150  0.77047  0.61939  Biso   1.000  C
  C26      1.0000 0.91850  0.22953  0.38061  Biso   1.000  C
  H11      1.0000 0.97990  0.76290  0.58920  Biso   1.000  H
  H12      1.0000 0.02010  0.23710  0.41080  Biso   1.000  H
  H13      1.0000 0.09260  0.69960  0.62820  Biso   1.000  H
  H14      1.0000 0.90740  0.30040  0.37180  Biso   1.000  H
  H15      1.0000 0.13810  0.79670  0.57380  Biso   1.000  H
  H16      1.0000 0.86190  0.20330  0.42620  Biso   1.000  H
  C27      1.0000 0.29530  0.87131  0.77995  Biso   1.000  C
  C28      1.0000 0.70470  0.12869  0.22005  Biso   1.000  C
  C29      1.0000 0.32240  0.81120  0.86474  Biso   1.000  C
  C30      1.0000 0.67760  0.18880  0.13526  Biso   1.000  C
  H17      1.0000 0.42610  0.82900  0.89570  Biso   1.000  H
  H18      1.0000 0.57390  0.17100  0.10430  Biso   1.000  H
  H19      1.0000 0.28290  0.73260  0.83570  Biso   1.000  H
  H20      1.0000 0.71710  0.26740  0.16430  Biso   1.000  H
  H21      1.0000 0.27570  0.83340  0.91740  Biso   1.000  H
  H22      1.0000 0.72430  0.16660  0.08260  Biso   1.000  H
  C31      1.0000 0.38970  0.85628  0.70777  Biso   1.000  C
  C32      1.0000 0.61030  0.14372  0.29223  Biso   1.000  C
  H23      1.0000 0.48900  0.86990  0.74810  Biso   1.000  H
  H24      1.0000 0.51100  0.13010  0.25190  Biso   1.000  H
  H25      1.0000 0.38630  0.90760  0.66350  Biso   1.000  H
  H26      1.0000 0.61370  0.09240  0.33650  Biso   1.000  H
  H27      1.0000 0.35430  0.78170  0.66530  Biso   1.000  H
  H28      1.0000 0.64570  0.21830  0.33470  Biso   1.000  H
  N3       1.0000 0.33820  0.99206  0.82731  Biso   1.000  N
  N4       1.0000 0.66180  0.00794  0.17269  Biso   1.000  N
  O11      1.0000 0.45570  0.04135  0.89641  Biso   1.000  O
  O12      1.0000 0.54430  0.95865  0.10359  Biso   1.000  O
  C33      1.0000 0.24690  0.04123  0.77874  Biso   1.000  C
  C34      1.0000 0.75310  0.95877  0.22126  Biso   1.000  C
  C35      1.0000 0.26640  0.15727  0.80038  Biso   1.000  C
  C36      1.0000 0.73360  0.84273  0.19962  Biso   1.000  C
  C37      1.0000 0.38060  0.24005  0.87194  Biso   1.000  C
  C38      1.0000 0.61940  0.75995  0.12806  Biso   1.000  C
  H29      1.0000 0.46040  0.22790  0.91560  Biso   1.000  H
  H30      1.0000 0.53960  0.77210  0.08440  Biso   1.000  H
  N5       1.0000 0.36190  0.33742  0.87033  Biso   1.000  N
  N6       1.0000 0.63810  0.66258  0.12967  Biso   1.000  N
  N7       1.0000 0.23490  0.31767  0.79704  Biso   1.000  N
  N8       1.0000 0.76510  0.68233  0.20296  Biso   1.000  N
  C39      1.0000 0.18940  0.41055  0.76950  Biso   1.000  C
  C40      1.0000 0.81060  0.58945  0.23050  Biso   1.000  C
  H31      1.0000 0.26670  0.45680  0.74790  Biso   1.000  H
  H32      1.0000 0.73330  0.54320  0.25210  Biso   1.000  H
  H33      1.0000 0.17650  0.45490  0.83110  Biso   1.000  H
  H34      1.0000 0.82350  0.54510  0.16890  Biso   1.000  H
  C41      1.0000 0.05220  0.37800  0.68506  Biso   1.000  C
  C42      1.0000 0.94780  0.62200  0.31494  Biso   1.000  C
  H35      1.0000 0.97410  0.33160  0.70580  Biso   1.000  H
  H36      1.0000 0.02590  0.66840  0.29420  Biso   1.000  H
  H37      1.0000 0.06460  0.33520  0.62250  Biso   1.000  H
  H38      1.0000 0.93540  0.66480  0.37750  Biso   1.000  H
  C43      1.0000 0.01100  0.47889  0.66183  Biso   1.000  C
  C44      1.0000 0.98900  0.52111  0.33817  Biso   1.000  C
  H39      1.0000 0.00710  0.52430  0.72620  Biso   1.000  H
  H40      1.0000 0.99290  0.47570  0.27380  Biso   1.000  H
  H41      1.0000 0.08680  0.52230  0.63690  Biso   1.000  H
  H42      1.0000 0.91320  0.47770  0.36310  Biso   1.000  H
  C45      1.0000 0.86780  0.45220  0.58272  Biso   1.000  C
  C46      1.0000 0.13220  0.54780  0.41728  Biso   1.000  C
  H43      1.0000 0.84770  0.51990  0.57140  Biso   1.000  H
  H44      1.0000 0.15230  0.48010  0.42860  Biso   1.000  H
  H45      1.0000 0.79170  0.41070  0.60750  Biso   1.000  H
  H46      1.0000 0.20830  0.58930  0.39250  Biso   1.000  H
  H47      1.0000 0.87150  0.40880  0.51810  Biso   1.000  H
  H48      1.0000 0.12850  0.59120  0.48190  Biso   1.000  H
  C47      1.0000 0.17450  0.21115  0.75427  Biso   1.000  C
  C48      1.0000 0.82550  0.78885  0.24573  Biso   1.000  C
  H49      1.0000 0.08620  0.17870  0.70260  Biso   1.000  H
  H50      1.0000 0.91380  0.82130  0.29740  Biso   1.000  H
  C49      1.0000 0.22950  0.99990  0.11290  Biso   1.000  C
  C50      1.0000 0.77050  0.00010  0.88710  Biso   1.000  C
  H51      1.0000 0.30100  0.01100  0.07600  Biso   1.000  H
  H52      1.0000 0.69900  0.98900  0.92400  Biso   1.000  H
  H53      1.0000 0.25000  0.05000  0.19500  Biso   1.000  H
  H54      1.0000 0.75000  0.95000  0.80500  Biso   1.000  H
  H55      1.0000 0.23100  0.94400  0.11600  Biso   1.000  H
  H56      1.0000 0.76900  0.05600  0.88400  Biso   1.000  H
  C51      1.0000 0.09070  0.00420  0.04600  Biso   1.000  C
  C52      1.0000 0.90930  0.99580  0.95400  Biso   1.000  C
  C53      1.0000 0.09160  0.08180  0.98900  Biso   1.000  C
  C54      1.0000 0.90840  0.91820  0.01100  Biso   1.000  C
  H57      1.0000 0.18800  0.14800  0.99200  Biso   1.000  H
  H58      1.0000 0.81200  0.85200  0.00800  Biso   1.000  H
  C55      1.0000 0.96280  0.08770  0.92780  Biso   1.000  C
  C56      1.0000 0.03720  0.91230  0.07220  Biso   1.000  C
  H59      1.0000 0.96900  0.14700  0.88700  Biso   1.000  H
  H60      1.0000 0.03100  0.85300  0.11300  Biso   1.000  H
  C57      1.0000 0.83410  0.01490  0.92310  Biso   1.000  C
  C58      1.0000 0.16590  0.98510  0.07690  Biso   1.000  C
  H61      1.0000 0.75700  0.99100  0.85300  Biso   1.000  H
  H62      1.0000 0.24300  0.00900  0.14700  Biso   1.000  H
  C59      1.0000 0.83380  0.93480  0.97730  Biso   1.000  C
  C60      1.0000 0.16620  0.06520  0.02270  Biso   1.000  C
  H63      1.0000 0.75100  0.88300  0.97400  Biso   1.000  H
  H64      1.0000 0.24900  0.11700  0.02600  Biso   1.000  H
  C61      1.0000 0.96130  0.92760  0.03750  Biso   1.000  C
  C62      1.0000 0.03870  0.07240  0.96250  Biso   1.000  C
  H65      1.0000 0.97500  0.87900  0.07500  Biso   1.000  H
  H66      1.0000 0.02500  0.12100  0.92500  Biso   1.000  H
