data_image0
_cell_length_a       10.355
_cell_length_b       13.124
_cell_length_c       14.259
_cell_angle_alpha    100.45
_cell_angle_beta     102.884
_cell_angle_gamma    104.729

_symmetry_space_group_name_H-M    "P 1"
_symmetry_int_tables_number       1

loop_
  _symmetry_equiv_pos_as_xyz
  'x, y, z'

loop_
  _atom_site_label
  _atom_site_occupancy
  _atom_site_fract_x
  _atom_site_fract_y
  _atom_site_fract_z
  _atom_site_thermal_displace_type
  _atom_site_B_iso_or_equiv
  _atom_site_type_symbol
  Cu1      1.0000 0.00000  0.00000  0.50000  Biso   1.000  Cu
  O1       1.0000 0.14670  0.14360  0.53422  Biso   1.000  O
  O2       1.0000 0.85330  0.85640  0.46578  Biso   1.000  O
  C1       1.0000 0.34460  0.27810  0.53570  Biso   1.000  C
  C2       1.0000 0.65540  0.72190  0.46430  Biso   1.000  C
  F1       1.0000 0.42500  0.30900  0.62680  Biso   1.000  F
  F2       1.0000 0.57500  0.69100  0.37320  Biso   1.000  F
  F3       1.0000 0.27000  0.34170  0.52700  Biso   1.000  F
  F4       1.0000 0.73000  0.65830  0.47300  Biso   1.000  F
  F5       1.0000 0.43400  0.29100  0.47700  Biso   1.000  F
  F6       1.0000 0.56600  0.70900  0.52300  Biso   1.000  F
  C3       1.0000 0.25550  0.15870  0.50690  Biso   1.000  C
  C4       1.0000 0.74450  0.84130  0.49310  Biso   1.000  C
  C5       1.0000 0.30360  0.08060  0.45820  Biso   1.000  C
  C6       1.0000 0.69640  0.91940  0.54180  Biso   1.000  C
  H1       1.0000 0.38530  0.10360  0.43910  Biso   1.000  H
  H2       1.0000 0.61470  0.89640  0.56090  Biso   1.000  H
  C7       1.0000 0.23490  0.97000  0.43690  Biso   1.000  C
  C8       1.0000 0.76510  0.03000  0.56310  Biso   1.000  C
  C9       1.0000 0.29820  0.88940  0.38840  Biso   1.000  C
  C10      1.0000 0.70180  0.11060  0.61160  Biso   1.000  C
  F7       1.0000 0.32320  0.82340  0.44340  Biso   1.000  F
  F8       1.0000 0.67680  0.17660  0.55660  Biso   1.000  F
  F9       1.0000 0.21090  0.82870  0.30170  Biso   1.000  F
  F10      1.0000 0.78910  0.17130  0.69830  Biso   1.000  F
  F11      1.0000 0.41850  0.93530  0.37230  Biso   1.000  F
  F12      1.0000 0.58150  0.06470  0.62770  Biso   1.000  F
  O3       1.0000 0.12450  0.92390  0.45469  Biso   1.000  O
  O4       1.0000 0.87550  0.07610  0.54531  Biso   1.000  O
  Cu2      1.0000 0.50000  0.50000  0.00000  Biso   1.000  Cu
  O5       1.0000 0.34830  0.56130  0.00641  Biso   1.000  O
  O6       1.0000 0.65170  0.43870  0.99359  Biso   1.000  O
  C11      1.0000 0.19070  0.63150  0.06740  Biso   1.000  C
  C12      1.0000 0.80930  0.36850  0.93260  Biso   1.000  C
  F13      1.0000 0.11160  0.61320  0.97580  Biso   1.000  F
  F14      1.0000 0.88840  0.38680  0.02420  Biso   1.000  F
  F15      1.0000 0.10800  0.61970  0.12560  Biso   1.000  F
  F16      1.0000 0.89200  0.38030  0.87440  Biso   1.000  F
  F17      1.0000 0.26480  0.73590  0.09350  Biso   1.000  F
  F18      1.0000 0.73520  0.26410  0.90650  Biso   1.000  F
  C13      1.0000 0.28760  0.56090  0.07380  Biso   1.000  C
  C14      1.0000 0.71240  0.43910  0.92620  Biso   1.000  C
  C15      1.0000 0.30170  0.50940  0.14960  Biso   1.000  C
  C16      1.0000 0.69830  0.49060  0.85040  Biso   1.000  C
  H3       1.0000 0.24970  0.51800  0.19500  Biso   1.000  H
  H4       1.0000 0.75030  0.48200  0.80500  Biso   1.000  H
  C17      1.0000 0.38870  0.44540  0.16220  Biso   1.000  C
  C18      1.0000 0.61130  0.55460  0.83780  Biso   1.000  C
  C19      1.0000 0.39580  0.39040  0.24830  Biso   1.000  C
  C20      1.0000 0.60420  0.60960  0.75170  Biso   1.000  C
  F19      1.0000 0.37700  0.28770  0.21700  Biso   1.000  F
  F20      1.0000 0.62300  0.71230  0.78300  Biso   1.000  F
  F21      1.0000 0.50900  0.43100  0.31280  Biso   1.000  F
  F22      1.0000 0.49100  0.56900  0.68720  Biso   1.000  F
  F23      1.0000 0.28240  0.38410  0.28200  Biso   1.000  F
  F24      1.0000 0.71760  0.61590  0.71800  Biso   1.000  F
  O7       1.0000 0.46910  0.42670  0.11130  Biso   1.000  O
  O8       1.0000 0.53090  0.57330  0.88870  Biso   1.000  O
  O9       1.0000 0.04540  0.98350  0.66125  Biso   1.000  O
  O10      1.0000 0.95460  0.01650  0.33875  Biso   1.000  O
  N1       1.0000 0.15000  0.96770  0.71950  Biso   1.000  N
  N2       1.0000 0.85000  0.03230  0.28050  Biso   1.000  N
  C21      1.0000 0.15110  0.85500  0.72830  Biso   1.000  C
  C22      1.0000 0.84890  0.14500  0.27170  Biso   1.000  C
  C23      1.0000 0.10790  0.77830  0.62640  Biso   1.000  C
  C24      1.0000 0.89210  0.22170  0.37360  Biso   1.000  C
  H5       1.0000 0.01080  0.76770  0.59440  Biso   1.000  H
  H6       1.0000 0.98920  0.23230  0.40560  Biso   1.000  H
  H7       1.0000 0.16480  0.80910  0.58670  Biso   1.000  H
  H8       1.0000 0.83520  0.19090  0.41330  Biso   1.000  H
  H9       1.0000 0.12050  0.70880  0.63260  Biso   1.000  H
  H10      1.0000 0.87950  0.29120  0.36740  Biso   1.000  H
  C25      1.0000 0.04360  0.81900  0.78330  Biso   1.000  C
  C26      1.0000 0.95640  0.18100  0.21670  Biso   1.000  C
  H11      1.0000 0.95090  0.80650  0.74060  Biso   1.000  H
  H12      1.0000 0.04910  0.19350  0.25940  Biso   1.000  H
  H13      1.0000 0.05020  0.75220  0.80110  Biso   1.000  H
  H14      1.0000 0.94980  0.24780  0.19890  Biso   1.000  H
  H15      1.0000 0.06130  0.87540  0.84310  Biso   1.000  H
  H16      1.0000 0.93870  0.12460  0.15690  Biso   1.000  H
  C27      1.0000 0.30670  0.87870  0.78750  Biso   1.000  C
  C28      1.0000 0.69330  0.12130  0.21250  Biso   1.000  C
  C29      1.0000 0.40250  0.86900  0.71920  Biso   1.000  C
  C30      1.0000 0.59750  0.13100  0.28080  Biso   1.000  C
  H17      1.0000 0.49720  0.88420  0.75970  Biso   1.000  H
  H18      1.0000 0.50280  0.11580  0.24030  Biso   1.000  H
  H19      1.0000 0.37060  0.79580  0.67640  Biso   1.000  H
  H20      1.0000 0.62940  0.20420  0.32360  Biso   1.000  H
  H21      1.0000 0.39970  0.92090  0.67880  Biso   1.000  H
  H22      1.0000 0.60030  0.07910  0.32120  Biso   1.000  H
  C31      1.0000 0.32960  0.81730  0.86720  Biso   1.000  C
  C32      1.0000 0.67040  0.18270  0.13280  Biso   1.000  C
  H23      1.0000 0.42850  0.83680  0.89990  Biso   1.000  H
  H24      1.0000 0.57150  0.16320  0.10010  Biso   1.000  H
  H25      1.0000 0.28170  0.83610  0.91580  Biso   1.000  H
  H26      1.0000 0.71830  0.16390  0.08420  Biso   1.000  H
  H27      1.0000 0.29340  0.73950  0.83690  Biso   1.000  H
  H28      1.0000 0.70660  0.26050  0.16310  Biso   1.000  H
  N3       1.0000 0.34290  0.99740  0.83580  Biso   1.000  N
  N4       1.0000 0.65710  0.00260  0.16420  Biso   1.000  N
  O11      1.0000 0.45720  0.04920  0.90230  Biso   1.000  O
  O12      1.0000 0.54280  0.95080  0.09770  Biso   1.000  O
  C33      1.0000 0.25300  0.04440  0.78820  Biso   1.000  C
  C34      1.0000 0.74700  0.95560  0.21180  Biso   1.000  C
  C35      1.0000 0.26950  0.16110  0.81040  Biso   1.000  C
  C36      1.0000 0.73050  0.83890  0.18960  Biso   1.000  C
  C37      1.0000 0.37610  0.24390  0.88310  Biso   1.000  C
  C38      1.0000 0.62390  0.75610  0.11690  Biso   1.000  C
  H29      1.0000 0.45100  0.23300  0.92680  Biso   1.000  H
  H30      1.0000 0.54900  0.76700  0.07320  Biso   1.000  H
  N5       1.0000 0.35760  0.34030  0.88210  Biso   1.000  N
  N6       1.0000 0.64240  0.65970  0.11790  Biso   1.000  N
  N7       1.0000 0.23920  0.31920  0.80690  Biso   1.000  N
  N8       1.0000 0.76080  0.68080  0.19310  Biso   1.000  N
  C39      1.0000 0.19450  0.41090  0.78150  Biso   1.000  C
  C40      1.0000 0.80550  0.58910  0.21850  Biso   1.000  C
  H31      1.0000 0.27020  0.45910  0.76460  Biso   1.000  H
  H32      1.0000 0.72980  0.54090  0.23540  Biso   1.000  H
  H33      1.0000 0.18030  0.45240  0.84070  Biso   1.000  H
  H34      1.0000 0.81970  0.54760  0.15930  Biso   1.000  H
  C41      1.0000 0.06750  0.38200  0.69950  Biso   1.000  C
  C42      1.0000 0.93250  0.61800  0.30050  Biso   1.000  C
  H35      1.0000 0.08070  0.34070  0.63970  Biso   1.000  H
  H36      1.0000 0.91930  0.65930  0.36030  Biso   1.000  H
  H37      1.0000 0.99070  0.33470  0.71610  Biso   1.000  H
  H38      1.0000 0.00930  0.66530  0.28390  Biso   1.000  H
  C43      1.0000 0.02840  0.48050  0.67720  Biso   1.000  C
  C44      1.0000 0.97160  0.51950  0.32280  Biso   1.000  C
  H39      1.0000 0.10280  0.52480  0.65610  Biso   1.000  H
  H40      1.0000 0.89720  0.47520  0.34390  Biso   1.000  H
  H41      1.0000 0.02300  0.52460  0.73860  Biso   1.000  H
  H42      1.0000 0.97700  0.47540  0.26140  Biso   1.000  H
  C45      1.0000 0.89580  0.45490  0.60010  Biso   1.000  C
  C46      1.0000 0.10420  0.54510  0.39990  Biso   1.000  C
  H43      1.0000 0.87830  0.52210  0.59060  Biso   1.000  H
  H44      1.0000 0.12170  0.47790  0.40940  Biso   1.000  H
  H45      1.0000 0.90090  0.41330  0.53820  Biso   1.000  H
  H46      1.0000 0.09910  0.58670  0.46180  Biso   1.000  H
  H47      1.0000 0.82080  0.41250  0.62080  Biso   1.000  H
  H48      1.0000 0.17920  0.58750  0.37920  Biso   1.000  H
  C47      1.0000 0.18410  0.21330  0.76310  Biso   1.000  C
  C48      1.0000 0.81590  0.78670  0.23690  Biso   1.000  C
  H49      1.0000 0.10260  0.18020  0.71000  Biso   1.000  H
  H50      1.0000 0.89740  0.81980  0.29000  Biso   1.000  H
  C49      1.0000 0.06350  0.00540  0.02160  Biso   1.000  C
  C50      1.0000 0.93650  0.99460  0.97840  Biso   1.000  C
  C51      1.0000 0.93480  0.93530  0.01250  Biso   1.000  C
  C52      1.0000 0.06520  0.06470  0.98750  Biso   1.000  C
  H51      1.0000 0.92800  0.87400  0.04110  Biso   1.000  H
  H52      1.0000 0.07200  0.12600  0.95890  Biso   1.000  H
  C53      1.0000 0.81570  0.95320  0.96220  Biso   1.000  C
  C54      1.0000 0.18430  0.04680  0.03780  Biso   1.000  C
  H53      1.0000 0.72600  0.90430  0.95590  Biso   1.000  H
  H54      1.0000 0.27400  0.09570  0.04410  Biso   1.000  H
  C55      1.0000 0.82520  0.04110  0.92110  Biso   1.000  C
  C56      1.0000 0.17480  0.95890  0.07890  Biso   1.000  C
  H55      1.0000 0.74220  0.05350  0.88610  Biso   1.000  H
  H56      1.0000 0.25780  0.94650  0.11390  Biso   1.000  H
  C57      1.0000 0.95380  0.11120  0.93010  Biso   1.000  C
  C58      1.0000 0.04620  0.88880  0.06990  Biso   1.000  C
  H57      1.0000 0.96070  0.17250  0.90150  Biso   1.000  H
  H58      1.0000 0.03930  0.82750  0.09850  Biso   1.000  H
  C59      1.0000 0.07300  0.09330  0.98040  Biso   1.000  C
  C60      1.0000 0.92700  0.90670  0.01960  Biso   1.000  C
  H59      1.0000 0.16270  0.14230  0.98670  Biso   1.000  H
  H60      1.0000 0.83730  0.85770  0.01330  Biso   1.000  H
  C61      1.0000 0.17660  0.96710  0.07880  Biso   1.000  C
  C62      1.0000 0.82340  0.03290  0.92120  Biso   1.000  C
  H61      1.0000 0.26050  0.99010  0.05970  Biso   1.000  H
  H62      1.0000 0.73950  0.00990  0.94030  Biso   1.000  H
  H63      1.0000 0.14720  0.88910  0.06540  Biso   1.000  H
  H64      1.0000 0.85280  0.11090  0.93460  Biso   1.000  H
  C63      1.0000 0.20410  0.02290  0.19980  Biso   1.000  C
  C64      1.0000 0.79590  0.97710  0.80020  Biso   1.000  C
  H65      1.0000 0.27520  0.00060  0.23870  Biso   1.000  H
  H66      1.0000 0.72480  0.99940  0.76130  Biso   1.000  H
  H67      1.0000 0.23340  0.10080  0.21210  Biso   1.000  H
  H68      1.0000 0.76660  0.89920  0.78790  Biso   1.000  H
  H69      1.0000 0.11950  0.99920  0.21780  Biso   1.000  H
  H70      1.0000 0.88050  0.00080  0.78220  Biso   1.000  H
  F25      1.0000 0.47440  0.60340  0.70400  Biso   1.000  F
  F26      1.0000 0.52560  0.39660  0.29600  Biso   1.000  F
  F27      1.0000 0.36600  0.44300  0.32430  Biso   1.000  F
  F28      1.0000 0.63400  0.55700  0.67570  Biso   1.000  F
  F29      1.0000 0.33400  0.29040  0.22000  Biso   1.000  F
  F30      1.0000 0.66600  0.70960  0.78000  Biso   1.000  F
  F31      1.0000 0.61500  0.68700  0.36800  Biso   1.000  F
  F32      1.0000 0.38500  0.31300  0.63200  Biso   1.000  F
  F33      1.0000 0.72500  0.66000  0.49900  Biso   1.000  F
  F34      1.0000 0.27500  0.34000  0.50100  Biso   1.000  F
  F35      1.0000 0.54600  0.69800  0.49200  Biso   1.000  F
  F36      1.0000 0.45400  0.30200  0.50800  Biso   1.000  F
