data_image0
_cell_length_a       10.453
_cell_length_b       13.234
_cell_length_c       14.385
_cell_angle_alpha    100.422
_cell_angle_beta     103.107
_cell_angle_gamma    104.624

_symmetry_space_group_name_H-M    "P 1"
_symmetry_int_tables_number       1

loop_
  _symmetry_equiv_pos_as_xyz
  'x, y, z'

loop_
  _atom_site_label
  _atom_site_occupancy
  _atom_site_fract_x
  _atom_site_fract_y
  _atom_site_fract_z
  _atom_site_thermal_displace_type
  _atom_site_B_iso_or_equiv
  _atom_site_type_symbol
  Cu1      1.0000 0.00000  0.00000  0.50000  Biso   1.000  Cu
  O1       1.0000 0.14670  0.14292  0.53388  Biso   1.000  O
  O2       1.0000 0.85330  0.85708  0.46612  Biso   1.000  O
  C1       1.0000 0.34280  0.27680  0.53480  Biso   1.000  C
  C2       1.0000 0.65720  0.72320  0.46520  Biso   1.000  C
  F1       1.0000 0.42400  0.30840  0.62580  Biso   1.000  F
  F2       1.0000 0.57600  0.69160  0.37420  Biso   1.000  F
  F3       1.0000 0.27030  0.34020  0.52140  Biso   1.000  F
  F4       1.0000 0.72970  0.65980  0.47860  Biso   1.000  F
  F5       1.0000 0.43200  0.30210  0.47940  Biso   1.000  F
  F6       1.0000 0.56800  0.69790  0.52060  Biso   1.000  F
  C3       1.0000 0.25460  0.15700  0.50640  Biso   1.000  C
  C4       1.0000 0.74540  0.84300  0.49360  Biso   1.000  C
  C5       1.0000 0.30160  0.07940  0.45840  Biso   1.000  C
  C6       1.0000 0.69840  0.92060  0.54160  Biso   1.000  C
  H1       1.0000 0.38240  0.10190  0.43950  Biso   1.000  H
  H2       1.0000 0.61760  0.89810  0.56050  Biso   1.000  H
  C7       1.0000 0.23310  0.96920  0.43720  Biso   1.000  C
  C8       1.0000 0.76690  0.03080  0.56280  Biso   1.000  C
  C9       1.0000 0.29600  0.88910  0.38820  Biso   1.000  C
  C10      1.0000 0.70400  0.11090  0.61180  Biso   1.000  C
  F7       1.0000 0.32140  0.82360  0.44370  Biso   1.000  F
  F8       1.0000 0.67860  0.17640  0.55630  Biso   1.000  F
  F9       1.0000 0.20840  0.82780  0.30260  Biso   1.000  F
  F10      1.0000 0.79160  0.17220  0.69740  Biso   1.000  F
  F11      1.0000 0.41540  0.93450  0.37240  Biso   1.000  F
  F12      1.0000 0.58460  0.06550  0.62760  Biso   1.000  F
  O3       1.0000 0.12330  0.92353  0.45450  Biso   1.000  O
  O4       1.0000 0.87670  0.07647  0.54550  Biso   1.000  O
  Cu2      1.0000 0.50000  0.50000  0.00000  Biso   1.000  Cu
  O5       1.0000 0.35040  0.56246  0.00640  Biso   1.000  O
  O6       1.0000 0.64960  0.43754  0.99360  Biso   1.000  O
  C11      1.0000 0.19260  0.63230  0.06600  Biso   1.000  C
  C12      1.0000 0.80740  0.36770  0.93400  Biso   1.000  C
  F13      1.0000 0.11460  0.61490  0.97580  Biso   1.000  F
  F14      1.0000 0.88540  0.38510  0.02420  Biso   1.000  F
  F15      1.0000 0.11050  0.62080  0.12370  Biso   1.000  F
  F16      1.0000 0.88950  0.37920  0.87630  Biso   1.000  F
  F17      1.0000 0.26520  0.73590  0.09250  Biso   1.000  F
  F18      1.0000 0.73480  0.26410  0.90750  Biso   1.000  F
  C13      1.0000 0.28910  0.56190  0.07310  Biso   1.000  C
  C14      1.0000 0.71090  0.43810  0.92690  Biso   1.000  C
  C15      1.0000 0.30280  0.51040  0.14830  Biso   1.000  C
  C16      1.0000 0.69720  0.48960  0.85170  Biso   1.000  C
  H3       1.0000 0.25070  0.51840  0.19300  Biso   1.000  H
  H4       1.0000 0.74930  0.48160  0.80700  Biso   1.000  H
  C17      1.0000 0.39060  0.44660  0.16120  Biso   1.000  C
  C18      1.0000 0.60940  0.55340  0.83880  Biso   1.000  C
  C19      1.0000 0.39590  0.39140  0.24640  Biso   1.000  C
  C20      1.0000 0.60410  0.60860  0.75360  Biso   1.000  C
  F19      1.0000 0.38500  0.29160  0.21290  Biso   1.000  F
  F20      1.0000 0.61500  0.70840  0.78710  Biso   1.000  F
  F21      1.0000 0.50400  0.43210  0.31320  Biso   1.000  F
  F22      1.0000 0.49600  0.56790  0.68680  Biso   1.000  F
  F23      1.0000 0.27920  0.37840  0.27510  Biso   1.000  F
  F24      1.0000 0.72080  0.62160  0.72490  Biso   1.000  F
  O7       1.0000 0.46970  0.42787  0.11088  Biso   1.000  O
  O8       1.0000 0.53030  0.57213  0.88912  Biso   1.000  O
  O9       1.0000 0.04660  0.98357  0.66127  Biso   1.000  O
  O10      1.0000 0.95340  0.01643  0.33873  Biso   1.000  O
  N1       1.0000 0.15130  0.96820  0.71940  Biso   1.000  N
  N2       1.0000 0.84870  0.03180  0.28060  Biso   1.000  N
  C21      1.0000 0.15270  0.85610  0.72780  Biso   1.000  C
  C22      1.0000 0.84730  0.14390  0.27220  Biso   1.000  C
  C23      1.0000 0.11010  0.77920  0.62650  Biso   1.000  C
  C24      1.0000 0.88990  0.22080  0.37350  Biso   1.000  C
  H5       1.0000 0.17680  0.80250  0.59160  Biso   1.000  H
  H6       1.0000 0.82320  0.19750  0.40840  Biso   1.000  H
  H7       1.0000 0.10630  0.70700  0.63340  Biso   1.000  H
  H8       1.0000 0.89370  0.29300  0.36660  Biso   1.000  H
  H9       1.0000 0.01980  0.77890  0.58970  Biso   1.000  H
  H10      1.0000 0.98020  0.22110  0.41030  Biso   1.000  H
  C25      1.0000 0.04720  0.81990  0.78330  Biso   1.000  C
  C26      1.0000 0.95280  0.18010  0.21670  Biso   1.000  C
  H11      1.0000 0.95480  0.80720  0.74140  Biso   1.000  H
  H12      1.0000 0.04520  0.19280  0.25860  Biso   1.000  H
  H13      1.0000 0.05480  0.75380  0.80090  Biso   1.000  H
  H14      1.0000 0.94520  0.24620  0.19910  Biso   1.000  H
  H15      1.0000 0.06520  0.87580  0.84270  Biso   1.000  H
  H16      1.0000 0.93480  0.12420  0.15730  Biso   1.000  H
  C27      1.0000 0.30740  0.88040  0.78760  Biso   1.000  C
  C28      1.0000 0.69260  0.11960  0.21240  Biso   1.000  C
  C29      1.0000 0.40350  0.87150  0.72010  Biso   1.000  C
  C30      1.0000 0.59650  0.12850  0.27990  Biso   1.000  C
  H17      1.0000 0.49740  0.88700  0.76060  Biso   1.000  H
  H18      1.0000 0.50260  0.11300  0.23940  Biso   1.000  H
  H19      1.0000 0.37260  0.79900  0.67750  Biso   1.000  H
  H20      1.0000 0.62740  0.20100  0.32250  Biso   1.000  H
  H21      1.0000 0.40030  0.92300  0.68010  Biso   1.000  H
  H22      1.0000 0.59970  0.07700  0.31990  Biso   1.000  H
  C31      1.0000 0.33200  0.81860  0.86610  Biso   1.000  C
  C32      1.0000 0.66800  0.18140  0.13390  Biso   1.000  C
  H23      1.0000 0.43020  0.83830  0.89820  Biso   1.000  H
  H24      1.0000 0.56980  0.16170  0.10180  Biso   1.000  H
  H25      1.0000 0.28500  0.83650  0.91470  Biso   1.000  H
  H26      1.0000 0.71500  0.16350  0.08530  Biso   1.000  H
  H27      1.0000 0.29650  0.74170  0.83550  Biso   1.000  H
  H28      1.0000 0.70350  0.25830  0.16450  Biso   1.000  H
  N3       1.0000 0.34250  0.99900  0.83570  Biso   1.000  N
  N4       1.0000 0.65750  0.00100  0.16430  Biso   1.000  N
  O11      1.0000 0.45570  0.05060  0.90270  Biso   1.000  O
  O12      1.0000 0.54430  0.94940  0.09730  Biso   1.000  O
  C33      1.0000 0.25300  0.04490  0.78810  Biso   1.000  C
  C34      1.0000 0.74700  0.95510  0.21190  Biso   1.000  C
  C35      1.0000 0.26860  0.16030  0.81000  Biso   1.000  C
  C36      1.0000 0.73140  0.83970  0.19000  Biso   1.000  C
  C37      1.0000 0.37470  0.24320  0.88260  Biso   1.000  C
  C38      1.0000 0.62530  0.75680  0.11740  Biso   1.000  C
  H29      1.0000 0.44910  0.23250  0.92610  Biso   1.000  H
  H30      1.0000 0.55090  0.76750  0.07390  Biso   1.000  H
  N5       1.0000 0.35600  0.33990  0.88200  Biso   1.000  N
  N6       1.0000 0.64400  0.66010  0.11800  Biso   1.000  N
  N7       1.0000 0.23770  0.31840  0.80690  Biso   1.000  N
  N8       1.0000 0.76230  0.68160  0.19310  Biso   1.000  N
  C39      1.0000 0.19190  0.40970  0.78210  Biso   1.000  C
  C40      1.0000 0.80810  0.59030  0.21790  Biso   1.000  C
  H31      1.0000 0.26730  0.45890  0.76710  Biso   1.000  H
  H32      1.0000 0.73270  0.54110  0.23290  Biso   1.000  H
  H33      1.0000 0.17600  0.44940  0.84070  Biso   1.000  H
  H34      1.0000 0.82400  0.55060  0.15930  Biso   1.000  H
  C41      1.0000 0.06770  0.38190  0.69980  Biso   1.000  C
  C42      1.0000 0.93230  0.61810  0.30020  Biso   1.000  C
  H35      1.0000 0.08260  0.34230  0.64070  Biso   1.000  H
  H36      1.0000 0.91740  0.65770  0.35930  Biso   1.000  H
  H37      1.0000 0.99120  0.33380  0.71460  Biso   1.000  H
  H38      1.0000 0.00880  0.66620  0.28540  Biso   1.000  H
  C43      1.0000 0.02710  0.47990  0.67770  Biso   1.000  C
  C44      1.0000 0.97290  0.52010  0.32230  Biso   1.000  C
  H39      1.0000 0.10090  0.52490  0.65780  Biso   1.000  H
  H40      1.0000 0.89910  0.47510  0.34220  Biso   1.000  H
  H41      1.0000 0.02040  0.52270  0.73850  Biso   1.000  H
  H42      1.0000 0.97960  0.47730  0.26150  Biso   1.000  H
  C45      1.0000 0.89690  0.45470  0.60070  Biso   1.000  C
  C46      1.0000 0.10310  0.54530  0.39930  Biso   1.000  C
  H43      1.0000 0.87930  0.52120  0.59130  Biso   1.000  H
  H44      1.0000 0.12070  0.47880  0.40870  Biso   1.000  H
  H45      1.0000 0.90290  0.41390  0.53940  Biso   1.000  H
  H46      1.0000 0.09710  0.58610  0.46060  Biso   1.000  H
  H47      1.0000 0.82230  0.41210  0.62030  Biso   1.000  H
  H48      1.0000 0.17770  0.58790  0.37970  Biso   1.000  H
  C47      1.0000 0.18340  0.21190  0.76300  Biso   1.000  C
  C48      1.0000 0.81660  0.78810  0.23700  Biso   1.000  C
  H49      1.0000 0.10270  0.17880  0.71020  Biso   1.000  H
  H50      1.0000 0.89730  0.82120  0.28980  Biso   1.000  H
  C49      1.0000 0.06470  0.00680  0.02180  Biso   1.000  C
  C50      1.0000 0.93530  0.99320  0.97820  Biso   1.000  C
  C51      1.0000 0.93600  0.93670  0.01270  Biso   1.000  C
  C52      1.0000 0.06400  0.06330  0.98730  Biso   1.000  C
  H51      1.0000 0.92940  0.87600  0.04120  Biso   1.000  H
  H52      1.0000 0.07060  0.12400  0.95880  Biso   1.000  H
  C53      1.0000 0.81680  0.95460  0.96250  Biso   1.000  C
  C54      1.0000 0.18320  0.04540  0.03750  Biso   1.000  C
  H53      1.0000 0.72800  0.90620  0.95620  Biso   1.000  H
  H54      1.0000 0.27200  0.09380  0.04380  Biso   1.000  H
  C55      1.0000 0.82630  0.04250  0.92130  Biso   1.000  C
  C56      1.0000 0.17370  0.95750  0.07870  Biso   1.000  C
  H55      1.0000 0.74400  0.05490  0.88660  Biso   1.000  H
  H56      1.0000 0.25600  0.94510  0.11340  Biso   1.000  H
  C57      1.0000 0.95500  0.11260  0.93040  Biso   1.000  C
  C58      1.0000 0.04500  0.88740  0.06960  Biso   1.000  C
  H57      1.0000 0.96150  0.17330  0.90200  Biso   1.000  H
  H58      1.0000 0.03850  0.82670  0.09800  Biso   1.000  H
  C59      1.0000 0.07410  0.09470  0.98070  Biso   1.000  C
  C60      1.0000 0.92590  0.90530  0.01930  Biso   1.000  C
  H59      1.0000 0.16300  0.14310  0.98690  Biso   1.000  H
  H60      1.0000 0.83700  0.85690  0.01310  Biso   1.000  H
  C61      1.0000 0.17350  0.96510  0.08040  Biso   1.000  C
  C62      1.0000 0.82650  0.03490  0.91960  Biso   1.000  C
  H61      1.0000 0.25690  0.98720  0.06180  Biso   1.000  H
  H62      1.0000 0.74310  0.01280  0.93820  Biso   1.000  H
  H63      1.0000 0.14130  0.88760  0.06240  Biso   1.000  H
  H64      1.0000 0.85870  0.11240  0.93760  Biso   1.000  H
  C63      1.0000 0.20250  0.99970  0.17820  Biso   1.000  C
  C64      1.0000 0.79750  0.00030  0.82180  Biso   1.000  C
  H65      1.0000 0.27090  0.97060  0.20980  Biso   1.000  H
  H66      1.0000 0.72910  0.02940  0.79020  Biso   1.000  H
  H67      1.0000 0.23720  0.07720  0.19720  Biso   1.000  H
  H68      1.0000 0.76280  0.92280  0.80280  Biso   1.000  H
  H69      1.0000 0.12030  0.97640  0.19780  Biso   1.000  H
  H70      1.0000 0.87970  0.02360  0.80220  Biso   1.000  H
  F25      1.0000 0.47240  0.60160  0.70680  Biso   1.000  F
  F26      1.0000 0.52760  0.39840  0.29320  Biso   1.000  F
  F27      1.0000 0.37030  0.44380  0.32510  Biso   1.000  F
  F28      1.0000 0.62970  0.55620  0.67490  Biso   1.000  F
  F29      1.0000 0.33800  0.29010  0.22120  Biso   1.000  F
  F30      1.0000 0.66200  0.70990  0.77880  Biso   1.000  F
  F31      1.0000 0.61700  0.68810  0.37030  Biso   1.000  F
  F32      1.0000 0.38300  0.31190  0.62970  Biso   1.000  F
  F33      1.0000 0.72640  0.66350  0.50100  Biso   1.000  F
  F34      1.0000 0.27360  0.33650  0.49900  Biso   1.000  F
  F35      1.0000 0.54700  0.71280  0.49240  Biso   1.000  F
  F36      1.0000 0.45300  0.28720  0.50760  Biso   1.000  F
