data_image0
_cell_length_a       10.7478
_cell_length_b       13.3811
_cell_length_c       13.8629
_cell_angle_alpha    99.4
_cell_angle_beta     112.2
_cell_angle_gamma    95.755

_symmetry_space_group_name_H-M    "P 1"
_symmetry_int_tables_number       1

loop_
  _symmetry_equiv_pos_as_xyz
  'x, y, z'

loop_
  _atom_site_label
  _atom_site_occupancy
  _atom_site_fract_x
  _atom_site_fract_y
  _atom_site_fract_z
  _atom_site_thermal_displace_type
  _atom_site_B_iso_or_equiv
  _atom_site_type_symbol
  Cu1      1.0000 0.50000  0.50000  0.50000  Biso   1.000  Cu
  O1       1.0000 0.38850  0.58278  0.55401  Biso   1.000  O
  O2       1.0000 0.61150  0.41722  0.44599  Biso   1.000  O
  C1       1.0000 0.23670  0.62710  0.63020  Biso   1.000  C
  C2       1.0000 0.76330  0.37290  0.36980  Biso   1.000  C
  F1       1.0000 0.33780  0.68920  0.71540  Biso   1.000  F
  F2       1.0000 0.66220  0.31080  0.28460  Biso   1.000  F
  F3       1.0000 0.15320  0.59440  0.67000  Biso   1.000  F
  F4       1.0000 0.84680  0.40560  0.33000  Biso   1.000  F
  F5       1.0000 0.18180  0.68850  0.56960  Biso   1.000  F
  F6       1.0000 0.81820  0.31150  0.43040  Biso   1.000  F
  C3       1.0000 0.29280  0.54590  0.57420  Biso   1.000  C
  C4       1.0000 0.70720  0.45410  0.42580  Biso   1.000  C
  C5       1.0000 0.23360  0.44410  0.55340  Biso   1.000  C
  C6       1.0000 0.76640  0.55590  0.44660  Biso   1.000  C
  H1       1.0000 0.16180  0.42780  0.57310  Biso   1.000  H
  H2       1.0000 0.83820  0.57220  0.42690  Biso   1.000  H
  C7       1.0000 0.27740  0.36620  0.50440  Biso   1.000  C
  C8       1.0000 0.72260  0.63380  0.49560  Biso   1.000  C
  C9       1.0000 0.20210  0.25590  0.47880  Biso   1.000  C
  C10      1.0000 0.79790  0.74410  0.52120  Biso   1.000  C
  F7       1.0000 0.11980  0.23080  0.37730  Biso   1.000  F
  F8       1.0000 0.88020  0.76920  0.62270  Biso   1.000  F
  F9       1.0000 0.28770  0.19270  0.50510  Biso   1.000  F
  F10      1.0000 0.71230  0.80730  0.49490  Biso   1.000  F
  F11      1.0000 0.11860  0.25000  0.53210  Biso   1.000  F
  F12      1.0000 0.88140  0.75000  0.46790  Biso   1.000  F
  O3       1.0000 0.37330  0.37261  0.47400  Biso   1.000  O
  O4       1.0000 0.62670  0.62739  0.52600  Biso   1.000  O
  Cu2      1.0000 0.00000  0.00000  0.00000  Biso   1.000  Cu
  O5       1.0000 0.98450  0.04676  0.86880  Biso   1.000  O
  O6       1.0000 0.01550  0.95324  0.13120  Biso   1.000  O
  C11      1.0000 0.00670  0.05470  0.70910  Biso   1.000  C
  C12      1.0000 0.99330  0.94530  0.29090  Biso   1.000  C
  F13      1.0000 0.91520  0.09850  0.68980  Biso   1.000  F
  F14      1.0000 0.08480  0.90150  0.31020  Biso   1.000  F
  F15      1.0000 0.01380  0.98670  0.63050  Biso   1.000  F
  F16      1.0000 0.98620  0.01330  0.36950  Biso   1.000  F
  F17      1.0000 0.11340  0.14140  0.73490  Biso   1.000  F
  F18      1.0000 0.88660  0.85860  0.26510  Biso   1.000  F
  C13      1.0000 0.04790  0.01800  0.81380  Biso   1.000  C
  C14      1.0000 0.95210  0.98200  0.18620  Biso   1.000  C
  C15      1.0000 0.14970  0.95970  0.83690  Biso   1.000  C
  C16      1.0000 0.85030  0.04030  0.16310  Biso   1.000  C
  H3       1.0000 0.18820  0.94370  0.78770  Biso   1.000  H
  H4       1.0000 0.81180  0.05630  0.21230  Biso   1.000  H
  C17      1.0000 0.19700  0.92410  0.93040  Biso   1.000  C
  C18      1.0000 0.80300  0.07590  0.06960  Biso   1.000  C
  C19      1.0000 0.31350  0.86180  0.95270  Biso   1.000  C
  C20      1.0000 0.68650  0.13820  0.04730  Biso   1.000  C
  F19      1.0000 0.38030  0.87970  0.89540  Biso   1.000  F
  F20      1.0000 0.61970  0.12030  0.10460  Biso   1.000  F
  F21      1.0000 0.26400  0.76740  0.92460  Biso   1.000  F
  F22      1.0000 0.73600  0.23260  0.07540  Biso   1.000  F
  F23      1.0000 0.39460  0.88350  0.04800  Biso   1.000  F
  F24      1.0000 0.60540  0.11650  0.95200  Biso   1.000  F
  O7       1.0000 0.15460  0.93518  0.00394  Biso   1.000  O
  O8       1.0000 0.84540  0.06482  0.99606  Biso   1.000  O
  O9       1.0000 0.59480  0.48488  0.67738  Biso   1.000  O
  O10      1.0000 0.40520  0.51512  0.32262  Biso   1.000  O
  N1       1.0000 0.72060  0.47720  0.73140  Biso   1.000  N
  N2       1.0000 0.27940  0.52280  0.26860  Biso   1.000  N
  C21      1.0000 0.76350  0.37600  0.74890  Biso   1.000  C
  C22      1.0000 0.23650  0.62400  0.25110  Biso   1.000  C
  C23      1.0000 0.69300  0.29440  0.64580  Biso   1.000  C
  C24      1.0000 0.30700  0.70560  0.35420  Biso   1.000  C
  H5       1.0000 0.59640  0.28210  0.62740  Biso   1.000  H
  H6       1.0000 0.40360  0.71790  0.37260  Biso   1.000  H
  H7       1.0000 0.71040  0.31790  0.58950  Biso   1.000  H
  H8       1.0000 0.28960  0.68210  0.41050  Biso   1.000  H
  H9       1.0000 0.72780  0.23180  0.65540  Biso   1.000  H
  H10      1.0000 0.27220  0.76820  0.34460  Biso   1.000  H
  C25      1.0000 0.71540  0.34830  0.83390  Biso   1.000  C
  C26      1.0000 0.28460  0.65170  0.16610  Biso   1.000  C
  H11      1.0000 0.61760  0.33040  0.80350  Biso   1.000  H
  H12      1.0000 0.38240  0.66960  0.19650  Biso   1.000  H
  H13      1.0000 0.75430  0.29100  0.85830  Biso   1.000  H
  H14      1.0000 0.24570  0.70900  0.14170  Biso   1.000  H
  H15      1.0000 0.74410  0.40640  0.89290  Biso   1.000  H
  H16      1.0000 0.25590  0.59360  0.10710  Biso   1.000  H
  C27      1.0000 0.91840  0.40640  0.79060  Biso   1.000  C
  C28      1.0000 0.08160  0.59360  0.20940  Biso   1.000  C
  C29      1.0000 0.00240  0.35590  0.87890  Biso   1.000  C
  C30      1.0000 0.99760  0.64410  0.12110  Biso   1.000  C
  H17      1.0000 0.09780  0.37980  0.89900  Biso   1.000  H
  H18      1.0000 0.90220  0.62020  0.10100  Biso   1.000  H
  H19      1.0000 0.98020  0.37350  0.93970  Biso   1.000  H
  H20      1.0000 0.01980  0.62650  0.06030  Biso   1.000  H
  H21      1.0000 0.98200  0.28250  0.85350  Biso   1.000  H
  H22      1.0000 0.01800  0.71750  0.14650  Biso   1.000  H
  C31      1.0000 0.97210  0.39780  0.70220  Biso   1.000  C
  C32      1.0000 0.02790  0.60220  0.29780  Biso   1.000  C
  H23      1.0000 0.06970  0.41750  0.73360  Biso   1.000  H
  H24      1.0000 0.93030  0.58250  0.26640  Biso   1.000  H
  H25      1.0000 0.94740  0.32800  0.66200  Biso   1.000  H
  H26      1.0000 0.05260  0.67200  0.33800  Biso   1.000  H
  H27      1.0000 0.93280  0.44250  0.65570  Biso   1.000  H
  H28      1.0000 0.06720  0.55750  0.34430  Biso   1.000  H
  N3       1.0000 0.93750  0.51890  0.83500  Biso   1.000  N
  N4       1.0000 0.06250  0.48110  0.16500  Biso   1.000  N
  O11      1.0000 0.05350  0.57328  0.89530  Biso   1.000  O
  O12      1.0000 0.94650  0.42672  0.10470  Biso   1.000  O
  C33      1.0000 0.82150  0.55640  0.79270  Biso   1.000  C
  C34      1.0000 0.17850  0.44360  0.20730  Biso   1.000  C
  C35      1.0000 0.80780  0.66250  0.81260  Biso   1.000  C
  C36      1.0000 0.19220  0.33750  0.18740  Biso   1.000  C
  C37      1.0000 0.90660  0.74640  0.88160  Biso   1.000  C
  C38      1.0000 0.09340  0.25360  0.11840  Biso   1.000  C
  H29      1.0000 0.99640  0.74190  0.92230  Biso   1.000  H
  H30      1.0000 0.00360  0.25810  0.07770  Biso   1.000  H
  N5       1.0000 0.85730  0.83320  0.88210  Biso   1.000  N
  N6       1.0000 0.14270  0.16680  0.11790  Biso   1.000  N
  N7       1.0000 0.72500  0.80520  0.81220  Biso   1.000  N
  N8       1.0000 0.27500  0.19480  0.18780  Biso   1.000  N
  C39      1.0000 0.63640  0.88220  0.79250  Biso   1.000  C
  C40      1.0000 0.36360  0.11780  0.20750  Biso   1.000  C
  H31      1.0000 0.68940  0.94860  0.83580  Biso   1.000  H
  H32      1.0000 0.31060  0.05140  0.16420  Biso   1.000  H
  H33      1.0000 0.56420  0.86540  0.81610  Biso   1.000  H
  H34      1.0000 0.43580  0.13460  0.18390  Biso   1.000  H
  C41      1.0000 0.57670  0.89110  0.68660  Biso   1.000  C
  C42      1.0000 0.42330  0.10890  0.31340  Biso   1.000  C
  H35      1.0000 0.64580  0.89350  0.65750  Biso   1.000  H
  H36      1.0000 0.35420  0.10650  0.34250  Biso   1.000  H
  H37      1.0000 0.50750  0.83070  0.64530  Biso   1.000  H
  H38      1.0000 0.49250  0.16930  0.35470  Biso   1.000  H
  C43      1.0000 0.50700  0.99400  0.67460  Biso   1.000  C
  C44      1.0000 0.49300  0.00600  0.32540  Biso   1.000  C
  H39      1.0000 0.54260  0.03620  0.63690  Biso   1.000  H
  H40      1.0000 0.45740  0.96380  0.36310  Biso   1.000  H
  H41      1.0000 0.52210  0.03500  0.74380  Biso   1.000  H
  H42      1.0000 0.47790  0.96500  0.25620  Biso   1.000  H
  C45      1.0000 0.38700  0.95840  0.62320  Biso   1.000  C
  C46      1.0000 0.61300  0.04160  0.37680  Biso   1.000  C
  H43      1.0000 0.33540  0.01330  0.61440  Biso   1.000  H
  H44      1.0000 0.66460  0.98670  0.38560  Biso   1.000  H
  H45      1.0000 0.37460  0.92010  0.55430  Biso   1.000  H
  H46      1.0000 0.62540  0.07990  0.44570  Biso   1.000  H
  H47      1.0000 0.35580  0.91370  0.66010  Biso   1.000  H
  H48      1.0000 0.64420  0.08630  0.33990  Biso   1.000  H
  C47      1.0000 0.69220  0.70510  0.77000  Biso   1.000  C
  C48      1.0000 0.30780  0.29490  0.23000  Biso   1.000  C
  H49      1.0000 0.60690  0.66990  0.72060  Biso   1.000  H
  H50      1.0000 0.39310  0.33010  0.27940  Biso   1.000  H
  C49      1.0000 0.47830  0.48290  0.00130  Biso   1.000  C
  C50      1.0000 0.52170  0.51710  0.99870  Biso   1.000  C
  C51      1.0000 0.43890  0.46770  0.89150  Biso   1.000  C
  C52      1.0000 0.56110  0.53230  0.10850  Biso   1.000  C
  H51      1.0000 0.45580  0.52390  0.86050  Biso   1.000  H
  H52      1.0000 0.54420  0.47610  0.13950  Biso   1.000  H
  C53      1.0000 0.37480  0.37100  0.82650  Biso   1.000  C
  C54      1.0000 0.62520  0.62900  0.17350  Biso   1.000  C
  H53      1.0000 0.34760  0.36040  0.75070  Biso   1.000  H
  H54      1.0000 0.65240  0.63960  0.24930  Biso   1.000  H
  C55      1.0000 0.35030  0.28950  0.87130  Biso   1.000  C
  C56      1.0000 0.64970  0.71050  0.12870  Biso   1.000  C
  H55      1.0000 0.30600  0.22270  0.82650  Biso   1.000  H
  H56      1.0000 0.69400  0.77730  0.17350  Biso   1.000  H
  C57      1.0000 0.38970  0.30470  0.98120  Biso   1.000  C
  C58      1.0000 0.61030  0.69530  0.01880  Biso   1.000  C
  H57      1.0000 0.37270  0.24850  0.01210  Biso   1.000  H
  H58      1.0000 0.62730  0.75150  0.98790  Biso   1.000  H
  C59      1.0000 0.45370  0.40140  0.04610  Biso   1.000  C
  C60      1.0000 0.54630  0.59860  0.95390  Biso   1.000  C
  H59      1.0000 0.48100  0.41200  0.12200  Biso   1.000  H
  H60      1.0000 0.51900  0.58800  0.87800  Biso   1.000  H
  C61      1.0000 0.58350  0.57870  0.03500  Biso   1.000  C
  C62      1.0000 0.41650  0.42130  0.96500  Biso   1.000  C
  H61      1.0000 0.66860  0.56360  0.03420  Biso   1.000  H
  H62      1.0000 0.33140  0.43640  0.96580  Biso   1.000  H
  H63      1.0000 0.55230  0.62740  0.99150  Biso   1.000  H
  H64      1.0000 0.44770  0.37260  0.00850  Biso   1.000  H
  C63      1.0000 0.59430  0.61540  0.14620  Biso   1.000  C
  C64      1.0000 0.40570  0.38460  0.85380  Biso   1.000  C
  H65      1.0000 0.65990  0.67810  0.17930  Biso   1.000  H
  H66      1.0000 0.34010  0.32190  0.82070  Biso   1.000  H
  H67      1.0000 0.62310  0.56400  0.18670  Biso   1.000  H
  H68      1.0000 0.37690  0.43600  0.81330  Biso   1.000  H
  H69      1.0000 0.50690  0.62770  0.14400  Biso   1.000  H
  H70      1.0000 0.49310  0.37230  0.85600  Biso   1.000  H
  F25      1.0000 0.64430  0.15960  0.12310  Biso   1.000  F
  F26      1.0000 0.35570  0.84040  0.87690  Biso   1.000  F
  F27      1.0000 0.71320  0.21940  0.02120  Biso   1.000  F
  F28      1.0000 0.28680  0.78060  0.97880  Biso   1.000  F
  F29      1.0000 0.56860  0.08220  0.96490  Biso   1.000  F
  F30      1.0000 0.43140  0.91780  0.03510  Biso   1.000  F
  F31      1.0000 0.29630  0.63940  0.72800  Biso   1.000  F
  F32      1.0000 0.70370  0.36060  0.27200  Biso   1.000  F
  F33      1.0000 0.24110  0.70980  0.60120  Biso   1.000  F
  F34      1.0000 0.75890  0.29020  0.39880  Biso   1.000  F
  F35      1.0000 0.10960  0.59600  0.60830  Biso   1.000  F
  F36      1.0000 0.89040  0.40400  0.39170  Biso   1.000  F
  F37      1.0000 0.17560  0.20320  0.39130  Biso   1.000  F
  F38      1.0000 0.82440  0.79680  0.60870  Biso   1.000  F
  F39      1.0000 0.27990  0.20800  0.54890  Biso   1.000  F
  F40      1.0000 0.72010  0.79200  0.45110  Biso   1.000  F
  F41      1.0000 0.10520  0.24390  0.50050  Biso   1.000  F
  F42      1.0000 0.89480  0.75610  0.49950  Biso   1.000  F
  F43      1.0000 0.86280  0.03470  0.65470  Biso   1.000  F
  F44      1.0000 0.13720  0.96530  0.34530  Biso   1.000  F
  F45      1.0000 0.95930  0.85300  0.28230  Biso   1.000  F
  F46      1.0000 0.04070  0.14700  0.71770  Biso   1.000  F
  F47      1.0000 0.93980  0.98210  0.35120  Biso   1.000  F
  F48      1.0000 0.06020  0.01790  0.64880  Biso   1.000  F
