data_image0
_cell_length_a       10.4039
_cell_length_b       12.996
_cell_length_c       13.595
_cell_angle_alpha    98.478
_cell_angle_beta     107.67
_cell_angle_gamma    100.577

_symmetry_space_group_name_H-M    "P 1"
_symmetry_int_tables_number       1

loop_
  _symmetry_equiv_pos_as_xyz
  'x, y, z'

loop_
  _atom_site_label
  _atom_site_occupancy
  _atom_site_fract_x
  _atom_site_fract_y
  _atom_site_fract_z
  _atom_site_thermal_displace_type
  _atom_site_B_iso_or_equiv
  _atom_site_type_symbol
  Cu1      1.0000 0.00000  0.00000  0.00000  Biso   1.000  Cu
  O1       1.0000 0.84114  0.87046  0.96192  Biso   1.000  O
  O2       1.0000 0.15886  0.12954  0.03808  Biso   1.000  O
  C1       1.0000 0.65950  0.74220  0.97020  Biso   1.000  C
  C2       1.0000 0.34050  0.25780  0.02980  Biso   1.000  C
  F1       1.0000 0.73840  0.67860  0.99870  Biso   1.000  F
  F2       1.0000 0.26160  0.32140  0.00130  Biso   1.000  F
  F3       1.0000 0.59320  0.71050  0.86647  Biso   1.000  F
  F4       1.0000 0.40680  0.28950  0.13353  Biso   1.000  F
  F5       1.0000 0.56120  0.72546  0.01266  Biso   1.000  F
  F6       1.0000 0.43880  0.27454  0.98734  Biso   1.000  F
  C3       1.0000 0.74190  0.85840  0.99680  Biso   1.000  C
  C4       1.0000 0.25810  0.14160  0.00320  Biso   1.000  C
  C5       1.0000 0.70060  0.93480  0.05330  Biso   1.000  C
  C6       1.0000 0.29940  0.06520  0.94670  Biso   1.000  C
  H1       1.0000 0.62520  0.91250  0.07700  Biso   1.000  H
  H2       1.0000 0.37480  0.08750  0.92300  Biso   1.000  H
  C7       1.0000 0.76520  0.04360  0.07700  Biso   1.000  C
  C8       1.0000 0.23480  0.95640  0.92300  Biso   1.000  C
  C9       1.0000 0.71420  0.12040  0.14290  Biso   1.000  C
  C10      1.0000 0.28580  0.87960  0.85710  Biso   1.000  C
  F7       1.0000 0.60450  0.07647  0.16430  Biso   1.000  F
  F8       1.0000 0.39550  0.92353  0.83570  Biso   1.000  F
  F9       1.0000 0.81540  0.16750  0.23305  Biso   1.000  F
  F10      1.0000 0.18460  0.83250  0.76695  Biso   1.000  F
  F11      1.0000 0.68330  0.19900  0.09620  Biso   1.000  F
  F12      1.0000 0.31670  0.80100  0.90380  Biso   1.000  F
  O3       1.0000 0.86120  0.08893  0.05035  Biso   1.000  O
  O4       1.0000 0.13880  0.91107  0.94965  Biso   1.000  O
  Cu2      1.0000 0.50000  0.50000  0.50000  Biso   1.000  Cu
  O5       1.0000 0.49380  0.44334  0.62486  Biso   1.000  O
  O6       1.0000 0.50620  0.55666  0.37514  Biso   1.000  O
  C11      1.0000 0.45420  0.42580  0.78250  Biso   1.000  C
  C12      1.0000 0.54580  0.57420  0.21750  Biso   1.000  C
  F13      1.0000 0.58880  0.43440  0.82820  Biso   1.000  F
  F14      1.0000 0.41120  0.56560  0.17180  Biso   1.000  F
  F15      1.0000 0.39600  0.32336  0.75941  Biso   1.000  F
  F16      1.0000 0.60400  0.67664  0.24059  Biso   1.000  F
  F17      1.0000 0.41450  0.47630  0.85431  Biso   1.000  F
  F18      1.0000 0.58550  0.52370  0.14569  Biso   1.000  F
  C13      1.0000 0.42430  0.47030  0.68110  Biso   1.000  C
  C14      1.0000 0.57570  0.52970  0.31890  Biso   1.000  C
  C15      1.0000 0.32840  0.53190  0.66140  Biso   1.000  C
  C16      1.0000 0.67160  0.46810  0.33860  Biso   1.000  C
  H3       1.0000 0.28450  0.54740  0.71190  Biso   1.000  H
  H4       1.0000 0.71550  0.45260  0.28810  Biso   1.000  H
  C17      1.0000 0.29430  0.57200  0.57080  Biso   1.000  C
  C18      1.0000 0.70570  0.42800  0.42920  Biso   1.000  C
  C19      1.0000 0.18410  0.63690  0.55230  Biso   1.000  C
  C20      1.0000 0.81590  0.36310  0.44770  Biso   1.000  C
  F19      1.0000 0.11430  0.63317  0.61923  Biso   1.000  F
  F20      1.0000 0.88570  0.36683  0.38077  Biso   1.000  F
  F21      1.0000 0.09230  0.60270  0.45557  Biso   1.000  F
  F22      1.0000 0.90770  0.39730  0.54443  Biso   1.000  F
  F23      1.0000 0.24080  0.73897  0.56278  Biso   1.000  F
  F24      1.0000 0.75920  0.26103  0.43722  Biso   1.000  F
  O7       1.0000 0.34519  0.56462  0.49832  Biso   1.000  O
  O8       1.0000 0.65481  0.43538  0.50168  Biso   1.000  O
  O9       1.0000 0.95356  0.01516  0.84839  Biso   1.000  O
  O10      1.0000 0.04644  0.98484  0.15161  Biso   1.000  O
  N1       1.0000 0.83600  0.03225  0.79276  Biso   1.000  N
  N2       1.0000 0.16400  0.96775  0.20724  Biso   1.000  N
  C21      1.0000 0.82520  0.14270  0.77590  Biso   1.000  C
  C22      1.0000 0.17480  0.85730  0.22410  Biso   1.000  C
  C23      1.0000 0.90340  0.16510  0.69930  Biso   1.000  C
  C24      1.0000 0.09660  0.83490  0.30070  Biso   1.000  C
  H5       1.0000 0.00350  0.17710  0.73610  Biso   1.000  H
  H6       1.0000 0.99650  0.82290  0.26390  Biso   1.000  H
  H7       1.0000 0.87250  0.10340  0.63950  Biso   1.000  H
  H8       1.0000 0.12750  0.89660  0.36050  Biso   1.000  H
  H9       1.0000 0.88410  0.22900  0.67330  Biso   1.000  H
  H10      1.0000 0.11590  0.77100  0.32670  Biso   1.000  H
  C25      1.0000 0.89020  0.22560  0.87860  Biso   1.000  C
  C26      1.0000 0.10980  0.77440  0.12140  Biso   1.000  C
  H11      1.0000 0.99100  0.23310  0.90440  Biso   1.000  H
  H12      1.0000 0.00900  0.76690  0.09560  Biso   1.000  H
  H13      1.0000 0.87090  0.29460  0.86670  Biso   1.000  H
  H14      1.0000 0.12910  0.70540  0.13330  Biso   1.000  H
  H15      1.0000 0.85100  0.20280  0.93110  Biso   1.000  H
  H16      1.0000 0.14900  0.79720  0.06890  Biso   1.000  H
  C27      1.0000 0.66470  0.12260  0.72530  Biso   1.000  C
  C28      1.0000 0.33530  0.87740  0.27470  Biso   1.000  C
  C29      1.0000 0.59220  0.13730  0.80730  Biso   1.000  C
  C30      1.0000 0.40780  0.86270  0.19270  Biso   1.000  C
  H17      1.0000 0.49170  0.12350  0.77100  Biso   1.000  H
  H18      1.0000 0.50830  0.87650  0.22900  Biso   1.000  H
  H19      1.0000 0.61110  0.08690  0.85370  Biso   1.000  H
  H20      1.0000 0.38890  0.91310  0.14630  Biso   1.000  H
  H21      1.0000 0.62740  0.21080  0.84950  Biso   1.000  H
  H22      1.0000 0.37260  0.78920  0.15050  Biso   1.000  H
  C31      1.0000 0.61400  0.18220  0.63920  Biso   1.000  C
  C32      1.0000 0.38600  0.81780  0.36080  Biso   1.000  C
  H23      1.0000 0.51210  0.16430  0.61270  Biso   1.000  H
  H24      1.0000 0.48790  0.83570  0.38730  Biso   1.000  H
  H25      1.0000 0.64930  0.25960  0.66810  Biso   1.000  H
  H26      1.0000 0.35070  0.74040  0.33190  Biso   1.000  H
  H27      1.0000 0.64790  0.16150  0.58120  Biso   1.000  H
  H28      1.0000 0.35210  0.83850  0.41880  Biso   1.000  H
  N3       1.0000 0.62730  0.00474  0.67938  Biso   1.000  N
  N4       1.0000 0.37270  0.99526  0.32062  Biso   1.000  N
  O11      1.0000 0.50720  0.95551  0.61403  Biso   1.000  O
  O12      1.0000 0.49280  0.04449  0.38597  Biso   1.000  O
  C33      1.0000 0.72780  0.95620  0.72650  Biso   1.000  C
  C34      1.0000 0.27220  0.04380  0.27350  Biso   1.000  C
  C35      1.0000 0.71940  0.84370  0.70210  Biso   1.000  C
  C36      1.0000 0.28060  0.15630  0.29790  Biso   1.000  C
  C37      1.0000 0.61060  0.76200  0.62850  Biso   1.000  C
  C38      1.0000 0.38940  0.23800  0.37150  Biso   1.000  C
  H29      1.0000 0.52480  0.77290  0.58650  Biso   1.000  H
  H30      1.0000 0.47520  0.22710  0.41350  Biso   1.000  H
  N5       1.0000 0.64240  0.66833  0.62501  Biso   1.000  N
  N6       1.0000 0.35760  0.33167  0.37499  Biso   1.000  N
  N7       1.0000 0.77220  0.68823  0.69762  Biso   1.000  N
  N8       1.0000 0.22780  0.31177  0.30238  Biso   1.000  N
  C39      1.0000 0.83960  0.60010  0.71390  Biso   1.000  C
  C40      1.0000 0.16040  0.39990  0.28610  Biso   1.000  C
  H31      1.0000 0.76830  0.53530  0.70790  Biso   1.000  H
  H32      1.0000 0.23170  0.46470  0.29210  Biso   1.000  H
  H33      1.0000 0.87800  0.58470  0.65650  Biso   1.000  H
  H34      1.0000 0.12200  0.41530  0.34350  Biso   1.000  H
  C41      1.0000 0.95340  0.61990  0.81710  Biso   1.000  C
  C42      1.0000 0.04660  0.38010  0.18290  Biso   1.000  C
  H35      1.0000 0.02520  0.68480  0.82400  Biso   1.000  H
  H36      1.0000 0.97480  0.31520  0.17600  Biso   1.000  H
  H37      1.0000 0.91570  0.63360  0.87510  Biso   1.000  H
  H38      1.0000 0.08430  0.36640  0.12490  Biso   1.000  H
  C43      1.0000 0.01980  0.52580  0.82770  Biso   1.000  C
  C44      1.0000 0.98020  0.47420  0.17230  Biso   1.000  C
  H39      1.0000 0.05050  0.50930  0.76630  Biso   1.000  H
  H40      1.0000 0.94950  0.49070  0.23370  Biso   1.000  H
  H41      1.0000 0.94830  0.46240  0.82470  Biso   1.000  H
  H42      1.0000 0.05170  0.53760  0.17530  Biso   1.000  H
  C45      1.0000 0.14110  0.54230  0.92650  Biso   1.000  C
  C46      1.0000 0.85890  0.45770  0.07350  Biso   1.000  C
  H43      1.0000 0.17750  0.47790  0.92640  Biso   1.000  H
  H44      1.0000 0.82250  0.52210  0.07360  Biso   1.000  H
  H45      1.0000 0.21390  0.60380  0.92980  Biso   1.000  H
  H46      1.0000 0.78610  0.39620  0.07020  Biso   1.000  H
  H47      1.0000 0.11150  0.55610  0.98810  Biso   1.000  H
  H48      1.0000 0.88850  0.44390  0.01190  Biso   1.000  H
  C47      1.0000 0.82130  0.79242  0.74428  Biso   1.000  C
  C48      1.0000 0.17870  0.20758  0.25572  Biso   1.000  C
  H49      1.0000 0.90970  0.82490  0.79660  Biso   1.000  H
  H50      1.0000 0.09030  0.17510  0.20340  Biso   1.000  H
  C49      1.0000 0.05330  0.03306  0.51316  Biso   1.000  C
  C50      1.0000 0.94670  0.96694  0.48684  Biso   1.000  C
  C51      1.0000 0.92400  0.03374  0.44401  Biso   1.000  C
  C52      1.0000 0.07600  0.96626  0.55599  Biso   1.000  C
  H51      1.0000 0.91300  0.09350  0.41100  Biso   1.000  H
  H52      1.0000 0.08700  0.90650  0.58900  Biso   1.000  H
  C53      1.0000 0.81070  0.94791  0.42264  Biso   1.000  C
  C54      1.0000 0.18930  0.05209  0.57736  Biso   1.000  C
  H53      1.0000 0.72140  0.94840  0.37490  Biso   1.000  H
  H54      1.0000 0.27860  0.05160  0.62510  Biso   1.000  H
  C55      1.0000 0.82670  0.86140  0.47043  Biso   1.000  C
  C56      1.0000 0.17330  0.13860  0.52957  Biso   1.000  C
  H55      1.0000 0.74840  0.80210  0.45570  Biso   1.000  H
  H56      1.0000 0.25160  0.19790  0.54430  Biso   1.000  H
  C57      1.0000 0.95600  0.86072  0.53958  Biso   1.000  C
  C58      1.0000 0.04400  0.13928  0.46042  Biso   1.000  C
  H57      1.0000 0.96700  0.80100  0.57260  Biso   1.000  H
  H58      1.0000 0.03300  0.19900  0.42740  Biso   1.000  H
  C59      1.0000 0.06930  0.94655  0.56094  Biso   1.000  C
  C60      1.0000 0.93070  0.05345  0.43906  Biso   1.000  C
  H59      1.0000 0.15850  0.94610  0.60870  Biso   1.000  H
  H60      1.0000 0.84150  0.05390  0.39130  Biso   1.000  H
  C61      1.0000 0.18580  0.11821  0.53860  Biso   1.000  C
  C62      1.0000 0.81420  0.88179  0.46140  Biso   1.000  C
  H61      1.0000 0.23570  0.09770  0.49300  Biso   1.000  H
  H62      1.0000 0.76430  0.90230  0.50700  Biso   1.000  H
  H63      1.0000 0.24390  0.12500  0.61040  Biso   1.000  H
  H64      1.0000 0.75610  0.87500  0.38960  Biso   1.000  H
  C63      1.0000 0.15130  0.22826  0.52329  Biso   1.000  C
  C64      1.0000 0.84870  0.77174  0.47671  Biso   1.000  C
  H65      1.0000 0.23600  0.28180  0.53960  Biso   1.000  H
  H66      1.0000 0.76400  0.71820  0.46040  Biso   1.000  H
  H67      1.0000 0.09420  0.22150  0.45130  Biso   1.000  H
  H68      1.0000 0.90580  0.77850  0.54870  Biso   1.000  H
  H69      1.0000 0.10240  0.24900  0.56960  Biso   1.000  H
  H70      1.0000 0.89760  0.75100  0.43040  Biso   1.000  H
