data_image0
_cell_length_a       10.3501
_cell_length_b       13.006
_cell_length_c       13.572
_cell_angle_alpha    98.235
_cell_angle_beta     107.71
_cell_angle_gamma    100.904

_symmetry_space_group_name_H-M    "P 1"
_symmetry_int_tables_number       1

loop_
  _symmetry_equiv_pos_as_xyz
  'x, y, z'

loop_
  _atom_site_label
  _atom_site_occupancy
  _atom_site_fract_x
  _atom_site_fract_y
  _atom_site_fract_z
  _atom_site_thermal_displace_type
  _atom_site_B_iso_or_equiv
  _atom_site_type_symbol
  Cu1      1.0000 0.00000  0.00000  0.00000  Biso   1.000  Cu
  O1       1.0000 0.83735  0.87336  0.96045  Biso   1.000  O
  O2       1.0000 0.16265  0.12664  0.03955  Biso   1.000  O
  C1       1.0000 0.65310  0.74280  0.96790  Biso   1.000  C
  C2       1.0000 0.34690  0.25720  0.03210  Biso   1.000  C
  F1       1.0000 0.73690  0.67865  0.99660  Biso   1.000  F
  F2       1.0000 0.26310  0.32135  0.00340  Biso   1.000  F
  F3       1.0000 0.58680  0.71106  0.86346  Biso   1.000  F
  F4       1.0000 0.41320  0.28894  0.13654  Biso   1.000  F
  F5       1.0000 0.55592  0.72458  0.01308  Biso   1.000  F
  F6       1.0000 0.44408  0.27542  0.98692  Biso   1.000  F
  C3       1.0000 0.73700  0.86030  0.99610  Biso   1.000  C
  C4       1.0000 0.26300  0.13970  0.00390  Biso   1.000  C
  C5       1.0000 0.69570  0.93590  0.05410  Biso   1.000  C
  C6       1.0000 0.30430  0.06410  0.94590  Biso   1.000  C
  H1       1.0000 0.62020  0.91290  0.07820  Biso   1.000  H
  H2       1.0000 0.37980  0.08710  0.92180  Biso   1.000  H
  C7       1.0000 0.76100  0.04480  0.07830  Biso   1.000  C
  C8       1.0000 0.23900  0.95520  0.92170  Biso   1.000  C
  C9       1.0000 0.71250  0.12150  0.14840  Biso   1.000  C
  C10      1.0000 0.28750  0.87850  0.85160  Biso   1.000  C
  F7       1.0000 0.60220  0.07562  0.17120  Biso   1.000  F
  F8       1.0000 0.39780  0.92438  0.82880  Biso   1.000  F
  F9       1.0000 0.81610  0.16766  0.23873  Biso   1.000  F
  F10      1.0000 0.18390  0.83234  0.76127  Biso   1.000  F
  F11      1.0000 0.67820  0.20124  0.10243  Biso   1.000  F
  F12      1.0000 0.32180  0.79876  0.89757  Biso   1.000  F
  O3       1.0000 0.85756  0.09156  0.05131  Biso   1.000  O
  O4       1.0000 0.14244  0.90844  0.94869  Biso   1.000  O
  Cu2      1.0000 0.50000  0.50000  0.50000  Biso   1.000  Cu
  O5       1.0000 0.49325  0.44271  0.62577  Biso   1.000  O
  O6       1.0000 0.50675  0.55729  0.37423  Biso   1.000  O
  C11      1.0000 0.45440  0.42610  0.78440  Biso   1.000  C
  C12      1.0000 0.54560  0.57390  0.21560  Biso   1.000  C
  F13      1.0000 0.59020  0.43564  0.83027  Biso   1.000  F
  F14      1.0000 0.40980  0.56436  0.16973  Biso   1.000  F
  F15      1.0000 0.39350  0.32232  0.76153  Biso   1.000  F
  F16      1.0000 0.60650  0.67768  0.23847  Biso   1.000  F
  F17      1.0000 0.41140  0.47583  0.85664  Biso   1.000  F
  F18      1.0000 0.58860  0.52417  0.14336  Biso   1.000  F
  C13      1.0000 0.42430  0.47030  0.68240  Biso   1.000  C
  C14      1.0000 0.57570  0.52970  0.31760  Biso   1.000  C
  C15      1.0000 0.32710  0.53210  0.66280  Biso   1.000  C
  C16      1.0000 0.67290  0.46790  0.33720  Biso   1.000  C
  H3       1.0000 0.28350  0.54790  0.71360  Biso   1.000  H
  H4       1.0000 0.71650  0.45210  0.28640  Biso   1.000  H
  C17      1.0000 0.29220  0.57120  0.57090  Biso   1.000  C
  C18      1.0000 0.70780  0.42880  0.42910  Biso   1.000  C
  C19      1.0000 0.18030  0.63580  0.55180  Biso   1.000  C
  C20      1.0000 0.81970  0.36420  0.44820  Biso   1.000  C
  F19      1.0000 0.11066  0.63197  0.61995  Biso   1.000  F
  F20      1.0000 0.88934  0.36803  0.38005  Biso   1.000  F
  F21      1.0000 0.08676  0.60075  0.45481  Biso   1.000  F
  F22      1.0000 0.91324  0.39925  0.54519  Biso   1.000  F
  F23      1.0000 0.23858  0.73895  0.56097  Biso   1.000  F
  F24      1.0000 0.76142  0.26105  0.43903  Biso   1.000  F
  O7       1.0000 0.34252  0.56320  0.49766  Biso   1.000  O
  O8       1.0000 0.65748  0.43680  0.50234  Biso   1.000  O
  O9       1.0000 0.95675  0.01608  0.85009  Biso   1.000  O
  O10      1.0000 0.04325  0.98392  0.14991  Biso   1.000  O
  N1       1.0000 0.83860  0.03398  0.79411  Biso   1.000  N
  N2       1.0000 0.16140  0.96602  0.20589  Biso   1.000  N
  C21      1.0000 0.82950  0.14485  0.77708  Biso   1.000  C
  C22      1.0000 0.17050  0.85515  0.22292  Biso   1.000  C
  C23      1.0000 0.90800  0.16730  0.70030  Biso   1.000  C
  C24      1.0000 0.09200  0.83270  0.29970  Biso   1.000  C
  H5       1.0000 0.00870  0.17890  0.73700  Biso   1.000  H
  H6       1.0000 0.99130  0.82110  0.26300  Biso   1.000  H
  H7       1.0000 0.87620  0.10590  0.64040  Biso   1.000  H
  H8       1.0000 0.12380  0.89410  0.35960  Biso   1.000  H
  H9       1.0000 0.88940  0.23140  0.67440  Biso   1.000  H
  H10      1.0000 0.11060  0.76860  0.32560  Biso   1.000  H
  C25      1.0000 0.89520  0.22768  0.88000  Biso   1.000  C
  C26      1.0000 0.10480  0.77232  0.12000  Biso   1.000  C
  H11      1.0000 0.99650  0.23520  0.90600  Biso   1.000  H
  H12      1.0000 0.00350  0.76480  0.09400  Biso   1.000  H
  H13      1.0000 0.87620  0.29670  0.86810  Biso   1.000  H
  H14      1.0000 0.12380  0.70330  0.13190  Biso   1.000  H
  H15      1.0000 0.85540  0.20470  0.93260  Biso   1.000  H
  H16      1.0000 0.14460  0.79530  0.06740  Biso   1.000  H
  C27      1.0000 0.66740  0.12491  0.72670  Biso   1.000  C
  C28      1.0000 0.33260  0.87509  0.27330  Biso   1.000  C
  C29      1.0000 0.59440  0.14050  0.80910  Biso   1.000  C
  C30      1.0000 0.40560  0.85950  0.19090  Biso   1.000  C
  H17      1.0000 0.49330  0.12700  0.77270  Biso   1.000  H
  H18      1.0000 0.50670  0.87300  0.22730  Biso   1.000  H
  H19      1.0000 0.61280  0.09030  0.85600  Biso   1.000  H
  H20      1.0000 0.38720  0.90970  0.14400  Biso   1.000  H
  H21      1.0000 0.63060  0.21420  0.85100  Biso   1.000  H
  H22      1.0000 0.36940  0.78580  0.14900  Biso   1.000  H
  C31      1.0000 0.61770  0.18540  0.63970  Biso   1.000  C
  C32      1.0000 0.38230  0.81460  0.36030  Biso   1.000  C
  H23      1.0000 0.51520  0.16810  0.61300  Biso   1.000  H
  H24      1.0000 0.48480  0.83190  0.38700  Biso   1.000  H
  H25      1.0000 0.65440  0.26270  0.66850  Biso   1.000  H
  H26      1.0000 0.34560  0.73730  0.33150  Biso   1.000  H
  H27      1.0000 0.65160  0.16420  0.58170  Biso   1.000  H
  H28      1.0000 0.34840  0.83580  0.41830  Biso   1.000  H
  N3       1.0000 0.62770  0.00640  0.68009  Biso   1.000  N
  N4       1.0000 0.37230  0.99360  0.31991  Biso   1.000  N
  O11      1.0000 0.50690  0.95753  0.61379  Biso   1.000  O
  O12      1.0000 0.49310  0.04247  0.38621  Biso   1.000  O
  C33      1.0000 0.72870  0.95778  0.72701  Biso   1.000  C
  C34      1.0000 0.27130  0.04222  0.27299  Biso   1.000  C
  C35      1.0000 0.71950  0.84502  0.70266  Biso   1.000  C
  C36      1.0000 0.28050  0.15498  0.29734  Biso   1.000  C
  C37      1.0000 0.60930  0.76301  0.62810  Biso   1.000  C
  C38      1.0000 0.39070  0.23699  0.37190  Biso   1.000  C
  H29      1.0000 0.52350  0.77400  0.58560  Biso   1.000  H
  H30      1.0000 0.47650  0.22600  0.41440  Biso   1.000  H
  N5       1.0000 0.64080  0.66842  0.62497  Biso   1.000  N
  N6       1.0000 0.35920  0.33158  0.37503  Biso   1.000  N
  N7       1.0000 0.77230  0.68876  0.69848  Biso   1.000  N
  N8       1.0000 0.22770  0.31124  0.30152  Biso   1.000  N
  C39      1.0000 0.83950  0.59979  0.71390  Biso   1.000  C
  C40      1.0000 0.16050  0.40021  0.28610  Biso   1.000  C
  H31      1.0000 0.76750  0.53470  0.70750  Biso   1.000  H
  H32      1.0000 0.23250  0.46530  0.29250  Biso   1.000  H
  H33      1.0000 0.87860  0.58520  0.65670  Biso   1.000  H
  H34      1.0000 0.12140  0.41480  0.34330  Biso   1.000  H
  C41      1.0000 0.95520  0.62050  0.81950  Biso   1.000  C
  C42      1.0000 0.04480  0.37950  0.18050  Biso   1.000  C
  H35      1.0000 0.02760  0.68580  0.82690  Biso   1.000  H
  H36      1.0000 0.97240  0.31420  0.17310  Biso   1.000  H
  H37      1.0000 0.91670  0.63310  0.87730  Biso   1.000  H
  H38      1.0000 0.08330  0.36690  0.12270  Biso   1.000  H
  C43      1.0000 0.02140  0.52560  0.82860  Biso   1.000  C
  C44      1.0000 0.97860  0.47440  0.17140  Biso   1.000  C
  H39      1.0000 0.05430  0.51110  0.76800  Biso   1.000  H
  H40      1.0000 0.94570  0.48890  0.23200  Biso   1.000  H
  H41      1.0000 0.94880  0.46150  0.82360  Biso   1.000  H
  H42      1.0000 0.05120  0.53850  0.17640  Biso   1.000  H
  C45      1.0000 0.14260  0.54200  0.93000  Biso   1.000  C
  C46      1.0000 0.85740  0.45800  0.07000  Biso   1.000  C
  H43      1.0000 0.17980  0.47800  0.93010  Biso   1.000  H
  H44      1.0000 0.82020  0.52200  0.06990  Biso   1.000  H
  H45      1.0000 0.21620  0.60430  0.93490  Biso   1.000  H
  H46      1.0000 0.78380  0.39570  0.06510  Biso   1.000  H
  H47      1.0000 0.11060  0.55430  0.99060  Biso   1.000  H
  H48      1.0000 0.88940  0.44570  0.00940  Biso   1.000  H
  C47      1.0000 0.82300  0.79362  0.74481  Biso   1.000  C
  C48      1.0000 0.17700  0.20638  0.25519  Biso   1.000  C
  H49      1.0000 0.91250  0.82620  0.79650  Biso   1.000  H
  H50      1.0000 0.08750  0.17380  0.20350  Biso   1.000  H
  C49      1.0000 0.94840  0.96813  0.48738  Biso   1.000  C
  C50      1.0000 0.05160  0.03187  0.51262  Biso   1.000  C
  C51      1.0000 0.07770  0.96746  0.55652  Biso   1.000  C
  C52      1.0000 0.92230  0.03254  0.44348  Biso   1.000  C
  H51      1.0000 0.08860  0.90760  0.58950  Biso   1.000  H
  H52      1.0000 0.91140  0.09240  0.41050  Biso   1.000  H
  C53      1.0000 0.19100  0.05329  0.57789  Biso   1.000  C
  C54      1.0000 0.80900  0.94671  0.42211  Biso   1.000  C
  H53      1.0000 0.28080  0.05310  0.62580  Biso   1.000  H
  H54      1.0000 0.71920  0.94690  0.37420  Biso   1.000  H
  C55      1.0000 0.17500  0.13979  0.53010  Biso   1.000  C
  C56      1.0000 0.82500  0.86021  0.46990  Biso   1.000  C
  H55      1.0000 0.25390  0.19930  0.54510  Biso   1.000  H
  H56      1.0000 0.74610  0.80070  0.45490  Biso   1.000  H
  C57      1.0000 0.04570  0.14047  0.46095  Biso   1.000  C
  C58      1.0000 0.95430  0.85953  0.53905  Biso   1.000  C
  H57      1.0000 0.03480  0.20030  0.42800  Biso   1.000  H
  H58      1.0000 0.96520  0.79970  0.57200  Biso   1.000  H
  C59      1.0000 0.93240  0.05465  0.43959  Biso   1.000  C
  C60      1.0000 0.06760  0.94535  0.56041  Biso   1.000  C
  H59      1.0000 0.84260  0.05480  0.39170  Biso   1.000  H
  H60      1.0000 0.15740  0.94520  0.60830  Biso   1.000  H
  C61      1.0000 0.81480  0.87806  0.45882  Biso   1.000  C
  C62      1.0000 0.18520  0.12194  0.54118  Biso   1.000  C
  H61      1.0000 0.75970  0.89810  0.50040  Biso   1.000  H
  H62      1.0000 0.24030  0.10190  0.49960  Biso   1.000  H
  H63      1.0000 0.76040  0.86930  0.38560  Biso   1.000  H
  H64      1.0000 0.23960  0.13070  0.61440  Biso   1.000  H
  C63      1.0000 0.84770  0.77144  0.47829  Biso   1.000  C
  C64      1.0000 0.15230  0.22856  0.52171  Biso   1.000  C
  H65      1.0000 0.76200  0.71750  0.45960  Biso   1.000  H
  H66      1.0000 0.23800  0.28250  0.54040  Biso   1.000  H
  H67      1.0000 0.90060  0.77940  0.55180  Biso   1.000  H
  H68      1.0000 0.09940  0.22060  0.44820  Biso   1.000  H
  H69      1.0000 0.90130  0.75040  0.43580  Biso   1.000  H
  H70      1.0000 0.09870  0.24960  0.56420  Biso   1.000  H
