data_image0
_cell_length_a       25.161
_cell_length_b       10.045
_cell_length_c       15.4497
_cell_angle_alpha    90
_cell_angle_beta     90
_cell_angle_gamma    90

_symmetry_space_group_name_H-M    "P 1"
_symmetry_int_tables_number       1

loop_
  _symmetry_equiv_pos_as_xyz
  'x, y, z'

loop_
  _atom_site_label
  _atom_site_occupancy
  _atom_site_fract_x
  _atom_site_fract_y
  _atom_site_fract_z
  _atom_site_thermal_displace_type
  _atom_site_B_iso_or_equiv
  _atom_site_type_symbol
  Cu1      1.0000 0.00000  0.00000  0.50000  Biso   1.000  Cu
  Cu2      1.0000 0.50000  0.50000  0.50000  Biso   1.000  Cu
  Cu3      1.0000 0.00000  0.00000  0.00000  Biso   1.000  Cu
  Cu4      1.0000 0.50000  0.50000  0.00000  Biso   1.000  Cu
  N1       1.0000 0.28004  0.07402  0.55157  Biso   1.000  N
  N2       1.0000 0.78004  0.57402  0.55157  Biso   1.000  N
  N3       1.0000 0.71996  0.92598  0.05157  Biso   1.000  N
  N4       1.0000 0.71996  0.07402  0.94843  Biso   1.000  N
  N5       1.0000 0.28004  0.92598  0.44843  Biso   1.000  N
  N6       1.0000 0.21996  0.42598  0.05157  Biso   1.000  N
  N7       1.0000 0.21996  0.57402  0.94843  Biso   1.000  N
  N8       1.0000 0.78004  0.42598  0.44843  Biso   1.000  N
  N9       1.0000 0.71996  0.92598  0.44843  Biso   1.000  N
  N10      1.0000 0.21996  0.42598  0.44843  Biso   1.000  N
  N11      1.0000 0.28004  0.07402  0.94843  Biso   1.000  N
  N12      1.0000 0.28004  0.92598  0.05157  Biso   1.000  N
  N13      1.0000 0.71996  0.07402  0.55157  Biso   1.000  N
  N14      1.0000 0.78004  0.57402  0.94843  Biso   1.000  N
  N15      1.0000 0.78004  0.42598  0.05157  Biso   1.000  N
  N16      1.0000 0.21996  0.57402  0.55157  Biso   1.000  N
  N17      1.0000 0.08096  0.00000  0.50000  Biso   1.000  N
  N18      1.0000 0.58096  0.50000  0.50000  Biso   1.000  N
  N19      1.0000 0.91904  0.00000  0.00000  Biso   1.000  N
  N20      1.0000 0.41904  0.50000  0.00000  Biso   1.000  N
  N21      1.0000 0.91904  0.00000  0.50000  Biso   1.000  N
  N22      1.0000 0.41904  0.50000  0.50000  Biso   1.000  N
  N23      1.0000 0.08096  0.00000  0.00000  Biso   1.000  N
  N24      1.0000 0.58096  0.50000  0.00000  Biso   1.000  N
  O1       1.0000 0.26401  0.16340  0.60400  Biso   1.000  O
  O2       1.0000 0.76401  0.66340  0.60400  Biso   1.000  O
  O3       1.0000 0.73599  0.83660  0.10400  Biso   1.000  O
  O4       1.0000 0.73599  0.16340  0.89600  Biso   1.000  O
  O5       1.0000 0.26401  0.83660  0.39600  Biso   1.000  O
  O6       1.0000 0.23599  0.33660  0.10400  Biso   1.000  O
  O7       1.0000 0.23599  0.66340  0.89600  Biso   1.000  O
  O8       1.0000 0.76401  0.33660  0.39600  Biso   1.000  O
  O9       1.0000 0.73599  0.83660  0.39600  Biso   1.000  O
  O10      1.0000 0.23599  0.33660  0.39600  Biso   1.000  O
  O11      1.0000 0.26401  0.16340  0.89600  Biso   1.000  O
  O12      1.0000 0.26401  0.83660  0.10400  Biso   1.000  O
  O13      1.0000 0.73599  0.16340  0.60400  Biso   1.000  O
  O14      1.0000 0.76401  0.66340  0.89600  Biso   1.000  O
  O15      1.0000 0.76401  0.33660  0.10400  Biso   1.000  O
  O16      1.0000 0.23599  0.66340  0.60400  Biso   1.000  O
  O17      1.0000 0.00000  0.13061  0.59290  Biso   1.000  O
  O18      1.0000 0.50000  0.63061  0.59290  Biso   1.000  O
  O19      1.0000 0.00000  0.86939  0.09290  Biso   1.000  O
  O20      1.0000 0.00000  0.13061  0.90710  Biso   1.000  O
  O21      1.0000 0.00000  0.86939  0.40710  Biso   1.000  O
  O22      1.0000 0.50000  0.36939  0.09290  Biso   1.000  O
  O23      1.0000 0.50000  0.63061  0.90710  Biso   1.000  O
  O24      1.0000 0.50000  0.36939  0.40710  Biso   1.000  O
  O25      1.0000 0.00000  0.32060  0.51921  Biso   1.000  O
  O26      1.0000 0.50000  0.82060  0.51921  Biso   1.000  O
  O27      1.0000 0.00000  0.67940  0.01921  Biso   1.000  O
  O28      1.0000 0.00000  0.32060  0.98079  Biso   1.000  O
  O29      1.0000 0.00000  0.67940  0.48079  Biso   1.000  O
  O30      1.0000 0.50000  0.17940  0.01921  Biso   1.000  O
  O31      1.0000 0.50000  0.82060  0.98079  Biso   1.000  O
  O32      1.0000 0.50000  0.17940  0.48079  Biso   1.000  O
  O33      1.0000 0.00000  0.16440  0.37977  Biso   1.000  O
  O34      1.0000 0.50000  0.66440  0.37977  Biso   1.000  O
  O35      1.0000 0.00000  0.83560  0.87977  Biso   1.000  O
  O36      1.0000 0.00000  0.16440  0.12023  Biso   1.000  O
  O37      1.0000 0.00000  0.83560  0.62023  Biso   1.000  O
  O38      1.0000 0.50000  0.33560  0.87977  Biso   1.000  O
  O39      1.0000 0.50000  0.66440  0.12023  Biso   1.000  O
  O40      1.0000 0.50000  0.33560  0.62023  Biso   1.000  O
  C1       1.0000 0.34514  0.92950  0.61710  Biso   1.000  C
  C2       1.0000 0.84514  0.42950  0.61710  Biso   1.000  C
  C3       1.0000 0.65486  0.07050  0.11710  Biso   1.000  C
  C4       1.0000 0.65486  0.92950  0.88290  Biso   1.000  C
  C5       1.0000 0.34514  0.07050  0.38290  Biso   1.000  C
  C6       1.0000 0.15486  0.57050  0.11710  Biso   1.000  C
  C7       1.0000 0.15486  0.42950  0.88290  Biso   1.000  C
  C8       1.0000 0.84514  0.57050  0.38290  Biso   1.000  C
  C9       1.0000 0.65486  0.07050  0.38290  Biso   1.000  C
  C10      1.0000 0.15486  0.57050  0.38290  Biso   1.000  C
  C11      1.0000 0.34514  0.92950  0.88290  Biso   1.000  C
  C12      1.0000 0.34514  0.07050  0.11710  Biso   1.000  C
  C13      1.0000 0.65486  0.92950  0.61710  Biso   1.000  C
  C14      1.0000 0.84514  0.42950  0.88290  Biso   1.000  C
  C15      1.0000 0.84514  0.57050  0.11710  Biso   1.000  C
  C16      1.0000 0.15486  0.42950  0.61710  Biso   1.000  C
  H1       1.0000 0.33780  0.97030  0.67210  Biso   1.000  H
  H2       1.0000 0.83780  0.47030  0.67210  Biso   1.000  H
  H3       1.0000 0.66220  0.02970  0.17210  Biso   1.000  H
  H4       1.0000 0.66220  0.97030  0.82790  Biso   1.000  H
  H5       1.0000 0.33780  0.02970  0.32790  Biso   1.000  H
  H6       1.0000 0.16220  0.52970  0.17210  Biso   1.000  H
  H7       1.0000 0.16220  0.47030  0.82790  Biso   1.000  H
  H8       1.0000 0.83780  0.52970  0.32790  Biso   1.000  H
  H9       1.0000 0.66220  0.02970  0.32790  Biso   1.000  H
  H10      1.0000 0.16220  0.52970  0.32790  Biso   1.000  H
  H11      1.0000 0.33780  0.97030  0.82790  Biso   1.000  H
  H12      1.0000 0.33780  0.02970  0.17210  Biso   1.000  H
  H13      1.0000 0.66220  0.97030  0.67210  Biso   1.000  H
  H14      1.0000 0.83780  0.47030  0.82790  Biso   1.000  H
  H15      1.0000 0.83780  0.52970  0.17210  Biso   1.000  H
  H16      1.0000 0.16220  0.47030  0.67210  Biso   1.000  H
  H17      1.0000 0.38120  0.89810  0.61630  Biso   1.000  H
  H18      1.0000 0.88120  0.39810  0.61630  Biso   1.000  H
  H19      1.0000 0.61880  0.10190  0.11630  Biso   1.000  H
  H20      1.0000 0.61880  0.89810  0.88370  Biso   1.000  H
  H21      1.0000 0.38120  0.10190  0.38370  Biso   1.000  H
  H22      1.0000 0.11880  0.60190  0.11630  Biso   1.000  H
  H23      1.0000 0.11880  0.39810  0.88370  Biso   1.000  H
  H24      1.0000 0.88120  0.60190  0.38370  Biso   1.000  H
  H25      1.0000 0.61880  0.10190  0.38370  Biso   1.000  H
  H26      1.0000 0.11880  0.60190  0.38370  Biso   1.000  H
  H27      1.0000 0.38120  0.89810  0.88370  Biso   1.000  H
  H28      1.0000 0.38120  0.10190  0.11630  Biso   1.000  H
  H29      1.0000 0.61880  0.89810  0.61630  Biso   1.000  H
  H30      1.0000 0.88120  0.39810  0.88370  Biso   1.000  H
  H31      1.0000 0.88120  0.60190  0.11630  Biso   1.000  H
  H32      1.0000 0.11880  0.39810  0.61630  Biso   1.000  H
  H33      1.0000 0.32140  0.85590  0.60840  Biso   1.000  H
  H34      1.0000 0.82140  0.35590  0.60840  Biso   1.000  H
  H35      1.0000 0.67860  0.14410  0.10840  Biso   1.000  H
  H36      1.0000 0.67860  0.85590  0.89160  Biso   1.000  H
  H37      1.0000 0.32140  0.14410  0.39160  Biso   1.000  H
  H38      1.0000 0.17860  0.64410  0.10840  Biso   1.000  H
  H39      1.0000 0.17860  0.35590  0.89160  Biso   1.000  H
  H40      1.0000 0.82140  0.64410  0.39160  Biso   1.000  H
  H41      1.0000 0.67860  0.14410  0.39160  Biso   1.000  H
  H42      1.0000 0.17860  0.64410  0.39160  Biso   1.000  H
  H43      1.0000 0.32140  0.85590  0.89160  Biso   1.000  H
  H44      1.0000 0.32140  0.14410  0.10840  Biso   1.000  H
  H45      1.0000 0.67860  0.85590  0.60840  Biso   1.000  H
  H46      1.0000 0.82140  0.35590  0.89160  Biso   1.000  H
  H47      1.0000 0.82140  0.64410  0.10840  Biso   1.000  H
  H48      1.0000 0.17860  0.35590  0.60840  Biso   1.000  H
  C17      1.0000 0.37401  0.14900  0.55710  Biso   1.000  C
  C18      1.0000 0.87401  0.64900  0.55710  Biso   1.000  C
  C19      1.0000 0.62599  0.85100  0.05710  Biso   1.000  C
  C20      1.0000 0.62599  0.14900  0.94290  Biso   1.000  C
  C21      1.0000 0.37401  0.85100  0.44290  Biso   1.000  C
  C22      1.0000 0.12599  0.35100  0.05710  Biso   1.000  C
  C23      1.0000 0.12599  0.64900  0.94290  Biso   1.000  C
  C24      1.0000 0.87401  0.35100  0.44290  Biso   1.000  C
  C25      1.0000 0.62599  0.85100  0.44290  Biso   1.000  C
  C26      1.0000 0.12599  0.35100  0.44290  Biso   1.000  C
  C27      1.0000 0.37401  0.14900  0.94290  Biso   1.000  C
  C28      1.0000 0.37401  0.85100  0.05710  Biso   1.000  C
  C29      1.0000 0.62599  0.14900  0.55710  Biso   1.000  C
  C30      1.0000 0.87401  0.64900  0.94290  Biso   1.000  C
  C31      1.0000 0.87401  0.35100  0.05710  Biso   1.000  C
  C32      1.0000 0.12599  0.64900  0.55710  Biso   1.000  C
  H49      1.0000 0.36240  0.22080  0.52080  Biso   1.000  H
  H50      1.0000 0.86240  0.72080  0.52080  Biso   1.000  H
  H51      1.0000 0.63760  0.77920  0.02080  Biso   1.000  H
  H52      1.0000 0.63760  0.22080  0.97920  Biso   1.000  H
  H53      1.0000 0.36240  0.77920  0.47920  Biso   1.000  H
  H54      1.0000 0.13760  0.27920  0.02080  Biso   1.000  H
  H55      1.0000 0.13760  0.72080  0.97920  Biso   1.000  H
  H56      1.0000 0.86240  0.27920  0.47920  Biso   1.000  H
  H57      1.0000 0.63760  0.77920  0.47920  Biso   1.000  H
  H58      1.0000 0.13760  0.27920  0.47920  Biso   1.000  H
  H59      1.0000 0.36240  0.22080  0.97920  Biso   1.000  H
  H60      1.0000 0.36240  0.77920  0.02080  Biso   1.000  H
  H61      1.0000 0.63760  0.22080  0.52080  Biso   1.000  H
  H62      1.0000 0.86240  0.72080  0.97920  Biso   1.000  H
  H63      1.0000 0.86240  0.27920  0.02080  Biso   1.000  H
  H64      1.0000 0.13760  0.72080  0.52080  Biso   1.000  H
  H65      1.0000 0.40960  0.12400  0.54150  Biso   1.000  H
  H66      1.0000 0.90960  0.62400  0.54150  Biso   1.000  H
  H67      1.0000 0.59040  0.87600  0.04150  Biso   1.000  H
  H68      1.0000 0.59040  0.12400  0.95850  Biso   1.000  H
  H69      1.0000 0.40960  0.87600  0.45850  Biso   1.000  H
  H70      1.0000 0.09040  0.37600  0.04150  Biso   1.000  H
  H71      1.0000 0.09040  0.62400  0.95850  Biso   1.000  H
  H72      1.0000 0.90960  0.37600  0.45850  Biso   1.000  H
  H73      1.0000 0.59040  0.87600  0.45850  Biso   1.000  H
  H74      1.0000 0.09040  0.37600  0.45850  Biso   1.000  H
  H75      1.0000 0.40960  0.12400  0.95850  Biso   1.000  H
  H76      1.0000 0.40960  0.87600  0.04150  Biso   1.000  H
  H77      1.0000 0.59040  0.12400  0.54150  Biso   1.000  H
  H78      1.0000 0.90960  0.62400  0.95850  Biso   1.000  H
  H79      1.0000 0.90960  0.37600  0.04150  Biso   1.000  H
  H80      1.0000 0.09040  0.62400  0.54150  Biso   1.000  H
  H81      1.0000 0.37340  0.17710  0.61650  Biso   1.000  H
  H82      1.0000 0.87340  0.67710  0.61650  Biso   1.000  H
  H83      1.0000 0.62660  0.82290  0.11650  Biso   1.000  H
  H84      1.0000 0.62660  0.17710  0.88350  Biso   1.000  H
  H85      1.0000 0.37340  0.82290  0.38350  Biso   1.000  H
  H86      1.0000 0.12660  0.32290  0.11650  Biso   1.000  H
  H87      1.0000 0.12660  0.67710  0.88350  Biso   1.000  H
  H88      1.0000 0.87340  0.32290  0.38350  Biso   1.000  H
  H89      1.0000 0.62660  0.82290  0.38350  Biso   1.000  H
  H90      1.0000 0.12660  0.32290  0.38350  Biso   1.000  H
  H91      1.0000 0.37340  0.17710  0.88350  Biso   1.000  H
  H92      1.0000 0.37340  0.82290  0.11650  Biso   1.000  H
  H93      1.0000 0.62660  0.17710  0.61650  Biso   1.000  H
  H94      1.0000 0.87340  0.67710  0.88350  Biso   1.000  H
  H95      1.0000 0.87340  0.32290  0.11650  Biso   1.000  H
  H96      1.0000 0.12660  0.67710  0.61650  Biso   1.000  H
  C33      1.0000 0.33730  0.03070  0.54557  Biso   1.000  C
  C34      1.0000 0.83730  0.53070  0.54557  Biso   1.000  C
  C35      1.0000 0.66270  0.96930  0.04557  Biso   1.000  C
  C36      1.0000 0.66270  0.03070  0.95443  Biso   1.000  C
  C37      1.0000 0.33730  0.96930  0.45443  Biso   1.000  C
  C38      1.0000 0.16270  0.46930  0.04557  Biso   1.000  C
  C39      1.0000 0.16270  0.53070  0.95443  Biso   1.000  C
  C40      1.0000 0.83730  0.46930  0.45443  Biso   1.000  C
  C41      1.0000 0.66270  0.96930  0.45443  Biso   1.000  C
  C42      1.0000 0.16270  0.46930  0.45443  Biso   1.000  C
  C43      1.0000 0.33730  0.03070  0.95443  Biso   1.000  C
  C44      1.0000 0.33730  0.96930  0.04557  Biso   1.000  C
  C45      1.0000 0.66270  0.03070  0.54557  Biso   1.000  C
  C46      1.0000 0.83730  0.53070  0.95443  Biso   1.000  C
  C47      1.0000 0.83730  0.46930  0.04557  Biso   1.000  C
  C48      1.0000 0.16270  0.53070  0.54557  Biso   1.000  C
  C49      1.0000 0.24927  0.00000  0.50000  Biso   1.000  C
  C50      1.0000 0.74927  0.50000  0.50000  Biso   1.000  C
  C51      1.0000 0.75073  0.00000  0.00000  Biso   1.000  C
  C52      1.0000 0.25073  0.50000  0.00000  Biso   1.000  C
  C53      1.0000 0.75073  0.00000  0.50000  Biso   1.000  C
  C54      1.0000 0.25073  0.50000  0.50000  Biso   1.000  C
  C55      1.0000 0.24927  0.00000  0.00000  Biso   1.000  C
  C56      1.0000 0.74927  0.50000  0.00000  Biso   1.000  C
  C57      1.0000 0.19107  0.00000  0.50000  Biso   1.000  C
  C58      1.0000 0.69107  0.50000  0.50000  Biso   1.000  C
  C59      1.0000 0.80893  0.00000  0.00000  Biso   1.000  C
  C60      1.0000 0.30893  0.50000  0.00000  Biso   1.000  C
  C61      1.0000 0.80893  0.00000  0.50000  Biso   1.000  C
  C62      1.0000 0.30893  0.50000  0.50000  Biso   1.000  C
  C63      1.0000 0.19107  0.00000  0.00000  Biso   1.000  C
  C64      1.0000 0.69107  0.50000  0.00000  Biso   1.000  C
  C65      1.0000 0.16294  0.02070  0.57610  Biso   1.000  C
  C66      1.0000 0.66294  0.52070  0.57610  Biso   1.000  C
  C67      1.0000 0.83706  0.97930  0.07610  Biso   1.000  C
  C68      1.0000 0.83706  0.02070  0.92390  Biso   1.000  C
  C69      1.0000 0.16294  0.97930  0.42390  Biso   1.000  C
  C70      1.0000 0.33706  0.47930  0.07610  Biso   1.000  C
  C71      1.0000 0.33706  0.52070  0.92390  Biso   1.000  C
  C72      1.0000 0.66294  0.47930  0.42390  Biso   1.000  C
  C73      1.0000 0.83706  0.97930  0.42390  Biso   1.000  C
  C74      1.0000 0.33706  0.47930  0.42390  Biso   1.000  C
  C75      1.0000 0.16294  0.02070  0.92390  Biso   1.000  C
  C76      1.0000 0.16294  0.97930  0.07610  Biso   1.000  C
  C77      1.0000 0.83706  0.02070  0.57610  Biso   1.000  C
  C78      1.0000 0.66294  0.52070  0.92390  Biso   1.000  C
  C79      1.0000 0.66294  0.47930  0.07610  Biso   1.000  C
  C80      1.0000 0.33706  0.52070  0.57610  Biso   1.000  C
  H97      1.0000 0.18070  0.03470  0.62810  Biso   1.000  H
  H98      1.0000 0.68070  0.53470  0.62810  Biso   1.000  H
  H99      1.0000 0.81930  0.96530  0.12810  Biso   1.000  H
  H100     1.0000 0.81930  0.03470  0.87190  Biso   1.000  H
  H101     1.0000 0.18070  0.96530  0.37190  Biso   1.000  H
  H102     1.0000 0.31930  0.46530  0.12810  Biso   1.000  H
  H103     1.0000 0.31930  0.53470  0.87190  Biso   1.000  H
  H104     1.0000 0.68070  0.46530  0.37190  Biso   1.000  H
  H105     1.0000 0.81930  0.96530  0.37190  Biso   1.000  H
  H106     1.0000 0.31930  0.46530  0.37190  Biso   1.000  H
  H107     1.0000 0.18070  0.03470  0.87190  Biso   1.000  H
  H108     1.0000 0.18070  0.96530  0.12810  Biso   1.000  H
  H109     1.0000 0.81930  0.03470  0.62810  Biso   1.000  H
  H110     1.0000 0.68070  0.53470  0.87190  Biso   1.000  H
  H111     1.0000 0.68070  0.46530  0.12810  Biso   1.000  H
  H112     1.0000 0.31930  0.53470  0.62810  Biso   1.000  H
  C81      1.0000 0.10832  0.02010  0.57303  Biso   1.000  C
  C82      1.0000 0.60832  0.52010  0.57303  Biso   1.000  C
  C83      1.0000 0.89168  0.97990  0.07303  Biso   1.000  C
  C84      1.0000 0.89168  0.02010  0.92697  Biso   1.000  C
  C85      1.0000 0.10832  0.97990  0.42697  Biso   1.000  C
  C86      1.0000 0.39168  0.47990  0.07303  Biso   1.000  C
  C87      1.0000 0.39168  0.52010  0.92697  Biso   1.000  C
  C88      1.0000 0.60832  0.47990  0.42697  Biso   1.000  C
  C89      1.0000 0.89168  0.97990  0.42697  Biso   1.000  C
  C90      1.0000 0.39168  0.47990  0.42697  Biso   1.000  C
  C91      1.0000 0.10832  0.02010  0.92697  Biso   1.000  C
  C92      1.0000 0.10832  0.97990  0.07303  Biso   1.000  C
  C93      1.0000 0.89168  0.02010  0.57303  Biso   1.000  C
  C94      1.0000 0.60832  0.52010  0.92697  Biso   1.000  C
  C95      1.0000 0.60832  0.47990  0.07303  Biso   1.000  C
  C96      1.0000 0.39168  0.52010  0.57303  Biso   1.000  C
  H113     1.0000 0.08960  0.03440  0.62410  Biso   1.000  H
  H114     1.0000 0.58960  0.53440  0.62410  Biso   1.000  H
  H115     1.0000 0.91040  0.96560  0.12410  Biso   1.000  H
  H116     1.0000 0.91040  0.03440  0.87590  Biso   1.000  H
  H117     1.0000 0.08960  0.96560  0.37590  Biso   1.000  H
  H118     1.0000 0.41040  0.46560  0.12410  Biso   1.000  H
  H119     1.0000 0.41040  0.53440  0.87590  Biso   1.000  H
  H120     1.0000 0.58960  0.46560  0.37590  Biso   1.000  H
  H121     1.0000 0.91040  0.96560  0.37590  Biso   1.000  H
  H122     1.0000 0.41040  0.46560  0.37590  Biso   1.000  H
  H123     1.0000 0.08960  0.03440  0.87590  Biso   1.000  H
  H124     1.0000 0.08960  0.96560  0.12410  Biso   1.000  H
  H125     1.0000 0.91040  0.03440  0.62410  Biso   1.000  H
  H126     1.0000 0.58960  0.53440  0.87590  Biso   1.000  H
  H127     1.0000 0.58960  0.46560  0.12410  Biso   1.000  H
  H128     1.0000 0.41040  0.53440  0.62410  Biso   1.000  H
  C97      1.0000 0.00000  0.25630  0.58732  Biso   1.000  C
  C98      1.0000 0.50000  0.75630  0.58732  Biso   1.000  C
  C99      1.0000 0.00000  0.74370  0.08732  Biso   1.000  C
  C100     1.0000 0.00000  0.25630  0.91268  Biso   1.000  C
  C101     1.0000 0.00000  0.74370  0.41268  Biso   1.000  C
  C102     1.0000 0.50000  0.24370  0.08732  Biso   1.000  C
  C103     1.0000 0.50000  0.75630  0.91268  Biso   1.000  C
  C104     1.0000 0.50000  0.24370  0.41268  Biso   1.000  C
  C105     1.0000 0.00000  0.32970  0.67204  Biso   1.000  C
  C106     1.0000 0.50000  0.82970  0.67204  Biso   1.000  C
  C107     1.0000 0.00000  0.67030  0.17204  Biso   1.000  C
  C108     1.0000 0.00000  0.32970  0.82796  Biso   1.000  C
  C109     1.0000 0.00000  0.67030  0.32796  Biso   1.000  C
  C110     1.0000 0.50000  0.17030  0.17204  Biso   1.000  C
  C111     1.0000 0.50000  0.82970  0.82796  Biso   1.000  C
  C112     1.0000 0.50000  0.17030  0.32796  Biso   1.000  C
  C113     1.0000 0.00000  0.46800  0.67270  Biso   1.000  C
  C114     1.0000 0.50000  0.96800  0.67270  Biso   1.000  C
  C115     1.0000 0.00000  0.53200  0.17270  Biso   1.000  C
  C116     1.0000 0.00000  0.46800  0.82730  Biso   1.000  C
  C117     1.0000 0.00000  0.53200  0.32730  Biso   1.000  C
  C118     1.0000 0.50000  0.03200  0.17270  Biso   1.000  C
  C119     1.0000 0.50000  0.96800  0.82730  Biso   1.000  C
  C120     1.0000 0.50000  0.03200  0.32730  Biso   1.000  C
  H129     1.0000 0.00000  0.51470  0.62070  Biso   1.000  H
  H130     1.0000 0.50000  0.01470  0.62070  Biso   1.000  H
  H131     1.0000 0.00000  0.48530  0.12070  Biso   1.000  H
  H132     1.0000 0.00000  0.51470  0.87930  Biso   1.000  H
  H133     1.0000 0.00000  0.48530  0.37930  Biso   1.000  H
  H134     1.0000 0.50000  0.98530  0.12070  Biso   1.000  H
  H135     1.0000 0.50000  0.01470  0.87930  Biso   1.000  H
  H136     1.0000 0.50000  0.98530  0.37930  Biso   1.000  H
  C121     1.0000 0.00000  0.53630  0.75000  Biso   1.000  C
  C122     1.0000 0.50000  0.03630  0.75000  Biso   1.000  C
  C123     1.0000 0.00000  0.46370  0.25000  Biso   1.000  C
  C124     1.0000 0.50000  0.96370  0.25000  Biso   1.000  C
  H137     1.0000 0.00000  0.62890  0.75000  Biso   1.000  H
  H138     1.0000 0.50000  0.12890  0.75000  Biso   1.000  H
  H139     1.0000 0.00000  0.37110  0.25000  Biso   1.000  H
  H140     1.0000 0.50000  0.87110  0.25000  Biso   1.000  H
  C125     1.0000 0.00000  0.26170  0.75000  Biso   1.000  C
  C126     1.0000 0.50000  0.76170  0.75000  Biso   1.000  C
  C127     1.0000 0.00000  0.73830  0.25000  Biso   1.000  C
  C128     1.0000 0.50000  0.23830  0.25000  Biso   1.000  C
  H141     1.0000 0.00000  0.16910  0.75000  Biso   1.000  H
  H142     1.0000 0.50000  0.66910  0.75000  Biso   1.000  H
  H143     1.0000 0.00000  0.83090  0.25000  Biso   1.000  H
  H144     1.0000 0.50000  0.33090  0.25000  Biso   1.000  H
  O41      1.0000 0.07678  0.14450  0.25000  Biso   1.000  O
  O42      1.0000 0.57678  0.64450  0.25000  Biso   1.000  O
  O43      1.0000 0.92322  0.85550  0.75000  Biso   1.000  O
  O44      1.0000 0.92322  0.14450  0.25000  Biso   1.000  O
  O45      1.0000 0.07678  0.85550  0.75000  Biso   1.000  O
  O46      1.0000 0.42322  0.35550  0.75000  Biso   1.000  O
  O47      1.0000 0.42322  0.64450  0.25000  Biso   1.000  O
  O48      1.0000 0.57678  0.35550  0.75000  Biso   1.000  O
  O49      1.0000 0.31175  0.29580  0.75000  Biso   1.000  O
  O50      1.0000 0.81175  0.79580  0.75000  Biso   1.000  O
  O51      1.0000 0.68825  0.70420  0.25000  Biso   1.000  O
  O52      1.0000 0.68825  0.29580  0.75000  Biso   1.000  O
  O53      1.0000 0.31175  0.70420  0.25000  Biso   1.000  O
  O54      1.0000 0.18825  0.20420  0.25000  Biso   1.000  O
  O55      1.0000 0.18825  0.79580  0.75000  Biso   1.000  O
  O56      1.0000 0.81175  0.20420  0.25000  Biso   1.000  O
  H145     1.0000 0.29700  0.25700  0.70730  Biso   1.000  H
  H146     1.0000 0.79700  0.75700  0.70730  Biso   1.000  H
  H147     1.0000 0.70300  0.74300  0.20730  Biso   1.000  H
  H148     1.0000 0.70300  0.25700  0.79270  Biso   1.000  H
  H149     1.0000 0.29700  0.74300  0.29270  Biso   1.000  H
  H150     1.0000 0.20300  0.24300  0.20730  Biso   1.000  H
  H151     1.0000 0.20300  0.75700  0.79270  Biso   1.000  H
  H152     1.0000 0.79700  0.24300  0.29270  Biso   1.000  H
  H153     1.0000 0.70300  0.74300  0.29270  Biso   1.000  H
  H154     1.0000 0.20300  0.24300  0.29270  Biso   1.000  H
  H155     1.0000 0.29700  0.25700  0.79270  Biso   1.000  H
  H156     1.0000 0.29700  0.74300  0.20730  Biso   1.000  H
  H157     1.0000 0.70300  0.25700  0.70730  Biso   1.000  H
  H158     1.0000 0.79700  0.75700  0.79270  Biso   1.000  H
  H159     1.0000 0.79700  0.24300  0.20730  Biso   1.000  H
  H160     1.0000 0.20300  0.75700  0.70730  Biso   1.000  H
  H161     1.0000 0.00000  0.22600  0.41730  Biso   1.000  H
  H162     1.0000 0.50000  0.72600  0.41730  Biso   1.000  H
  H163     1.0000 0.00000  0.77400  0.91730  Biso   1.000  H
  H164     1.0000 0.00000  0.22600  0.08270  Biso   1.000  H
  H165     1.0000 0.00000  0.77400  0.58270  Biso   1.000  H
  H166     1.0000 0.50000  0.27400  0.91730  Biso   1.000  H
  H167     1.0000 0.50000  0.72600  0.08270  Biso   1.000  H
  H168     1.0000 0.50000  0.27400  0.58270  Biso   1.000  H
  H169     1.0000 0.10940  0.16600  0.25000  Biso   1.000  H
  H170     1.0000 0.60940  0.66600  0.25000  Biso   1.000  H
  H171     1.0000 0.89060  0.83400  0.75000  Biso   1.000  H
  H172     1.0000 0.89060  0.16600  0.25000  Biso   1.000  H
  H173     1.0000 0.10940  0.83400  0.75000  Biso   1.000  H
  H174     1.0000 0.39060  0.33400  0.75000  Biso   1.000  H
  H175     1.0000 0.39060  0.66600  0.25000  Biso   1.000  H
  H176     1.0000 0.60940  0.33400  0.75000  Biso   1.000  H
  H177     1.0000 0.02770  0.15600  0.34900  Biso   1.000  H
  H178     1.0000 0.52770  0.65600  0.34900  Biso   1.000  H
  H179     1.0000 0.97230  0.84400  0.84900  Biso   1.000  H
  H180     1.0000 0.97230  0.15600  0.15100  Biso   1.000  H
  H181     1.0000 0.02770  0.84400  0.65100  Biso   1.000  H
  H182     1.0000 0.47230  0.34400  0.84900  Biso   1.000  H
  H183     1.0000 0.47230  0.65600  0.15100  Biso   1.000  H
  H184     1.0000 0.52770  0.34400  0.65100  Biso   1.000  H
  H185     1.0000 0.97230  0.84400  0.65100  Biso   1.000  H
  H186     1.0000 0.47230  0.34400  0.65100  Biso   1.000  H
  H187     1.0000 0.02770  0.15600  0.15100  Biso   1.000  H
  H188     1.0000 0.02770  0.84400  0.84900  Biso   1.000  H
  H189     1.0000 0.97230  0.15600  0.34900  Biso   1.000  H
  H190     1.0000 0.52770  0.65600  0.15100  Biso   1.000  H
  H191     1.0000 0.52770  0.34400  0.84900  Biso   1.000  H
  H192     1.0000 0.47230  0.65600  0.34900  Biso   1.000  H
  H193     1.0000 0.05440  0.20800  0.25000  Biso   1.000  H
  H194     1.0000 0.55440  0.70800  0.25000  Biso   1.000  H
  H195     1.0000 0.94560  0.79200  0.75000  Biso   1.000  H
  H196     1.0000 0.94560  0.20800  0.25000  Biso   1.000  H
  H197     1.0000 0.05440  0.79200  0.75000  Biso   1.000  H
  H198     1.0000 0.44560  0.29200  0.75000  Biso   1.000  H
  H199     1.0000 0.44560  0.70800  0.25000  Biso   1.000  H
  H200     1.0000 0.55440  0.29200  0.75000  Biso   1.000  H
