data_image0
_cell_length_a       10.609
_cell_length_b       13.056
_cell_length_c       13.217
_cell_angle_alpha    76.882
_cell_angle_beta     68.312
_cell_angle_gamma    84.538

_symmetry_space_group_name_H-M    "P 1"
_symmetry_int_tables_number       1

loop_
  _symmetry_equiv_pos_as_xyz
  'x, y, z'

loop_
  _atom_site_label
  _atom_site_occupancy
  _atom_site_fract_x
  _atom_site_fract_y
  _atom_site_fract_z
  _atom_site_thermal_displace_type
  _atom_site_B_iso_or_equiv
  _atom_site_type_symbol
  Cu1      1.0000 0.00000  0.50000  0.50000  Biso   1.000  Cu
  O1       1.0000 0.11334  0.38041  0.53352  Biso   1.000  O
  O2       1.0000 0.88666  0.61959  0.46648  Biso   1.000  O
  C1       1.0000 0.28850  0.25780  0.51830  Biso   1.000  C
  C2       1.0000 0.71150  0.74220  0.48170  Biso   1.000  C
  F1       1.0000 0.23800  0.19908  0.47275  Biso   1.000  F
  F2       1.0000 0.76200  0.80092  0.52725  Biso   1.000  F
  F3       1.0000 0.42150  0.24608  0.47879  Biso   1.000  F
  F4       1.0000 0.57850  0.75392  0.52121  Biso   1.000  F
  F5       1.0000 0.24530  0.21768  0.62616  Biso   1.000  F
  F6       1.0000 0.75470  0.78232  0.37384  Biso   1.000  F
  C3       1.0000 0.24010  0.37170  0.49580  Biso   1.000  C
  C4       1.0000 0.75990  0.62830  0.50420  Biso   1.000  C
  C5       1.0000 0.33620  0.44800  0.43930  Biso   1.000  C
  C6       1.0000 0.66380  0.55200  0.56070  Biso   1.000  C
  H1       1.0000 0.42940  0.42790  0.41540  Biso   1.000  H
  H2       1.0000 0.57060  0.57210  0.58460  Biso   1.000  H
  C7       1.0000 0.30120  0.55440  0.41570  Biso   1.000  C
  C8       1.0000 0.69880  0.44560  0.58430  Biso   1.000  C
  C9       1.0000 0.41480  0.63280  0.34890  Biso   1.000  C
  C10      1.0000 0.58520  0.36720  0.65110  Biso   1.000  C
  F7       1.0000 0.38620  0.69770  0.26870  Biso   1.000  F
  F8       1.0000 0.61380  0.30230  0.73130  Biso   1.000  F
  F9       1.0000 0.42810  0.69580  0.40660  Biso   1.000  F
  F10      1.0000 0.57190  0.30420  0.59340  Biso   1.000  F
  F11      1.0000 0.53350  0.59360  0.29630  Biso   1.000  F
  F12      1.0000 0.46650  0.40640  0.70370  Biso   1.000  F
  O3       1.0000 0.18680  0.59513  0.44353  Biso   1.000  O
  O4       1.0000 0.81320  0.40487  0.55647  Biso   1.000  O
  Cu2      1.0000 0.00000  0.00000  0.00000  Biso   1.000  Cu
  O5       1.0000 0.11264  0.95118  0.86299  Biso   1.000  O
  O6       1.0000 0.88736  0.04882  0.13701  Biso   1.000  O
  C11      1.0000 0.28820  0.94980  0.69360  Biso   1.000  C
  C12      1.0000 0.71180  0.05020  0.30640  Biso   1.000  C
  F13      1.0000 0.18690  0.97920  0.64050  Biso   1.000  F
  F14      1.0000 0.81310  0.02080  0.35950  Biso   1.000  F
  F15      1.0000 0.38854  0.00804  0.62009  Biso   1.000  F
  F16      1.0000 0.61146  0.99196  0.37991  Biso   1.000  F
  F17      1.0000 0.31020  0.85860  0.69520  Biso   1.000  F
  F18      1.0000 0.68980  0.14140  0.30480  Biso   1.000  F
  C13      1.0000 0.23000  0.98290  0.80570  Biso   1.000  C
  C14      1.0000 0.77000  0.01710  0.19430  Biso   1.000  C
  C15      1.0000 0.31200  0.04090  0.83230  Biso   1.000  C
  C16      1.0000 0.68800  0.95910  0.16770  Biso   1.000  C
  H3       1.0000 0.40060  0.05900  0.78040  Biso   1.000  H
  H4       1.0000 0.59940  0.94100  0.21960  Biso   1.000  H
  C17      1.0000 0.26760  0.07246  0.93190  Biso   1.000  C
  C18      1.0000 0.73240  0.92754  0.06810  Biso   1.000  C
  C19      1.0000 0.36510  0.13160  0.95820  Biso   1.000  C
  C20      1.0000 0.63490  0.86840  0.04180  Biso   1.000  C
  F19      1.0000 0.36280  0.09432  0.05951  Biso   1.000  F
  F20      1.0000 0.63720  0.90568  0.94049  Biso   1.000  F
  F21      1.0000 0.49136  0.12728  0.89051  Biso   1.000  F
  F22      1.0000 0.50864  0.87272  0.10949  Biso   1.000  F
  F23      1.0000 0.33000  0.23093  0.95226  Biso   1.000  F
  F24      1.0000 0.67000  0.76907  0.04774  Biso   1.000  F
  O7       1.0000 0.15321  0.06181  0.00750  Biso   1.000  O
  O8       1.0000 0.84679  0.93819  0.99250  Biso   1.000  O
  O9       1.0000 0.91760  0.51567  0.66023  Biso   1.000  O
  O10      1.0000 0.08240  0.48433  0.33977  Biso   1.000  O
  N1       1.0000 0.99110  0.52554  0.71733  Biso   1.000  N
  N2       1.0000 0.00890  0.47446  0.28267  Biso   1.000  N
  C21      1.0000 0.00860  0.62924  0.74030  Biso   1.000  C
  C22      1.0000 0.99140  0.37076  0.25970  Biso   1.000  C
  C23      1.0000 0.87450  0.65260  0.82800  Biso   1.000  C
  C24      1.0000 0.12550  0.34740  0.17200  Biso   1.000  C
  H5       1.0000 0.80490  0.66990  0.79430  Biso   1.000  H
  H6       1.0000 0.19510  0.33010  0.20570  Biso   1.000  H
  H7       1.0000 0.84680  0.59070  0.88870  Biso   1.000  H
  H8       1.0000 0.15320  0.40930  0.11130  Biso   1.000  H
  H9       1.0000 0.88550  0.71230  0.85740  Biso   1.000  H
  H10      1.0000 0.11450  0.28770  0.14260  Biso   1.000  H
  C25      1.0000 0.03900  0.71540  0.63660  Biso   1.000  C
  C26      1.0000 0.96100  0.28460  0.36340  Biso   1.000  C
  H11      1.0000 0.95940  0.72800  0.61450  Biso   1.000  H
  H12      1.0000 0.04060  0.27200  0.38550  Biso   1.000  H
  H13      1.0000 0.06120  0.78020  0.65190  Biso   1.000  H
  H14      1.0000 0.93880  0.21980  0.34810  Biso   1.000  H
  H15      1.0000 0.11620  0.69390  0.57630  Biso   1.000  H
  H16      1.0000 0.88380  0.30610  0.42370  Biso   1.000  H
  C27      1.0000 0.12520  0.60080  0.78460  Biso   1.000  C
  C28      1.0000 0.87480  0.39920  0.21540  Biso   1.000  C
  C29      1.0000 0.11930  0.65370  0.87650  Biso   1.000  C
  C30      1.0000 0.88070  0.34630  0.12350  Biso   1.000  C
  H17      1.0000 0.19740  0.63100  0.89910  Biso   1.000  H
  H18      1.0000 0.80260  0.36900  0.10090  Biso   1.000  H
  H19      1.0000 0.12130  0.73020  0.84980  Biso   1.000  H
  H20      1.0000 0.87870  0.26980  0.15020  Biso   1.000  H
  H21      1.0000 0.03530  0.63440  0.94030  Biso   1.000  H
  H22      1.0000 0.96470  0.36560  0.05970  Biso   1.000  H
  C31      1.0000 0.26570  0.60970  0.69430  Biso   1.000  C
  C32      1.0000 0.73430  0.39030  0.30570  Biso   1.000  C
  H23      1.0000 0.33450  0.59070  0.72860  Biso   1.000  H
  H24      1.0000 0.66550  0.40930  0.27140  Biso   1.000  H
  H25      1.0000 0.27320  0.56210  0.64470  Biso   1.000  H
  H26      1.0000 0.72680  0.43790  0.35530  Biso   1.000  H
  H27      1.0000 0.27980  0.68220  0.65130  Biso   1.000  H
  H28      1.0000 0.72020  0.31780  0.34870  Biso   1.000  H
  N3       1.0000 0.10170  0.48563  0.83005  Biso   1.000  N
  N4       1.0000 0.89830  0.51437  0.16995  Biso   1.000  N
  O11      1.0000 0.15595  0.43226  0.89611  Biso   1.000  O
  O12      1.0000 0.84405  0.56774  0.10389  Biso   1.000  O
  C33      1.0000 0.02970  0.44566  0.78240  Biso   1.000  C
  C34      1.0000 0.97030  0.55434  0.21760  Biso   1.000  C
  C35      1.0000 0.99870  0.33768  0.80280  Biso   1.000  C
  C36      1.0000 0.00130  0.66232  0.19720  Biso   1.000  C
  C37      1.0000 0.03130  0.25300  0.87600  Biso   1.000  C
  C38      1.0000 0.96870  0.74700  0.12400  Biso   1.000  C
  H29      1.0000 0.08180  0.25900  0.92060  Biso   1.000  H
  H30      1.0000 0.91820  0.74100  0.07940  Biso   1.000  H
  N5       1.0000 0.98310  0.16432  0.87487  Biso   1.000  N
  N6       1.0000 0.01690  0.83568  0.12513  Biso   1.000  N
  N7       1.0000 0.91930  0.19083  0.80025  Biso   1.000  N
  N8       1.0000 0.08070  0.80917  0.19975  Biso   1.000  N
  C39      1.0000 0.85610  0.11040  0.77450  Biso   1.000  C
  C40      1.0000 0.14390  0.88960  0.22550  Biso   1.000  C
  H31      1.0000 0.87960  0.04020  0.81100  Biso   1.000  H
  H32      1.0000 0.12040  0.95980  0.18900  Biso   1.000  H
  H33      1.0000 0.75630  0.11930  0.80590  Biso   1.000  H
  H34      1.0000 0.24370  0.88070  0.19410  Biso   1.000  H
  C41      1.0000 0.89890  0.11480  0.65260  Biso   1.000  C
  C42      1.0000 0.10110  0.88520  0.34740  Biso   1.000  C
  H35      1.0000 0.86620  0.18180  0.61740  Biso   1.000  H
  H36      1.0000 0.13380  0.81820  0.38260  Biso   1.000  H
  H37      1.0000 0.99930  0.11400  0.61970  Biso   1.000  H
  H38      1.0000 0.00070  0.88600  0.38030  Biso   1.000  H
  C43      1.0000 0.84480  0.02300  0.62640  Biso   1.000  C
  C44      1.0000 0.15520  0.97700  0.37360  Biso   1.000  C
  H39      1.0000 0.87140  0.95620  0.66700  Biso   1.000  H
  H40      1.0000 0.12860  0.04380  0.33300  Biso   1.000  H
  H41      1.0000 0.88870  0.02410  0.54580  Biso   1.000  H
  H42      1.0000 0.11130  0.97590  0.45420  Biso   1.000  H
  C45      1.0000 0.69940  0.02430  0.65530  Biso   1.000  C
  C46      1.0000 0.30060  0.97570  0.34470  Biso   1.000  C
  H43      1.0000 0.67330  0.96400  0.63490  Biso   1.000  H
  H44      1.0000 0.32670  0.03600  0.36510  Biso   1.000  H
  H45      1.0000 0.65450  0.02000  0.73560  Biso   1.000  H
  H46      1.0000 0.34550  0.98000  0.26440  Biso   1.000  H
  H47      1.0000 0.67170  0.08960  0.61490  Biso   1.000  H
  H48      1.0000 0.32830  0.91040  0.38510  Biso   1.000  H
  C47      1.0000 0.92530  0.29169  0.75541  Biso   1.000  C
  C48      1.0000 0.07470  0.70831  0.24459  Biso   1.000  C
  H49      1.0000 0.88760  0.32670  0.70160  Biso   1.000  H
  H50      1.0000 0.11240  0.67330  0.29840  Biso   1.000  H
  C49      1.0000 0.46109  0.54353  0.95695  Biso   1.000  C
  C50      1.0000 0.53891  0.45647  0.04305  Biso   1.000  C
  C51      1.0000 0.52585  0.59652  0.84654  Biso   1.000  C
  C52      1.0000 0.47415  0.40348  0.15346  Biso   1.000  C
  H51      1.0000 0.57980  0.55780  0.79120  Biso   1.000  H
  H52      1.0000 0.42020  0.44220  0.20880  Biso   1.000  H
  C53      1.0000 0.51161  0.70632  0.81705  Biso   1.000  C
  C54      1.0000 0.48839  0.29368  0.18295  Biso   1.000  C
  H53      1.0000 0.55590  0.74250  0.74150  Biso   1.000  H
  H54      1.0000 0.44410  0.25750  0.25850  Biso   1.000  H
  C55      1.0000 0.43260  0.76310  0.89795  Biso   1.000  C
  C56      1.0000 0.56740  0.23690  0.10205  Biso   1.000  C
  H55      1.0000 0.42290  0.83800  0.87780  Biso   1.000  H
  H56      1.0000 0.57710  0.16200  0.12220  Biso   1.000  H
  C57      1.0000 0.36784  0.71011  0.00835  Biso   1.000  C
  C58      1.0000 0.63216  0.28989  0.99165  Biso   1.000  C
  H57      1.0000 0.31380  0.74880  0.06370  Biso   1.000  H
  H58      1.0000 0.68620  0.25120  0.93630  Biso   1.000  H
  C59      1.0000 0.38208  0.60034  0.03785  Biso   1.000  C
  C60      1.0000 0.61792  0.39966  0.96215  Biso   1.000  C
  H59      1.0000 0.33780  0.56410  0.11340  Biso   1.000  H
  H60      1.0000 0.66220  0.43590  0.88660  Biso   1.000  H
  C61      1.0000 0.48123  0.42768  0.98765  Biso   1.000  C
  C62      1.0000 0.51877  0.57232  0.01235  Biso   1.000  C
  H61      1.0000 0.45570  0.39470  0.94020  Biso   1.000  H
  H62      1.0000 0.54430  0.60530  0.05980  Biso   1.000  H
  H63      1.0000 0.42110  0.40280  0.06270  Biso   1.000  H
  H64      1.0000 0.57890  0.59720  0.93730  Biso   1.000  H
  C63      1.0000 0.62262  0.39319  0.97943  Biso   1.000  C
  C64      1.0000 0.37738  0.60681  0.02057  Biso   1.000  C
  H65      1.0000 0.64930  0.42640  0.02610  Biso   1.000  H
  H66      1.0000 0.35070  0.57360  0.97390  Biso   1.000  H
  H67      1.0000 0.68320  0.41600  0.90410  Biso   1.000  H
  H68      1.0000 0.31680  0.58400  0.09590  Biso   1.000  H
  C65      1.0000 0.63648  0.27372  0.01411  Biso   1.000  C
  C66      1.0000 0.36352  0.72628  0.98589  Biso   1.000  C
  H69      1.0000 0.72870  0.25560  0.00740  Biso   1.000  H
  H70      1.0000 0.27130  0.74440  0.99260  Biso   1.000  H
  H71      1.0000 0.57760  0.25050  0.08990  Biso   1.000  H
  H72      1.0000 0.42240  0.74950  0.91010  Biso   1.000  H
  H73      1.0000 0.61180  0.24010  0.96670  Biso   1.000  H
  H74      1.0000 0.38820  0.75990  0.03330  Biso   1.000  H
  F25      1.0000 0.58120  0.33650  0.74870  Biso   1.000  F
  F26      1.0000 0.41880  0.66350  0.25130  Biso   1.000  F
  F27      1.0000 0.60350  0.28600  0.60550  Biso   1.000  F
  F28      1.0000 0.39650  0.71400  0.39450  Biso   1.000  F
  F29      1.0000 0.47190  0.40450  0.64570  Biso   1.000  F
  F30      1.0000 0.52810  0.59550  0.35430  Biso   1.000  F
  F31      1.0000 0.79260  0.07780  0.33860  Biso   1.000  F
  F32      1.0000 0.20740  0.92220  0.66140  Biso   1.000  F
  F33      1.0000 0.63800  0.15240  0.28180  Biso   1.000  F
  F34      1.0000 0.36200  0.84760  0.71820  Biso   1.000  F
