data_image0
_cell_length_a       10.513
_cell_length_b       12.896
_cell_length_c       13.054
_cell_angle_alpha    76.988
_cell_angle_beta     68.489
_cell_angle_gamma    84.594

_symmetry_space_group_name_H-M    "P 1"
_symmetry_int_tables_number       1

loop_
  _symmetry_equiv_pos_as_xyz
  'x, y, z'

loop_
  _atom_site_label
  _atom_site_occupancy
  _atom_site_fract_x
  _atom_site_fract_y
  _atom_site_fract_z
  _atom_site_thermal_displace_type
  _atom_site_B_iso_or_equiv
  _atom_site_type_symbol
  Cu1      1.0000 0.00000  0.50000  0.50000  Biso   1.000  Cu
  O1       1.0000 0.11465  0.38177  0.53411  Biso   1.000  O
  O2       1.0000 0.88535  0.61823  0.46589  Biso   1.000  O
  C1       1.0000 0.28930  0.25830  0.51710  Biso   1.000  C
  C2       1.0000 0.71070  0.74170  0.48290  Biso   1.000  C
  F1       1.0000 0.23793  0.19965  0.47139  Biso   1.000  F
  F2       1.0000 0.76207  0.80035  0.52861  Biso   1.000  F
  F3       1.0000 0.42252  0.24574  0.47694  Biso   1.000  F
  F4       1.0000 0.57748  0.75426  0.52306  Biso   1.000  F
  F5       1.0000 0.24691  0.21769  0.62574  Biso   1.000  F
  F6       1.0000 0.75309  0.78231  0.37426  Biso   1.000  F
  C3       1.0000 0.24160  0.37260  0.49540  Biso   1.000  C
  C4       1.0000 0.75840  0.62740  0.50460  Biso   1.000  C
  C5       1.0000 0.33760  0.44900  0.43800  Biso   1.000  C
  C6       1.0000 0.66240  0.55100  0.56200  Biso   1.000  C
  H1       1.0000 0.43140  0.42850  0.41320  Biso   1.000  H
  H2       1.0000 0.56860  0.57150  0.58680  Biso   1.000  H
  C7       1.0000 0.30300  0.55540  0.41450  Biso   1.000  C
  C8       1.0000 0.69700  0.44460  0.58550  Biso   1.000  C
  C9       1.0000 0.41690  0.63400  0.34660  Biso   1.000  C
  C10      1.0000 0.58310  0.36600  0.65340  Biso   1.000  C
  F7       1.0000 0.38660  0.70140  0.26750  Biso   1.000  F
  F8       1.0000 0.61340  0.29860  0.73250  Biso   1.000  F
  F9       1.0000 0.43260  0.69280  0.40590  Biso   1.000  F
  F10      1.0000 0.56740  0.30720  0.59410  Biso   1.000  F
  F11      1.0000 0.53340  0.59220  0.29230  Biso   1.000  F
  F12      1.0000 0.46660  0.40780  0.70770  Biso   1.000  F
  O3       1.0000 0.18895  0.59693  0.44355  Biso   1.000  O
  O4       1.0000 0.81105  0.40307  0.55645  Biso   1.000  O
  Cu2      1.0000 0.00000  0.00000  0.00000  Biso   1.000  Cu
  O5       1.0000 0.11290  0.95060  0.86276  Biso   1.000  O
  O6       1.0000 0.88710  0.04940  0.13724  Biso   1.000  O
  C11      1.0000 0.28800  0.95010  0.69250  Biso   1.000  C
  C12      1.0000 0.71200  0.04990  0.30750  Biso   1.000  C
  F13      1.0000 0.18610  0.97970  0.63900  Biso   1.000  F
  F14      1.0000 0.81390  0.02030  0.36100  Biso   1.000  F
  F15      1.0000 0.38863  0.00910  0.61926  Biso   1.000  F
  F16      1.0000 0.61137  0.99090  0.38074  Biso   1.000  F
  F17      1.0000 0.31100  0.85890  0.69380  Biso   1.000  F
  F18      1.0000 0.68900  0.14110  0.30620  Biso   1.000  F
  C13      1.0000 0.22990  0.98310  0.80530  Biso   1.000  C
  C14      1.0000 0.77010  0.01690  0.19470  Biso   1.000  C
  C15      1.0000 0.31170  0.04080  0.83280  Biso   1.000  C
  C16      1.0000 0.68830  0.95920  0.16720  Biso   1.000  C
  H3       1.0000 0.40120  0.05900  0.78070  Biso   1.000  H
  H4       1.0000 0.59880  0.94100  0.21930  Biso   1.000  H
  C17      1.0000 0.26750  0.07231  0.93290  Biso   1.000  C
  C18      1.0000 0.73250  0.92769  0.06710  Biso   1.000  C
  C19      1.0000 0.36510  0.13166  0.95970  Biso   1.000  C
  C20      1.0000 0.63490  0.86834  0.04030  Biso   1.000  C
  F19      1.0000 0.35820  0.09693  0.06342  Biso   1.000  F
  F20      1.0000 0.64180  0.90307  0.93658  Biso   1.000  F
  F21      1.0000 0.49204  0.12339  0.89474  Biso   1.000  F
  F22      1.0000 0.50796  0.87661  0.10526  Biso   1.000  F
  F23      1.0000 0.33268  0.23234  0.94956  Biso   1.000  F
  F24      1.0000 0.66732  0.76766  0.05044  Biso   1.000  F
  O7       1.0000 0.15316  0.06174  0.00831  Biso   1.000  O
  O8       1.0000 0.84684  0.93826  0.99169  Biso   1.000  O
  O9       1.0000 0.91787  0.51575  0.65849  Biso   1.000  O
  O10      1.0000 0.08213  0.48425  0.34151  Biso   1.000  O
  N1       1.0000 0.99110  0.52588  0.71621  Biso   1.000  N
  N2       1.0000 0.00890  0.47412  0.28379  Biso   1.000  N
  C21      1.0000 0.00770  0.62998  0.73960  Biso   1.000  C
  C22      1.0000 0.99230  0.37002  0.26040  Biso   1.000  C
  C23      1.0000 0.87380  0.65290  0.82790  Biso   1.000  C
  C24      1.0000 0.12620  0.34710  0.17210  Biso   1.000  C
  H5       1.0000 0.80330  0.67040  0.79400  Biso   1.000  H
  H6       1.0000 0.19670  0.32960  0.20600  Biso   1.000  H
  H7       1.0000 0.84640  0.59000  0.88890  Biso   1.000  H
  H8       1.0000 0.15360  0.41000  0.11110  Biso   1.000  H
  H9       1.0000 0.88490  0.71320  0.85800  Biso   1.000  H
  H10      1.0000 0.11510  0.28680  0.14200  Biso   1.000  H
  C25      1.0000 0.03800  0.71655  0.63610  Biso   1.000  C
  C26      1.0000 0.96200  0.28345  0.36390  Biso   1.000  C
  H11      1.0000 0.95760  0.72940  0.61360  Biso   1.000  H
  H12      1.0000 0.04240  0.27060  0.38640  Biso   1.000  H
  H13      1.0000 0.06030  0.78190  0.65200  Biso   1.000  H
  H14      1.0000 0.93970  0.21810  0.34800  Biso   1.000  H
  H15      1.0000 0.11570  0.69500  0.57510  Biso   1.000  H
  H16      1.0000 0.88430  0.30500  0.42490  Biso   1.000  H
  C27      1.0000 0.12480  0.60180  0.78410  Biso   1.000  C
  C28      1.0000 0.87520  0.39820  0.21590  Biso   1.000  C
  C29      1.0000 0.11840  0.65530  0.87650  Biso   1.000  C
  C30      1.0000 0.88160  0.34470  0.12350  Biso   1.000  C
  H17      1.0000 0.19710  0.63270  0.89970  Biso   1.000  H
  H18      1.0000 0.80290  0.36730  0.10030  Biso   1.000  H
  H19      1.0000 0.12010  0.73270  0.84940  Biso   1.000  H
  H20      1.0000 0.87990  0.26730  0.15060  Biso   1.000  H
  H21      1.0000 0.03370  0.63570  0.94090  Biso   1.000  H
  H22      1.0000 0.96630  0.36430  0.05910  Biso   1.000  H
  C31      1.0000 0.26500  0.61070  0.69360  Biso   1.000  C
  C32      1.0000 0.73500  0.38930  0.30640  Biso   1.000  C
  H23      1.0000 0.33460  0.59140  0.72840  Biso   1.000  H
  H24      1.0000 0.66540  0.40860  0.27160  Biso   1.000  H
  H25      1.0000 0.27240  0.56240  0.64340  Biso   1.000  H
  H26      1.0000 0.72760  0.43760  0.35660  Biso   1.000  H
  H27      1.0000 0.27920  0.68400  0.65020  Biso   1.000  H
  H28      1.0000 0.72080  0.31600  0.34980  Biso   1.000  H
  N3       1.0000 0.10130  0.48606  0.82949  Biso   1.000  N
  N4       1.0000 0.89870  0.51394  0.17051  Biso   1.000  N
  O11      1.0000 0.15542  0.43298  0.89642  Biso   1.000  O
  O12      1.0000 0.84458  0.56702  0.10358  Biso   1.000  O
  C33      1.0000 0.02980  0.44588  0.78149  Biso   1.000  C
  C34      1.0000 0.97020  0.55412  0.21851  Biso   1.000  C
  C35      1.0000 0.99880  0.33753  0.80210  Biso   1.000  C
  C36      1.0000 0.00120  0.66247  0.19790  Biso   1.000  C
  C37      1.0000 0.03170  0.25269  0.87549  Biso   1.000  C
  C38      1.0000 0.96830  0.74731  0.12451  Biso   1.000  C
  H29      1.0000 0.08240  0.25900  0.92080  Biso   1.000  H
  H30      1.0000 0.91760  0.74100  0.07920  Biso   1.000  H
  N5       1.0000 0.98410  0.16351  0.87418  Biso   1.000  N
  N6       1.0000 0.01590  0.83649  0.12582  Biso   1.000  N
  N7       1.0000 0.92070  0.18972  0.79865  Biso   1.000  N
  N8       1.0000 0.07930  0.81028  0.20135  Biso   1.000  N
  C39      1.0000 0.85810  0.10870  0.77280  Biso   1.000  C
  C40      1.0000 0.14190  0.89130  0.22720  Biso   1.000  C
  H31      1.0000 0.88470  0.03770  0.80750  Biso   1.000  H
  H32      1.0000 0.11530  0.96230  0.19250  Biso   1.000  H
  H33      1.0000 0.75740  0.11580  0.80620  Biso   1.000  H
  H34      1.0000 0.24260  0.88420  0.19380  Biso   1.000  H
  C41      1.0000 0.89850  0.11590  0.64960  Biso   1.000  C
  C42      1.0000 0.10150  0.88410  0.35040  Biso   1.000  C
  H35      1.0000 0.86390  0.18400  0.61610  Biso   1.000  H
  H36      1.0000 0.13610  0.81600  0.38390  Biso   1.000  H
  H37      1.0000 0.99960  0.11590  0.61500  Biso   1.000  H
  H38      1.0000 0.00040  0.88410  0.38500  Biso   1.000  H
  C43      1.0000 0.84420  0.02500  0.62240  Biso   1.000  C
  C44      1.0000 0.15580  0.97500  0.37760  Biso   1.000  C
  H39      1.0000 0.87400  0.95710  0.66050  Biso   1.000  H
  H40      1.0000 0.12600  0.04290  0.33950  Biso   1.000  H
  H41      1.0000 0.88580  0.02830  0.54030  Biso   1.000  H
  H42      1.0000 0.11420  0.97170  0.45970  Biso   1.000  H
  C45      1.0000 0.69540  0.02430  0.65520  Biso   1.000  C
  C46      1.0000 0.30460  0.97570  0.34480  Biso   1.000  C
  H43      1.0000 0.66890  0.96330  0.63460  Biso   1.000  H
  H44      1.0000 0.33110  0.03670  0.36540  Biso   1.000  H
  H45      1.0000 0.65290  0.01890  0.73680  Biso   1.000  H
  H46      1.0000 0.34710  0.98110  0.26320  Biso   1.000  H
  H47      1.0000 0.66470  0.09030  0.61640  Biso   1.000  H
  H48      1.0000 0.33530  0.90970  0.38360  Biso   1.000  H
  C47      1.0000 0.92652  0.29099  0.75460  Biso   1.000  C
  C48      1.0000 0.07348  0.70901  0.24540  Biso   1.000  C
  H49      1.0000 0.88840  0.32640  0.70010  Biso   1.000  H
  H50      1.0000 0.11160  0.67360  0.29990  Biso   1.000  H
  C49      1.0000 0.45987  0.54423  0.95776  Biso   1.000  C
  C50      1.0000 0.54013  0.45577  0.04224  Biso   1.000  C
  C51      1.0000 0.52463  0.59722  0.84735  Biso   1.000  C
  C52      1.0000 0.47537  0.40278  0.15265  Biso   1.000  C
  H51      1.0000 0.57920  0.55800  0.79150  Biso   1.000  H
  H52      1.0000 0.42080  0.44200  0.20850  Biso   1.000  H
  C53      1.0000 0.51039  0.70701  0.81786  Biso   1.000  C
  C54      1.0000 0.48961  0.29299  0.18214  Biso   1.000  C
  H53      1.0000 0.55510  0.74360  0.74160  Biso   1.000  H
  H54      1.0000 0.44490  0.25640  0.25840  Biso   1.000  H
  C55      1.0000 0.43138  0.76380  0.89876  Biso   1.000  C
  C56      1.0000 0.56862  0.23620  0.10124  Biso   1.000  C
  H55      1.0000 0.42150  0.83960  0.87840  Biso   1.000  H
  H56      1.0000 0.57850  0.16040  0.12160  Biso   1.000  H
  C57      1.0000 0.36662  0.71081  0.00916  Biso   1.000  C
  C58      1.0000 0.63338  0.28919  0.99084  Biso   1.000  C
  H57      1.0000 0.31210  0.75000  0.06500  Biso   1.000  H
  H58      1.0000 0.68790  0.25000  0.93500  Biso   1.000  H
  C59      1.0000 0.38086  0.60103  0.03866  Biso   1.000  C
  C60      1.0000 0.61914  0.39897  0.96134  Biso   1.000  C
  H59      1.0000 0.33610  0.56440  0.11490  Biso   1.000  H
  H60      1.0000 0.66390  0.43560  0.88510  Biso   1.000  H
  C61      1.0000 0.48001  0.42838  0.98846  Biso   1.000  C
  C62      1.0000 0.51999  0.57162  0.01154  Biso   1.000  C
  H61      1.0000 0.45410  0.39490  0.94050  Biso   1.000  H
  H62      1.0000 0.54590  0.60510  0.05950  Biso   1.000  H
  H63      1.0000 0.41960  0.40330  0.06430  Biso   1.000  H
  H64      1.0000 0.58040  0.59670  0.93570  Biso   1.000  H
  C63      1.0000 0.62140  0.39388  0.98024  Biso   1.000  C
  C64      1.0000 0.37860  0.60612  0.01976  Biso   1.000  C
  H65      1.0000 0.64850  0.42760  0.02740  Biso   1.000  H
  H66      1.0000 0.35150  0.57240  0.97260  Biso   1.000  H
  H67      1.0000 0.68220  0.41690  0.90410  Biso   1.000  H
  H68      1.0000 0.31780  0.58310  0.09590  Biso   1.000  H
  C65      1.0000 0.63526  0.27441  0.01492  Biso   1.000  C
  C66      1.0000 0.36474  0.72559  0.98508  Biso   1.000  C
  H69      1.0000 0.72820  0.25610  0.00820  Biso   1.000  H
  H70      1.0000 0.27180  0.74390  0.99180  Biso   1.000  H
  H71      1.0000 0.57610  0.25110  0.09160  Biso   1.000  H
  H72      1.0000 0.42390  0.74890  0.90840  Biso   1.000  H
  H73      1.0000 0.61020  0.24020  0.96700  Biso   1.000  H
  H74      1.0000 0.38980  0.75980  0.03300  Biso   1.000  H
  F25      1.0000 0.58870  0.32960  0.75010  Biso   1.000  F
  F26      1.0000 0.41130  0.67040  0.24990  Biso   1.000  F
  F27      1.0000 0.59130  0.28660  0.60370  Biso   1.000  F
  F28      1.0000 0.40870  0.71340  0.39630  Biso   1.000  F
  F29      1.0000 0.46610  0.40440  0.65760  Biso   1.000  F
  F30      1.0000 0.53390  0.59560  0.34240  Biso   1.000  F
  F31      1.0000 0.79420  0.07640  0.34010  Biso   1.000  F
  F32      1.0000 0.20580  0.92360  0.65990  Biso   1.000  F
  F33      1.0000 0.63830  0.15290  0.28320  Biso   1.000  F
  F34      1.0000 0.36170  0.84710  0.71680  Biso   1.000  F
