data_image0
_cell_length_a       10.687
_cell_length_b       13.381
_cell_length_c       13.596
_cell_angle_alpha    76.184
_cell_angle_beta     67.332
_cell_angle_gamma    84.276

_symmetry_space_group_name_H-M    "P 1"
_symmetry_int_tables_number       1

loop_
  _symmetry_equiv_pos_as_xyz
  'x, y, z'

loop_
  _atom_site_label
  _atom_site_occupancy
  _atom_site_fract_x
  _atom_site_fract_y
  _atom_site_fract_z
  _atom_site_thermal_displace_type
  _atom_site_B_iso_or_equiv
  _atom_site_type_symbol
  Cu1      1.0000 0.00000  0.50000  0.50000  Biso   1.000  Cu
  O1       1.0000 0.10930  0.37640  0.53180  Biso   1.000  O
  O2       1.0000 0.89070  0.62360  0.46820  Biso   1.000  O
  C1       1.0000 0.28850  0.25770  0.52250  Biso   1.000  C
  C2       1.0000 0.71150  0.74230  0.47750  Biso   1.000  C
  F1       1.0000 0.24350  0.19788  0.47690  Biso   1.000  F
  F2       1.0000 0.75650  0.80212  0.52310  Biso   1.000  F
  F3       1.0000 0.42390  0.24869  0.48490  Biso   1.000  F
  F4       1.0000 0.57610  0.75131  0.51510  Biso   1.000  F
  F5       1.0000 0.24140  0.21767  0.63018  Biso   1.000  F
  F6       1.0000 0.75860  0.78233  0.36982  Biso   1.000  F
  C3       1.0000 0.23710  0.36960  0.49840  Biso   1.000  C
  C4       1.0000 0.76290  0.63040  0.50160  Biso   1.000  C
  C5       1.0000 0.33320  0.44790  0.44430  Biso   1.000  C
  C6       1.0000 0.66680  0.55210  0.55570  Biso   1.000  C
  H1       1.0000 0.42690  0.43070  0.42310  Biso   1.000  H
  H2       1.0000 0.57310  0.56930  0.57690  Biso   1.000  H
  C7       1.0000 0.29410  0.55110  0.42070  Biso   1.000  C
  C8       1.0000 0.70590  0.44890  0.57930  Biso   1.000  C
  C9       1.0000 0.40610  0.63230  0.35610  Biso   1.000  C
  C10      1.0000 0.59390  0.36770  0.64390  Biso   1.000  C
  F7       1.0000 0.39190  0.67960  0.26260  Biso   1.000  F
  F8       1.0000 0.60810  0.32040  0.73740  Biso   1.000  F
  F9       1.0000 0.38520  0.70820  0.41150  Biso   1.000  F
  F10      1.0000 0.61480  0.29180  0.58850  Biso   1.000  F
  F11      1.0000 0.53470  0.59610  0.33350  Biso   1.000  F
  F12      1.0000 0.46530  0.40390  0.66650  Biso   1.000  F
  O3       1.0000 0.17630  0.58913  0.44403  Biso   1.000  O
  O4       1.0000 0.82370  0.41087  0.55597  Biso   1.000  O
  Cu2      1.0000 0.00000  0.00000  0.00000  Biso   1.000  Cu
  O5       1.0000 0.11460  0.95228  0.86345  Biso   1.000  O
  O6       1.0000 0.88540  0.04772  0.13655  Biso   1.000  O
  C11      1.0000 0.29460  0.94910  0.69570  Biso   1.000  C
  C12      1.0000 0.70540  0.05090  0.30430  Biso   1.000  C
  F13      1.0000 0.19100  0.98150  0.64170  Biso   1.000  F
  F14      1.0000 0.80900  0.01850  0.35830  Biso   1.000  F
  F15      1.0000 0.39550  0.00632  0.62154  Biso   1.000  F
  F16      1.0000 0.60450  0.99368  0.37846  Biso   1.000  F
  F17      1.0000 0.31060  0.85870  0.69800  Biso   1.000  F
  F18      1.0000 0.68940  0.14130  0.30200  Biso   1.000  F
  C13      1.0000 0.23380  0.98230  0.80590  Biso   1.000  C
  C14      1.0000 0.76620  0.01770  0.19410  Biso   1.000  C
  C15      1.0000 0.31720  0.03980  0.83160  Biso   1.000  C
  C16      1.0000 0.68280  0.96020  0.16840  Biso   1.000  C
  H3       1.0000 0.40640  0.05710  0.78030  Biso   1.000  H
  H4       1.0000 0.59360  0.94290  0.21970  Biso   1.000  H
  C17      1.0000 0.27190  0.07120  0.92960  Biso   1.000  C
  C18      1.0000 0.72810  0.92880  0.07040  Biso   1.000  C
  C19      1.0000 0.36970  0.12980  0.95400  Biso   1.000  C
  C20      1.0000 0.63030  0.87020  0.04600  Biso   1.000  C
  F19      1.0000 0.37560  0.08580  0.05140  Biso   1.000  F
  F20      1.0000 0.62440  0.91420  0.94860  Biso   1.000  F
  F21      1.0000 0.49680  0.13240  0.88070  Biso   1.000  F
  F22      1.0000 0.50320  0.86760  0.11930  Biso   1.000  F
  F23      1.0000 0.32880  0.22676  0.95560  Biso   1.000  F
  F24      1.0000 0.67120  0.77324  0.04440  Biso   1.000  F
  O7       1.0000 0.15540  0.06020  0.00573  Biso   1.000  O
  O8       1.0000 0.84460  0.93980  0.99427  Biso   1.000  O
  O9       1.0000 0.91480  0.51699  0.66950  Biso   1.000  O
  O10      1.0000 0.08520  0.48301  0.33050  Biso   1.000  O
  N1       1.0000 0.98910  0.52580  0.72420  Biso   1.000  N
  N2       1.0000 0.01090  0.47420  0.27580  Biso   1.000  N
  C21      1.0000 0.00940  0.62910  0.74490  Biso   1.000  C
  C22      1.0000 0.99060  0.37090  0.25510  Biso   1.000  C
  C23      1.0000 0.87490  0.65380  0.83180  Biso   1.000  C
  C24      1.0000 0.12510  0.34620  0.16820  Biso   1.000  C
  H5       1.0000 0.80560  0.67100  0.79960  Biso   1.000  H
  H6       1.0000 0.19440  0.32900  0.20040  Biso   1.000  H
  H7       1.0000 0.84610  0.59380  0.89270  Biso   1.000  H
  H8       1.0000 0.15390  0.40620  0.10730  Biso   1.000  H
  H9       1.0000 0.88720  0.71250  0.85860  Biso   1.000  H
  H10      1.0000 0.11280  0.28750  0.14140  Biso   1.000  H
  C25      1.0000 0.04210  0.71290  0.63920  Biso   1.000  C
  C26      1.0000 0.95790  0.28710  0.36080  Biso   1.000  C
  H11      1.0000 0.96300  0.72460  0.61810  Biso   1.000  H
  H12      1.0000 0.03700  0.27540  0.38190  Biso   1.000  H
  H13      1.0000 0.06490  0.77690  0.65130  Biso   1.000  H
  H14      1.0000 0.93510  0.22310  0.34870  Biso   1.000  H
  H15      1.0000 0.11930  0.69050  0.58080  Biso   1.000  H
  H16      1.0000 0.88070  0.30950  0.41920  Biso   1.000  H
  C27      1.0000 0.12830  0.60010  0.78690  Biso   1.000  C
  C28      1.0000 0.87170  0.39990  0.21310  Biso   1.000  C
  C29      1.0000 0.12320  0.65200  0.87670  Biso   1.000  C
  C30      1.0000 0.87680  0.34800  0.12330  Biso   1.000  C
  H17      1.0000 0.20070  0.62890  0.89820  Biso   1.000  H
  H18      1.0000 0.79930  0.37110  0.10180  Biso   1.000  H
  H19      1.0000 0.12680  0.72680  0.84970  Biso   1.000  H
  H20      1.0000 0.87320  0.27320  0.15030  Biso   1.000  H
  H21      1.0000 0.03870  0.63370  0.94010  Biso   1.000  H
  H22      1.0000 0.96130  0.36630  0.05990  Biso   1.000  H
  C31      1.0000 0.27060  0.60920  0.69510  Biso   1.000  C
  C32      1.0000 0.72940  0.39080  0.30490  Biso   1.000  C
  H23      1.0000 0.33970  0.59070  0.72740  Biso   1.000  H
  H24      1.0000 0.66030  0.40930  0.27260  Biso   1.000  H
  H25      1.0000 0.27770  0.56250  0.64750  Biso   1.000  H
  H26      1.0000 0.72230  0.43750  0.35250  Biso   1.000  H
  H27      1.0000 0.28470  0.68010  0.65220  Biso   1.000  H
  H28      1.0000 0.71530  0.31990  0.34780  Biso   1.000  H
  N3       1.0000 0.10430  0.48550  0.83260  Biso   1.000  N
  N4       1.0000 0.89570  0.51450  0.16740  Biso   1.000  N
  O11      1.0000 0.16150  0.43160  0.89520  Biso   1.000  O
  O12      1.0000 0.83850  0.56840  0.10480  Biso   1.000  O
  C33      1.0000 0.03070  0.44680  0.78720  Biso   1.000  C
  C34      1.0000 0.96930  0.55320  0.21280  Biso   1.000  C
  C35      1.0000 0.99910  0.33930  0.80780  Biso   1.000  C
  C36      1.0000 0.00090  0.66070  0.19220  Biso   1.000  C
  C37      1.0000 0.03420  0.25380  0.87790  Biso   1.000  C
  C38      1.0000 0.96580  0.74620  0.12210  Biso   1.000  C
  H29      1.0000 0.08590  0.25840  0.91990  Biso   1.000  H
  H30      1.0000 0.91410  0.74160  0.08010  Biso   1.000  H
  N5       1.0000 0.98480  0.16638  0.87680  Biso   1.000  N
  N6       1.0000 0.01520  0.83362  0.12320  Biso   1.000  N
  N7       1.0000 0.91920  0.19410  0.80490  Biso   1.000  N
  N8       1.0000 0.08080  0.80590  0.19510  Biso   1.000  N
  C39      1.0000 0.85400  0.12400  0.78110  Biso   1.000  C
  C40      1.0000 0.14600  0.87600  0.21890  Biso   1.000  C
  H31      1.0000 0.83260  0.06250  0.84130  Biso   1.000  H
  H32      1.0000 0.16740  0.93750  0.15870  Biso   1.000  H
  H33      1.0000 0.76620  0.15540  0.77920  Biso   1.000  H
  H34      1.0000 0.23380  0.84460  0.22080  Biso   1.000  H
  C41      1.0000 0.93260  0.09070  0.67290  Biso   1.000  C
  C42      1.0000 0.06740  0.90930  0.32710  Biso   1.000  C
  H35      1.0000 0.99330  0.03130  0.68210  Biso   1.000  H
  H36      1.0000 0.00670  0.96870  0.31790  Biso   1.000  H
  C43      1.0000 0.85600  0.10900  0.77950  Biso   1.000  C
  C44      1.0000 0.14400  0.89100  0.22050  Biso   1.000  C
  H37      1.0000 0.97510  0.15910  0.61500  Biso   1.000  H
  H38      1.0000 0.02490  0.84090  0.38500  Biso   1.000  H
  C45      1.0000 0.86400  0.01410  0.64120  Biso   1.000  C
  C46      1.0000 0.13600  0.98590  0.35880  Biso   1.000  C
  H39      1.0000 0.87350  0.95840  0.70080  Biso   1.000  H
  H40      1.0000 0.12650  0.04160  0.29920  Biso   1.000  H
  H41      1.0000 0.92930  0.00230  0.57000  Biso   1.000  H
  H42      1.0000 0.07070  0.99770  0.43000  Biso   1.000  H
  C47      1.0000 0.72130  0.02370  0.64510  Biso   1.000  C
  C48      1.0000 0.27870  0.97630  0.35490  Biso   1.000  C
  H43      1.0000 0.69440  0.95900  0.63750  Biso   1.000  H
  H44      1.0000 0.30560  0.04100  0.36250  Biso   1.000  H
  H45      1.0000 0.66040  0.03900  0.71510  Biso   1.000  H
  H46      1.0000 0.33960  0.96100  0.28490  Biso   1.000  H
  H47      1.0000 0.71580  0.07960  0.58530  Biso   1.000  H
  H48      1.0000 0.28420  0.92040  0.41470  Biso   1.000  H
  C49      1.0000 0.92070  0.29433  0.76188  Biso   1.000  C
  C50      1.0000 0.07930  0.70567  0.23812  Biso   1.000  C
  H49      1.0000 0.87980  0.32920  0.71210  Biso   1.000  H
  H50      1.0000 0.12020  0.67080  0.28790  Biso   1.000  H
  C51      1.0000 0.46480  0.54446  0.95001  Biso   1.000  C
  C52      1.0000 0.53520  0.45554  0.04999  Biso   1.000  C
  C53      1.0000 0.52820  0.59613  0.84211  Biso   1.000  C
  C54      1.0000 0.47180  0.40387  0.15789  Biso   1.000  C
  H51      1.0000 0.58120  0.55850  0.78760  Biso   1.000  H
  H52      1.0000 0.41880  0.44150  0.21240  Biso   1.000  H
  C55      1.0000 0.51480  0.70237  0.81307  Biso   1.000  C
  C56      1.0000 0.48520  0.29763  0.18693  Biso   1.000  C
  H53      1.0000 0.55850  0.73810  0.73860  Biso   1.000  H
  H54      1.0000 0.44150  0.26190  0.26140  Biso   1.000  H
  C57      1.0000 0.43800  0.75692  0.89194  Biso   1.000  C
  C58      1.0000 0.56200  0.24308  0.10806  Biso   1.000  C
  H55      1.0000 0.42870  0.83030  0.87190  Biso   1.000  H
  H56      1.0000 0.57130  0.16970  0.12810  Biso   1.000  H
  C59      1.0000 0.37470  0.70524  0.99985  Biso   1.000  C
  C60      1.0000 0.62530  0.29476  0.00015  Biso   1.000  C
  H57      1.0000 0.32170  0.74290  0.05430  Biso   1.000  H
  H58      1.0000 0.67830  0.25710  0.94570  Biso   1.000  H
  C61      1.0000 0.38810  0.59901  0.02888  Biso   1.000  C
  C62      1.0000 0.61190  0.40099  0.97112  Biso   1.000  C
  H59      1.0000 0.34430  0.56330  0.10340  Biso   1.000  H
  H60      1.0000 0.65570  0.43670  0.89660  Biso   1.000  H
  C63      1.0000 0.48080  0.43076  0.98402  Biso   1.000  C
  C64      1.0000 0.51920  0.56924  0.01598  Biso   1.000  C
  H61      1.0000 0.45420  0.39830  0.93940  Biso   1.000  H
  H62      1.0000 0.54580  0.60170  0.06060  Biso   1.000  H
  H63      1.0000 0.41920  0.40860  0.05810  Biso   1.000  H
  H64      1.0000 0.58080  0.59140  0.94190  Biso   1.000  H
  C65      1.0000 0.61760  0.39393  0.97708  Biso   1.000  C
  C66      1.0000 0.38240  0.60607  0.02292  Biso   1.000  C
  H65      1.0000 0.64550  0.42660  0.02090  Biso   1.000  H
  H66      1.0000 0.35450  0.57340  0.97910  Biso   1.000  H
  H67      1.0000 0.67960  0.41400  0.90280  Biso   1.000  H
  H68      1.0000 0.32040  0.58600  0.09720  Biso   1.000  H
  C67      1.0000 0.62630  0.27419  0.01625  Biso   1.000  C
  C68      1.0000 0.37370  0.72581  0.98375  Biso   1.000  C
  H69      1.0000 0.71760  0.25470  0.00990  Biso   1.000  H
  H70      1.0000 0.28240  0.74530  0.99010  Biso   1.000  H
  H71      1.0000 0.56610  0.25370  0.09110  Biso   1.000  H
  H72      1.0000 0.43390  0.74630  0.90890  Biso   1.000  H
  H73      1.0000 0.60060  0.24090  0.97170  Biso   1.000  H
  H74      1.0000 0.39940  0.75910  0.02830  Biso   1.000  H
  C69      1.0000 0.78750  0.05430  0.64340  Biso   1.000  C
  C70      1.0000 0.21250  0.94570  0.35660  Biso   1.000  C
  C71      1.0000 0.84500  0.95740  0.66410  Biso   1.000  C
  C72      1.0000 0.15500  0.04260  0.33590  Biso   1.000  C
  C73      1.0000 0.88240  0.13230  0.65940  Biso   1.000  C
  C74      1.0000 0.11760  0.86770  0.34060  Biso   1.000  C
  F25      1.0000 0.57320  0.34600  0.74690  Biso   1.000  F
  F26      1.0000 0.42680  0.65400  0.25310  Biso   1.000  F
  F27      1.0000 0.61750  0.28410  0.60670  Biso   1.000  F
  F28      1.0000 0.38250  0.71590  0.39330  Biso   1.000  F
  F29      1.0000 0.47930  0.39970  0.63810  Biso   1.000  F
  F30      1.0000 0.52070  0.60030  0.36190  Biso   1.000  F
  F31      1.0000 0.78460  0.08300  0.33420  Biso   1.000  F
  F32      1.0000 0.21540  0.91700  0.66580  Biso   1.000  F
  F33      1.0000 0.62740  0.15200  0.27860  Biso   1.000  F
  F34      1.0000 0.37260  0.84800  0.72140  Biso   1.000  F
  H75      1.0000 0.98600  0.14780  0.61530  Biso   1.000  H
  H76      1.0000 0.01400  0.85220  0.38470  Biso   1.000  H
  H77      1.0000 0.79310  0.08040  0.56730  Biso   1.000  H
  H78      1.0000 0.20690  0.91960  0.43270  Biso   1.000  H
  H79      1.0000 0.69620  0.06460  0.69740  Biso   1.000  H
  H80      1.0000 0.30380  0.93540  0.30260  Biso   1.000  H
  H81      1.0000 0.79170  0.90550  0.65750  Biso   1.000  H
  H82      1.0000 0.20830  0.09450  0.34250  Biso   1.000  H
  H83      1.0000 0.93820  0.95650  0.61110  Biso   1.000  H
  H84      1.0000 0.06180  0.04350  0.38890  Biso   1.000  H
  H85      1.0000 0.84540  0.94180  0.73810  Biso   1.000  H
  H86      1.0000 0.15460  0.05820  0.26190  Biso   1.000  H
  H87      1.0000 0.75680  0.10550  0.82210  Biso   1.000  H
  H88      1.0000 0.24320  0.89450  0.17790  Biso   1.000  H
  H89      1.0000 0.89600  0.04100  0.80040  Biso   1.000  H
  H90      1.0000 0.10400  0.95900  0.19960  Biso   1.000  H
  H91      1.0000 0.81550  0.18230  0.64140  Biso   1.000  H
  H92      1.0000 0.18450  0.81770  0.35860  Biso   1.000  H
