data_image0
_cell_length_a       10.846
_cell_length_b       13.427
_cell_length_c       13.77
_cell_angle_alpha    99.156
_cell_angle_beta     112.448
_cell_angle_gamma    95.759

_symmetry_space_group_name_H-M    "P 1"
_symmetry_int_tables_number       1

loop_
  _symmetry_equiv_pos_as_xyz
  'x, y, z'

loop_
  _atom_site_label
  _atom_site_occupancy
  _atom_site_fract_x
  _atom_site_fract_y
  _atom_site_fract_z
  _atom_site_thermal_displace_type
  _atom_site_B_iso_or_equiv
  _atom_site_type_symbol
  Cu1      1.0000 0.50000  0.50000  0.50000  Biso   1.000  Cu
  O1       1.0000 0.39040  0.58208  0.55543  Biso   1.000  O
  O2       1.0000 0.60960  0.41792  0.44457  Biso   1.000  O
  C1       1.0000 0.24220  0.62590  0.63390  Biso   1.000  C
  C2       1.0000 0.75780  0.37410  0.36610  Biso   1.000  C
  F1       1.0000 0.29400  0.63570  0.73170  Biso   1.000  F
  F2       1.0000 0.70600  0.36430  0.26830  Biso   1.000  F
  F3       1.0000 0.10990  0.59770  0.60520  Biso   1.000  F
  F4       1.0000 0.89010  0.40230  0.39480  Biso   1.000  F
  F5       1.0000 0.24950  0.71020  0.61010  Biso   1.000  F
  F6       1.0000 0.75050  0.28980  0.38990  Biso   1.000  F
  C3       1.0000 0.29500  0.54570  0.57640  Biso   1.000  C
  C4       1.0000 0.70500  0.45430  0.42360  Biso   1.000  C
  C5       1.0000 0.23630  0.44490  0.55420  Biso   1.000  C
  C6       1.0000 0.76370  0.55510  0.44580  Biso   1.000  C
  H1       1.0000 0.16500  0.42850  0.57380  Biso   1.000  H
  H2       1.0000 0.83500  0.57150  0.42620  Biso   1.000  H
  C7       1.0000 0.27900  0.36690  0.50370  Biso   1.000  C
  C8       1.0000 0.72100  0.63310  0.49630  Biso   1.000  C
  C9       1.0000 0.20350  0.25790  0.47800  Biso   1.000  C
  C10      1.0000 0.79650  0.74210  0.52200  Biso   1.000  C
  F7       1.0000 0.14500  0.22060  0.37770  Biso   1.000  F
  F8       1.0000 0.85500  0.77940  0.62230  Biso   1.000  F
  F9       1.0000 0.28640  0.19690  0.51520  Biso   1.000  F
  F10      1.0000 0.71360  0.80310  0.48480  Biso   1.000  F
  F11      1.0000 0.11560  0.24660  0.51890  Biso   1.000  F
  F12      1.0000 0.88440  0.75340  0.48110  Biso   1.000  F
  O3       1.0000 0.37370  0.37359  0.47377  Biso   1.000  O
  O4       1.0000 0.62630  0.62641  0.52623  Biso   1.000  O
  Cu2      1.0000 0.00000  0.00000  0.00000  Biso   1.000  Cu
  O5       1.0000 0.97870  0.04607  0.86610  Biso   1.000  O
  O6       1.0000 0.02130  0.95393  0.13390  Biso   1.000  O
  C11      1.0000 0.99160  0.05200  0.70110  Biso   1.000  C
  C12      1.0000 0.00840  0.94800  0.29890  Biso   1.000  C
  F13      1.0000 0.87900  0.08300  0.67410  Biso   1.000  F
  F14      1.0000 0.12100  0.91700  0.32590  Biso   1.000  F
  F15      1.0000 0.99700  0.98720  0.62570  Biso   1.000  F
  F16      1.0000 0.00300  0.01280  0.37430  Biso   1.000  F
  F17      1.0000 0.08190  0.13800  0.71710  Biso   1.000  F
  F18      1.0000 0.91810  0.86200  0.28290  Biso   1.000  F
  C13      1.0000 0.03870  0.01700  0.80860  Biso   1.000  C
  C14      1.0000 0.96130  0.98300  0.19140  Biso   1.000  C
  C15      1.0000 0.14130  0.95880  0.83080  Biso   1.000  C
  C16      1.0000 0.85870  0.04120  0.16920  Biso   1.000  C
  H3       1.0000 0.17700  0.94180  0.78000  Biso   1.000  H
  H4       1.0000 0.82300  0.05820  0.22000  Biso   1.000  H
  C17      1.0000 0.19160  0.92550  0.92530  Biso   1.000  C
  C18      1.0000 0.80840  0.07450  0.07470  Biso   1.000  C
  C19      1.0000 0.30730  0.86420  0.94580  Biso   1.000  C
  C20      1.0000 0.69270  0.13580  0.05420  Biso   1.000  C
  F19      1.0000 0.37740  0.87250  0.89070  Biso   1.000  F
  F20      1.0000 0.62260  0.12750  0.10930  Biso   1.000  F
  F21      1.0000 0.26200  0.76640  0.92060  Biso   1.000  F
  F22      1.0000 0.73800  0.23360  0.07940  Biso   1.000  F
  F23      1.0000 0.39300  0.88270  0.04620  Biso   1.000  F
  F24      1.0000 0.60700  0.11730  0.95380  Biso   1.000  F
  O7       1.0000 0.15290  0.93665  0.00089  Biso   1.000  O
  O8       1.0000 0.84710  0.06335  0.99911  Biso   1.000  O
  O9       1.0000 0.59740  0.48549  0.67994  Biso   1.000  O
  O10      1.0000 0.40260  0.51451  0.32006  Biso   1.000  O
  N1       1.0000 0.72210  0.47780  0.73230  Biso   1.000  N
  N2       1.0000 0.27790  0.52220  0.26770  Biso   1.000  N
  C21      1.0000 0.76450  0.37700  0.74960  Biso   1.000  C
  C22      1.0000 0.23550  0.62300  0.25040  Biso   1.000  C
  C23      1.0000 0.69490  0.29550  0.64640  Biso   1.000  C
  C24      1.0000 0.30510  0.70450  0.35360  Biso   1.000  C
  H5       1.0000 0.59930  0.28230  0.62830  Biso   1.000  H
  H6       1.0000 0.40070  0.71770  0.37170  Biso   1.000  H
  H7       1.0000 0.71070  0.31920  0.58920  Biso   1.000  H
  H8       1.0000 0.28930  0.68080  0.41080  Biso   1.000  H
  H9       1.0000 0.73080  0.23370  0.65640  Biso   1.000  H
  H10      1.0000 0.26920  0.76630  0.34360  Biso   1.000  H
  C25      1.0000 0.71960  0.34910  0.83620  Biso   1.000  C
  C26      1.0000 0.28040  0.65090  0.16380  Biso   1.000  C
  H11      1.0000 0.62270  0.33090  0.80660  Biso   1.000  H
  H12      1.0000 0.37730  0.66910  0.19340  Biso   1.000  H
  H13      1.0000 0.75930  0.29220  0.86080  Biso   1.000  H
  H14      1.0000 0.24070  0.70780  0.13920  Biso   1.000  H
  H15      1.0000 0.74890  0.40690  0.89560  Biso   1.000  H
  H16      1.0000 0.25110  0.59310  0.10440  Biso   1.000  H
  C27      1.0000 0.91930  0.40750  0.79000  Biso   1.000  C
  C28      1.0000 0.08070  0.59250  0.21000  Biso   1.000  C
  C29      1.0000 0.00400  0.35720  0.87800  Biso   1.000  C
  C30      1.0000 0.99600  0.64280  0.12200  Biso   1.000  C
  H17      1.0000 0.09850  0.38110  0.89730  Biso   1.000  H
  H18      1.0000 0.90150  0.61890  0.10270  Biso   1.000  H
  H19      1.0000 0.98360  0.37440  0.93990  Biso   1.000  H
  H20      1.0000 0.01640  0.62560  0.06010  Biso   1.000  H
  H21      1.0000 0.98370  0.28410  0.85240  Biso   1.000  H
  H22      1.0000 0.01630  0.71590  0.14760  Biso   1.000  H
  C31      1.0000 0.97030  0.39950  0.69990  Biso   1.000  C
  C32      1.0000 0.02970  0.60050  0.30010  Biso   1.000  C
  H23      1.0000 0.06720  0.41940  0.73070  Biso   1.000  H
  H24      1.0000 0.93280  0.58060  0.26930  Biso   1.000  H
  H25      1.0000 0.94580  0.33000  0.65940  Biso   1.000  H
  H26      1.0000 0.05420  0.67000  0.34060  Biso   1.000  H
  H27      1.0000 0.93010  0.44390  0.65310  Biso   1.000  H
  H28      1.0000 0.06990  0.55610  0.34690  Biso   1.000  H
  N3       1.0000 0.93780  0.51980  0.83440  Biso   1.000  N
  N4       1.0000 0.06220  0.48020  0.16560  Biso   1.000  N
  O11      1.0000 0.05350  0.57420  0.89390  Biso   1.000  O
  O12      1.0000 0.94650  0.42580  0.10610  Biso   1.000  O
  C33      1.0000 0.82140  0.55670  0.79300  Biso   1.000  C
  C34      1.0000 0.17860  0.44330  0.20700  Biso   1.000  C
  C35      1.0000 0.80830  0.66270  0.81290  Biso   1.000  C
  C36      1.0000 0.19170  0.33730  0.18710  Biso   1.000  C
  C37      1.0000 0.90740  0.74660  0.88110  Biso   1.000  C
  C38      1.0000 0.09260  0.25340  0.11890  Biso   1.000  C
  H29      1.0000 0.99720  0.74250  0.92090  Biso   1.000  H
  H30      1.0000 0.00280  0.25750  0.07910  Biso   1.000  H
  N5       1.0000 0.85760  0.83260  0.88210  Biso   1.000  N
  N6       1.0000 0.14240  0.16740  0.11790  Biso   1.000  N
  N7       1.0000 0.72550  0.80460  0.81280  Biso   1.000  N
  N8       1.0000 0.27450  0.19540  0.18720  Biso   1.000  N
  C39      1.0000 0.63650  0.88100  0.79300  Biso   1.000  C
  C40      1.0000 0.36350  0.11900  0.20700  Biso   1.000  C
  H31      1.0000 0.68980  0.94770  0.83390  Biso   1.000  H
  H32      1.0000 0.31020  0.05230  0.16610  Biso   1.000  H
  H33      1.0000 0.56820  0.86560  0.82040  Biso   1.000  H
  H34      1.0000 0.43180  0.13440  0.17960  Biso   1.000  H
  C41      1.0000 0.57010  0.88720  0.68400  Biso   1.000  C
  C42      1.0000 0.42990  0.11280  0.31600  Biso   1.000  C
  H35      1.0000 0.63620  0.89390  0.65280  Biso   1.000  H
  H36      1.0000 0.36380  0.10610  0.34720  Biso   1.000  H
  H37      1.0000 0.50530  0.82470  0.64420  Biso   1.000  H
  H38      1.0000 0.49470  0.17530  0.35580  Biso   1.000  H
  C43      1.0000 0.49360  0.98240  0.67390  Biso   1.000  C
  C44      1.0000 0.50640  0.01760  0.32610  Biso   1.000  C
  H39      1.0000 0.53840  0.03210  0.64860  Biso   1.000  H
  H40      1.0000 0.46160  0.96790  0.35140  Biso   1.000  H
  H41      1.0000 0.50170  0.01460  0.74480  Biso   1.000  H
  H42      1.0000 0.49830  0.98540  0.25520  Biso   1.000  H
  C45      1.0000 0.37280  0.96060  0.61280  Biso   1.000  C
  C46      1.0000 0.62720  0.03940  0.38720  Biso   1.000  C
  H43      1.0000 0.33180  0.02050  0.61550  Biso   1.000  H
  H44      1.0000 0.66820  0.97950  0.38450  Biso   1.000  H
  H45      1.0000 0.36390  0.93570  0.54070  Biso   1.000  H
  H46      1.0000 0.63610  0.06430  0.45930  Biso   1.000  H
  H47      1.0000 0.32840  0.90850  0.63470  Biso   1.000  H
  H48      1.0000 0.67160  0.09150  0.36530  Biso   1.000  H
  C47      1.0000 0.69440  0.70550  0.77150  Biso   1.000  C
  C48      1.0000 0.30560  0.29450  0.22850  Biso   1.000  C
  H49      1.0000 0.60940  0.67020  0.72240  Biso   1.000  H
  H50      1.0000 0.39060  0.32980  0.27760  Biso   1.000  H
  C49      1.0000 0.42230  0.45220  0.95010  Biso   1.000  C
  C50      1.0000 0.57770  0.54780  0.04990  Biso   1.000  C
  C51      1.0000 0.41500  0.39470  0.02380  Biso   1.000  C
  C52      1.0000 0.58500  0.60530  0.97620  Biso   1.000  C
  H51      1.0000 0.43720  0.42810  0.09690  Biso   1.000  H
  H52      1.0000 0.56280  0.57190  0.90310  Biso   1.000  H
  C53      1.0000 0.37560  0.28890  0.99180  Biso   1.000  C
  C54      1.0000 0.62440  0.71110  0.00820  Biso   1.000  C
  H53      1.0000 0.37050  0.24920  0.04270  Biso   1.000  H
  H54      1.0000 0.62950  0.75080  0.95730  Biso   1.000  H
  C55      1.0000 0.34340  0.24050  0.88590  Biso   1.000  C
  C56      1.0000 0.65660  0.75950  0.11410  Biso   1.000  C
  H55      1.0000 0.31620  0.16740  0.86380  Biso   1.000  H
  H56      1.0000 0.68380  0.83260  0.13620  Biso   1.000  H
  C57      1.0000 0.35070  0.29800  0.81220  Biso   1.000  C
  C58      1.0000 0.64930  0.70200  0.18780  Biso   1.000  C
  H57      1.0000 0.32850  0.26460  0.73910  Biso   1.000  H
  H58      1.0000 0.67150  0.73540  0.26090  Biso   1.000  H
  C59      1.0000 0.39010  0.40380  0.84420  Biso   1.000  C
  C60      1.0000 0.60990  0.59620  0.15580  Biso   1.000  C
  H59      1.0000 0.39520  0.44360  0.79330  Biso   1.000  H
  H60      1.0000 0.60480  0.55640  0.20670  Biso   1.000  H
  C61      1.0000 0.46390  0.56690  0.98330  Biso   1.000  C
  C62      1.0000 0.53610  0.43310  0.01670  Biso   1.000  C
  H61      1.0000 0.40150  0.59690  0.93040  Biso   1.000  H
  H62      1.0000 0.59850  0.40310  0.06960  Biso   1.000  H
  H63      1.0000 0.45630  0.58960  0.05020  Biso   1.000  H
  H64      1.0000 0.54370  0.41040  0.94980  Biso   1.000  H
  C63      1.0000 0.59450  0.60350  0.99560  Biso   1.000  C
  C64      1.0000 0.40550  0.39650  0.00440  Biso   1.000  C
  H65      1.0000 0.65740  0.56990  0.04380  Biso   1.000  H
  H66      1.0000 0.34260  0.43010  0.95620  Biso   1.000  H
  H67      1.0000 0.60060  0.58790  0.92720  Biso   1.000  H
  H68      1.0000 0.39940  0.41210  0.07280  Biso   1.000  H
  C65      1.0000 0.63240  0.72000  0.04010  Biso   1.000  C
  C66      1.0000 0.36760  0.28000  0.95990  Biso   1.000  C
  H69      1.0000 0.72300  0.74350  0.04780  Biso   1.000  H
  H70      1.0000 0.27700  0.25650  0.95220  Biso   1.000  H
  H71      1.0000 0.62770  0.73550  0.10890  Biso   1.000  H
  H72      1.0000 0.37230  0.26450  0.89110  Biso   1.000  H
  H73      1.0000 0.57040  0.75370  0.99130  Biso   1.000  H
  H74      1.0000 0.42960  0.24630  0.00870  Biso   1.000  H
  F25      1.0000 0.66640  0.15550  0.14010  Biso   1.000  F
  F26      1.0000 0.33360  0.84450  0.85990  Biso   1.000  F
  F27      1.0000 0.71800  0.21660  0.02530  Biso   1.000  F
  F28      1.0000 0.28200  0.78340  0.97470  Biso   1.000  F
  F29      1.0000 0.58370  0.07790  0.97990  Biso   1.000  F
  F30      1.0000 0.41630  0.92210  0.02010  Biso   1.000  F
  F31      1.0000 0.16200  0.59410  0.67370  Biso   1.000  F
  F32      1.0000 0.83800  0.40590  0.32630  Biso   1.000  F
  F33      1.0000 0.35020  0.68100  0.72410  Biso   1.000  F
  F34      1.0000 0.64980  0.31900  0.27590  Biso   1.000  F
  F35      1.0000 0.19980  0.69470  0.57780  Biso   1.000  F
  F36      1.0000 0.80020  0.30530  0.42220  Biso   1.000  F
  F37      1.0000 0.85660  0.02230  0.64940  Biso   1.000  F
  F38      1.0000 0.14340  0.97770  0.35060  Biso   1.000  F
  F39      1.0000 0.98890  0.85500  0.29020  Biso   1.000  F
  F40      1.0000 0.01110  0.14500  0.70980  Biso   1.000  F
  F41      1.0000 0.95500  0.98380  0.36130  Biso   1.000  F
  F42      1.0000 0.04500  0.01620  0.63870  Biso   1.000  F
