data_image0
_cell_length_a       10.7506
_cell_length_b       13.389
_cell_length_c       13.5765
_cell_angle_alpha    99.355
_cell_angle_beta     113.206
_cell_angle_gamma    95.233

_symmetry_space_group_name_H-M    "P 1"
_symmetry_int_tables_number       1

loop_
  _symmetry_equiv_pos_as_xyz
  'x, y, z'

loop_
  _atom_site_label
  _atom_site_occupancy
  _atom_site_fract_x
  _atom_site_fract_y
  _atom_site_fract_z
  _atom_site_thermal_displace_type
  _atom_site_B_iso_or_equiv
  _atom_site_type_symbol
  Cu1      1.0000 0.00000  0.00000  0.00000  Biso   1.000  Cu
  O1       1.0000 0.86828  0.87597  0.97147  Biso   1.000  O
  O2       1.0000 0.13172  0.12403  0.02853  Biso   1.000  O
  C1       1.0000 0.70000  0.75920  0.97870  Biso   1.000  C
  C2       1.0000 0.30000  0.24080  0.02130  Biso   1.000  C
  F1       1.0000 0.63020  0.72680  0.87040  Biso   1.000  F
  F2       1.0000 0.36980  0.27320  0.12960  Biso   1.000  F
  F3       1.0000 0.79330  0.69640  0.02320  Biso   1.000  F
  F4       1.0000 0.20670  0.30360  0.97680  Biso   1.000  F
  F5       1.0000 0.61760  0.74730  0.01640  Biso   1.000  F
  F6       1.0000 0.38240  0.25270  0.98360  Biso   1.000  F
  C3       1.0000 0.77370  0.86944  0.00370  Biso   1.000  C
  C4       1.0000 0.22630  0.13056  0.99630  Biso   1.000  C
  C5       1.0000 0.73110  0.94750  0.05610  Biso   1.000  C
  C6       1.0000 0.26890  0.05250  0.94390  Biso   1.000  C
  H1       1.0000 0.65810  0.93090  0.07670  Biso   1.000  H
  H2       1.0000 0.34190  0.06910  0.92330  Biso   1.000  H
  C7       1.0000 0.79210  0.04890  0.07940  Biso   1.000  C
  C8       1.0000 0.20790  0.95110  0.92060  Biso   1.000  C
  C9       1.0000 0.74180  0.12950  0.14260  Biso   1.000  C
  C10      1.0000 0.25820  0.87050  0.85740  Biso   1.000  C
  F7       1.0000 0.73860  0.21710  0.11250  Biso   1.000  F
  F8       1.0000 0.26140  0.78290  0.88750  Biso   1.000  F
  F9       1.0000 0.60560  0.10270  0.12130  Biso   1.000  F
  F10      1.0000 0.39440  0.89730  0.87870  Biso   1.000  F
  F11      1.0000 0.79960  0.14080  0.24390  Biso   1.000  F
  F12      1.0000 0.20040  0.85920  0.75610  Biso   1.000  F
  O3       1.0000 0.88663  0.08579  0.05747  Biso   1.000  O
  O4       1.0000 0.11337  0.91421  0.94253  Biso   1.000  O
  Cu2      1.0000 0.50000  0.50000  0.50000  Biso   1.000  Cu
  O5       1.0000 0.34309  0.56091  0.49792  Biso   1.000  O
  O6       1.0000 0.65691  0.43909  0.50208  Biso   1.000  O
  C11      1.0000 0.18480  0.63140  0.55260  Biso   1.000  C
  C12      1.0000 0.81520  0.36860  0.44740  Biso   1.000  C
  F13      1.0000 0.09180  0.59400  0.45530  Biso   1.000  F
  F14      1.0000 0.90820  0.40600  0.54470  Biso   1.000  F
  F15      1.0000 0.22130  0.72890  0.56150  Biso   1.000  F
  F16      1.0000 0.77870  0.27110  0.43850  Biso   1.000  F
  F17      1.0000 0.12300  0.63210  0.61910  Biso   1.000  F
  F18      1.0000 0.87700  0.36790  0.38090  Biso   1.000  F
  C13      1.0000 0.30660  0.57375  0.57580  Biso   1.000  C
  C14      1.0000 0.69340  0.42625  0.42420  Biso   1.000  C
  C15      1.0000 0.36280  0.54437  0.67420  Biso   1.000  C
  C16      1.0000 0.63720  0.45563  0.32580  Biso   1.000  C
  H3       1.0000 0.32780  0.56320  0.72750  Biso   1.000  H
  H4       1.0000 0.67220  0.43680  0.27250  Biso   1.000  H
  C17      1.0000 0.46930  0.48785  0.69830  Biso   1.000  C
  C18      1.0000 0.53070  0.51215  0.30170  Biso   1.000  C
  C19      1.0000 0.52360  0.45610  0.80890  Biso   1.000  C
  C20      1.0000 0.47640  0.54390  0.19110  Biso   1.000  C
  F19      1.0000 0.46880  0.49560  0.87340  Biso   1.000  F
  F20      1.0000 0.53120  0.50440  0.12660  Biso   1.000  F
  F21      1.0000 0.49670  0.35660  0.79370  Biso   1.000  F
  F22      1.0000 0.50330  0.64340  0.20630  Biso   1.000  F
  F23      1.0000 0.65560  0.48470  0.86170  Biso   1.000  F
  F24      1.0000 0.34440  0.51530  0.13830  Biso   1.000  F
  O7       1.0000 0.52766  0.45611  0.63827  Biso   1.000  O
  O8       1.0000 0.47234  0.54389  0.36173  Biso   1.000  O
  O9       1.0000 0.90755  0.01614  0.82386  Biso   1.000  O
  O10      1.0000 0.09245  0.98386  0.17614  Biso   1.000  O
  N1       1.0000 0.77940  0.02429  0.77066  Biso   1.000  N
  N2       1.0000 0.22060  0.97571  0.22934  Biso   1.000  N
  C21      1.0000 0.73720  0.12574  0.75240  Biso   1.000  C
  C22      1.0000 0.26280  0.87426  0.24760  Biso   1.000  C
  C23      1.0000 0.80780  0.20772  0.85710  Biso   1.000  C
  C24      1.0000 0.19220  0.79228  0.14290  Biso   1.000  C
  H5       1.0000 0.90630  0.22230  0.87550  Biso   1.000  H
  H6       1.0000 0.09370  0.77770  0.12450  Biso   1.000  H
  H7       1.0000 0.76860  0.27050  0.84670  Biso   1.000  H
  H8       1.0000 0.23140  0.72950  0.15330  Biso   1.000  H
  H9       1.0000 0.79410  0.18340  0.91700  Biso   1.000  H
  H10      1.0000 0.20590  0.81660  0.08300  Biso   1.000  H
  C25      1.0000 0.78070  0.15250  0.66470  Biso   1.000  C
  C26      1.0000 0.21930  0.84750  0.33530  Biso   1.000  C
  H11      1.0000 0.88100  0.17070  0.69560  Biso   1.000  H
  H12      1.0000 0.11900  0.82930  0.30440  Biso   1.000  H
  H13      1.0000 0.74980  0.09310  0.60290  Biso   1.000  H
  H14      1.0000 0.25020  0.90690  0.39710  Biso   1.000  H
  H15      1.0000 0.73940  0.21090  0.63890  Biso   1.000  H
  H16      1.0000 0.26060  0.78910  0.36110  Biso   1.000  H
  C27      1.0000 0.57950  0.09549  0.71230  Biso   1.000  C
  C28      1.0000 0.42050  0.90451  0.28770  Biso   1.000  C
  C29      1.0000 0.53030  0.10470  0.80400  Biso   1.000  C
  C30      1.0000 0.46970  0.89530  0.19600  Biso   1.000  C
  H17      1.0000 0.43020  0.08410  0.77220  Biso   1.000  H
  H18      1.0000 0.56980  0.91590  0.22780  Biso   1.000  H
  H19      1.0000 0.57350  0.05980  0.85330  Biso   1.000  H
  H20      1.0000 0.42650  0.94020  0.14670  Biso   1.000  H
  H21      1.0000 0.55550  0.17600  0.84550  Biso   1.000  H
  H22      1.0000 0.44450  0.82400  0.15450  Biso   1.000  H
  C31      1.0000 0.49340  0.14660  0.62230  Biso   1.000  C
  C32      1.0000 0.50660  0.85340  0.37770  Biso   1.000  C
  H23      1.0000 0.39570  0.12350  0.60230  Biso   1.000  H
  H24      1.0000 0.60430  0.87650  0.39770  Biso   1.000  H
  H25      1.0000 0.51590  0.22130  0.64880  Biso   1.000  H
  H26      1.0000 0.48410  0.77870  0.35120  Biso   1.000  H
  H27      1.0000 0.51310  0.12780  0.55770  Biso   1.000  H
  H28      1.0000 0.48690  0.87220  0.44230  Biso   1.000  H
  N3       1.0000 0.56030  0.98305  0.66659  Biso   1.000  N
  N4       1.0000 0.43970  0.01695  0.33341  Biso   1.000  N
  O11      1.0000 0.44227  0.92892  0.60559  Biso   1.000  O
  O12      1.0000 0.55773  0.07108  0.39441  Biso   1.000  O
  C33      1.0000 0.67820  0.94550  0.70900  Biso   1.000  C
  C34      1.0000 0.32180  0.05450  0.29100  Biso   1.000  C
  C35      1.0000 0.69120  0.83838  0.68872  Biso   1.000  C
  C36      1.0000 0.30880  0.16162  0.31128  Biso   1.000  C
  C37      1.0000 0.58910  0.75415  0.61996  Biso   1.000  C
  C38      1.0000 0.41090  0.24585  0.38004  Biso   1.000  C
  H29      1.0000 0.49570  0.75860  0.57900  Biso   1.000  H
  H30      1.0000 0.50430  0.24140  0.42100  Biso   1.000  H
  N5       1.0000 0.64002  0.66738  0.61973  Biso   1.000  N
  N6       1.0000 0.35998  0.33262  0.38027  Biso   1.000  N
  N7       1.0000 0.77461  0.69515  0.69008  Biso   1.000  N
  N8       1.0000 0.22539  0.30485  0.30992  Biso   1.000  N
  C39      1.0000 0.86840  0.62850  0.71000  Biso   1.000  C
  C40      1.0000 0.13160  0.37150  0.29000  Biso   1.000  C
  H31      1.0000 0.82340  0.56090  0.65940  Biso   1.000  H
  H32      1.0000 0.17660  0.43910  0.34060  Biso   1.000  H
  H33      1.0000 0.94550  0.65520  0.69370  Biso   1.000  H
  H34      1.0000 0.05450  0.34480  0.30630  Biso   1.000  H
  C41      1.0000 0.92420  0.61380  0.82470  Biso   1.000  C
  C42      1.0000 0.07580  0.38620  0.17530  Biso   1.000  C
  H35      1.0000 0.95350  0.68140  0.87660  Biso   1.000  H
  H36      1.0000 0.04650  0.31860  0.12340  Biso   1.000  H
  H37      1.0000 0.85200  0.57330  0.83710  Biso   1.000  H
  H38      1.0000 0.14800  0.42670  0.16290  Biso   1.000  H
  C43      1.0000 0.05220  0.55510  0.84610  Biso   1.000  C
  C44      1.0000 0.94780  0.44490  0.15390  Biso   1.000  C
  H39      1.0000 0.12330  0.57900  0.92220  Biso   1.000  H
  H40      1.0000 0.87670  0.42100  0.07780  Biso   1.000  H
  H41      1.0000 0.09400  0.56330  0.79390  Biso   1.000  H
  H42      1.0000 0.90600  0.43670  0.20610  Biso   1.000  H
  C45      1.0000 0.98680  0.45080  0.82670  Biso   1.000  C
  C46      1.0000 0.01320  0.54920  0.17330  Biso   1.000  C
  H43      1.0000 0.04920  0.40390  0.81990  Biso   1.000  H
  H44      1.0000 0.95080  0.59610  0.18010  Biso   1.000  H
  H45      1.0000 0.96420  0.44200  0.88840  Biso   1.000  H
  H46      1.0000 0.03580  0.55800  0.11160  Biso   1.000  H
  H47      1.0000 0.90240  0.43550  0.75880  Biso   1.000  H
  H48      1.0000 0.09760  0.56450  0.24120  Biso   1.000  H
  C47      1.0000 0.80831  0.79518  0.72984  Biso   1.000  C
  C48      1.0000 0.19169  0.20482  0.27016  Biso   1.000  C
  H49      1.0000 0.89760  0.83130  0.77840  Biso   1.000  H
  H50      1.0000 0.10240  0.16870  0.22160  Biso   1.000  H
  C49      1.0000 0.91045  0.94369  0.44113  Biso   1.000  C
  C50      1.0000 0.08955  0.05631  0.55887  Biso   1.000  C
  C51      1.0000 0.90686  0.89007  0.51933  Biso   1.000  C
  C52      1.0000 0.09314  0.10993  0.48067  Biso   1.000  C
  H51      1.0000 0.92720  0.92640  0.59170  Biso   1.000  H
  H52      1.0000 0.07280  0.07360  0.40830  Biso   1.000  H
  C53      1.0000 0.87386  0.78384  0.49268  Biso   1.000  C
  C54      1.0000 0.12614  0.21616  0.50732  Biso   1.000  C
  H53      1.0000 0.87140  0.74680  0.54670  Biso   1.000  H
  H54      1.0000 0.12860  0.25320  0.45330  Biso   1.000  H
  C55      1.0000 0.84445  0.73122  0.38784  Biso   1.000  C
  C56      1.0000 0.15555  0.26878  0.61216  Biso   1.000  C
  H55      1.0000 0.82170  0.65780  0.36940  Biso   1.000  H
  H56      1.0000 0.17830  0.34220  0.63060  Biso   1.000  H
  C57      1.0000 0.84804  0.78483  0.30965  Biso   1.000  C
  C58      1.0000 0.15196  0.21517  0.69035  Biso   1.000  C
  H57      1.0000 0.82770  0.74850  0.23720  Biso   1.000  H
  H58      1.0000 0.17230  0.25150  0.76280  Biso   1.000  H
  C59      1.0000 0.88105  0.89107  0.33629  Biso   1.000  C
  C60      1.0000 0.11895  0.10893  0.66371  Biso   1.000  C
  H59      1.0000 0.88350  0.92810  0.28230  Biso   1.000  H
  H60      1.0000 0.11650  0.07190  0.71770  Biso   1.000  H
  C61      1.0000 0.95179  0.06046  0.47583  Biso   1.000  C
  C62      1.0000 0.04821  0.93954  0.52417  Biso   1.000  C
  H61      1.0000 0.90770  0.08730  0.52070  Biso   1.000  H
  H62      1.0000 0.09230  0.91270  0.47930  Biso   1.000  H
  H63      1.0000 0.92380  0.09000  0.41270  Biso   1.000  H
  H64      1.0000 0.07620  0.91000  0.58730  Biso   1.000  H
  C63      1.0000 0.09808  0.08762  0.53586  Biso   1.000  C
  C64      1.0000 0.90192  0.91238  0.46414  Biso   1.000  C
  H65      1.0000 0.14370  0.04590  0.50180  Biso   1.000  H
  H66      1.0000 0.85630  0.95410  0.49820  Biso   1.000  H
  H67      1.0000 0.12470  0.07920  0.60930  Biso   1.000  H
  H68      1.0000 0.87530  0.92080  0.39070  Biso   1.000  H
  C65      1.0000 0.13231  0.20551  0.53274  Biso   1.000  C
  C66      1.0000 0.86769  0.79449  0.46726  Biso   1.000  C
  H69      1.0000 0.05800  0.22670  0.47920  Biso   1.000  H
  H70      1.0000 0.94200  0.77330  0.52080  Biso   1.000  H
  H71      1.0000 0.21230  0.21910  0.51950  Biso   1.000  H
  H72      1.0000 0.78770  0.78090  0.48050  Biso   1.000  H
  C67      1.0000 0.15343  0.25291  0.64070  Biso   1.000  C
  C68      1.0000 0.84657  0.74709  0.35930  Biso   1.000  C
  H73      1.0000 0.17540  0.32580  0.65100  Biso   1.000  H
  H74      1.0000 0.82460  0.67420  0.34900  Biso   1.000  H
  H75      1.0000 0.07240  0.23610  0.65160  Biso   1.000  H
  H76      1.0000 0.92760  0.76390  0.34840  Biso   1.000  H
  H77      1.0000 0.22670  0.22860  0.69200  Biso   1.000  H
  H78      1.0000 0.77330  0.77140  0.30800  Biso   1.000  H
  C69      1.0000 0.14010  0.39160  0.28450  Biso   1.000  C
  C70      1.0000 0.85990  0.60840  0.71550  Biso   1.000  C
  C71      1.0000 0.04770  0.37550  0.16590  Biso   1.000  C
  C72      1.0000 0.95230  0.62450  0.83410  Biso   1.000  C
  C73      1.0000 0.00050  0.48030  0.14500  Biso   1.000  C
  C74      1.0000 0.99950  0.51970  0.85500  Biso   1.000  C
  C75      1.0000 0.86610  0.46820  0.13900  Biso   1.000  C
  C76      1.0000 0.13390  0.53180  0.86100  Biso   1.000  C
  F25      1.0000 0.49890  0.48650  0.11510  Biso   1.000  F
  F26      1.0000 0.50110  0.51350  0.88490  Biso   1.000  F
  F27      1.0000 0.46810  0.36290  0.80190  Biso   1.000  F
  F28      1.0000 0.53190  0.63710  0.19810  Biso   1.000  F
  F29      1.0000 0.34270  0.54180  0.15080  Biso   1.000  F
  F30      1.0000 0.65730  0.45820  0.84920  Biso   1.000  F
  F31      1.0000 0.59650  0.75280  0.02060  Biso   1.000  F
  F32      1.0000 0.40350  0.24720  0.97940  Biso   1.000  F
  F33      1.0000 0.78070  0.70180  0.02080  Biso   1.000  F
  F34      1.0000 0.21930  0.29820  0.97920  Biso   1.000  F
  F35      1.0000 0.64880  0.71410  0.87610  Biso   1.000  F
  F36      1.0000 0.35120  0.28590  0.12390  Biso   1.000  F
  F37      1.0000 0.70960  0.20270  0.08850  Biso   1.000  F
  F38      1.0000 0.29040  0.79730  0.91150  Biso   1.000  F
  F39      1.0000 0.64970  0.09470  0.16680  Biso   1.000  F
  F40      1.0000 0.35030  0.90530  0.83320  Biso   1.000  F
  F41      1.0000 0.85250  0.17680  0.23550  Biso   1.000  F
  F42      1.0000 0.14750  0.82320  0.76450  Biso   1.000  F
  F43      1.0000 0.07360  0.57840  0.46510  Biso   1.000  F
  F44      1.0000 0.92640  0.42160  0.53490  Biso   1.000  F
  F45      1.0000 0.21460  0.72070  0.53140  Biso   1.000  F
  F46      1.0000 0.78540  0.27930  0.46860  Biso   1.000  F
  F47      1.0000 0.15060  0.64170  0.63770  Biso   1.000  F
  F48      1.0000 0.84940  0.35830  0.36230  Biso   1.000  F
  H79      1.0000 0.08420  0.39550  0.32760  Biso   1.000  H
  H80      1.0000 0.91580  0.60450  0.67240  Biso   1.000  H
  H81      1.0000 0.20320  0.45790  0.30770  Biso   1.000  H
  H82      1.0000 0.79680  0.54210  0.69230  Biso   1.000  H
  H83      1.0000 0.96700  0.32200  0.14640  Biso   1.000  H
  H84      1.0000 0.03300  0.67800  0.85360  Biso   1.000  H
  H85      1.0000 0.09700  0.35300  0.12040  Biso   1.000  H
  H86      1.0000 0.90300  0.64700  0.87960  Biso   1.000  H
  H87      1.0000 0.06110  0.53790  0.20600  Biso   1.000  H
  H88      1.0000 0.93890  0.46210  0.79400  Biso   1.000  H
  H89      1.0000 0.00120  0.49350  0.07550  Biso   1.000  H
  H90      1.0000 0.99880  0.50650  0.92450  Biso   1.000  H
  H91      1.0000 0.83590  0.53510  0.14210  Biso   1.000  H
  H92      1.0000 0.16410  0.46490  0.85790  Biso   1.000  H
  H93      1.0000 0.86470  0.44000  0.20090  Biso   1.000  H
  H94      1.0000 0.13530  0.56000  0.79910  Biso   1.000  H
  H95      1.0000 0.80410  0.42110  0.06990  Biso   1.000  H
  H96      1.0000 0.19590  0.57890  0.93010  Biso   1.000  H
