data_image0
_cell_length_a       10.8546
_cell_length_b       13.4248
_cell_length_c       13.6547
_cell_angle_alpha    99.193
_cell_angle_beta     112.688
_cell_angle_gamma    95.412

_symmetry_space_group_name_H-M    "P 1"
_symmetry_int_tables_number       1

loop_
  _symmetry_equiv_pos_as_xyz
  'x, y, z'

loop_
  _atom_site_label
  _atom_site_occupancy
  _atom_site_fract_x
  _atom_site_fract_y
  _atom_site_fract_z
  _atom_site_thermal_displace_type
  _atom_site_B_iso_or_equiv
  _atom_site_type_symbol
  Cu1      1.0000 0.00000  0.00000  0.00000  Biso   1.000  Cu
  O1       1.0000 0.87312  0.87458  0.97253  Biso   1.000  O
  O2       1.0000 0.12688  0.12542  0.02747  Biso   1.000  O
  C1       1.0000 0.70350  0.75762  0.97650  Biso   1.000  C
  C2       1.0000 0.29650  0.24238  0.02350  Biso   1.000  C
  F1       1.0000 0.62470  0.73200  0.87570  Biso   1.000  F
  F2       1.0000 0.37530  0.26800  0.12430  Biso   1.000  F
  F3       1.0000 0.62540  0.74570  0.01140  Biso   1.000  F
  F4       1.0000 0.37460  0.25430  0.98860  Biso   1.000  F
  F5       1.0000 0.78410  0.69690  0.00450  Biso   1.000  F
  F6       1.0000 0.21590  0.30310  0.99550  Biso   1.000  F
  C3       1.0000 0.77822  0.86774  0.00275  Biso   1.000  C
  C4       1.0000 0.22178  0.13226  0.99725  Biso   1.000  C
  C5       1.0000 0.73600  0.94535  0.05441  Biso   1.000  C
  C6       1.0000 0.26400  0.05465  0.94559  Biso   1.000  C
  H1       1.0000 0.66370  0.92890  0.07400  Biso   1.000  H
  H2       1.0000 0.33630  0.07110  0.92600  Biso   1.000  H
  C7       1.0000 0.79616  0.04608  0.07830  Biso   1.000  C
  C8       1.0000 0.20384  0.95392  0.92170  Biso   1.000  C
  C9       1.0000 0.74510  0.12683  0.13940  Biso   1.000  C
  C10      1.0000 0.25490  0.87317  0.86060  Biso   1.000  C
  F7       1.0000 0.74750  0.21100  0.10880  Biso   1.000  F
  F8       1.0000 0.25250  0.78900  0.89120  Biso   1.000  F
  F9       1.0000 0.61030  0.09850  0.10940  Biso   1.000  F
  F10      1.0000 0.38970  0.90150  0.89060  Biso   1.000  F
  F11      1.0000 0.79930  0.13420  0.23780  Biso   1.000  F
  F12      1.0000 0.20070  0.86580  0.76220  Biso   1.000  F
  O3       1.0000 0.89124  0.08286  0.05738  Biso   1.000  O
  O4       1.0000 0.10876  0.91714  0.94262  Biso   1.000  O
  Cu2      1.0000 0.50000  0.50000  0.50000  Biso   1.000  Cu
  O5       1.0000 0.34663  0.56230  0.50048  Biso   1.000  O
  O6       1.0000 0.65337  0.43770  0.49952  Biso   1.000  O
  C11      1.0000 0.19210  0.63434  0.55660  Biso   1.000  C
  C12      1.0000 0.80790  0.36566  0.44340  Biso   1.000  C
  F13      1.0000 0.09950  0.60310  0.45940  Biso   1.000  F
  F14      1.0000 0.90050  0.39690  0.54060  Biso   1.000  F
  F15      1.0000 0.23300  0.73040  0.57210  Biso   1.000  F
  F16      1.0000 0.76700  0.26960  0.42790  Biso   1.000  F
  F17      1.0000 0.12970  0.63050  0.61940  Biso   1.000  F
  F18      1.0000 0.87030  0.36950  0.38060  Biso   1.000  F
  C13      1.0000 0.31146  0.57495  0.57831  Biso   1.000  C
  C14      1.0000 0.68854  0.42505  0.42169  Biso   1.000  C
  C15      1.0000 0.36600  0.54439  0.67441  Biso   1.000  C
  C16      1.0000 0.63400  0.45561  0.32559  Biso   1.000  C
  H3       1.0000 0.33230  0.56290  0.72740  Biso   1.000  H
  H4       1.0000 0.66770  0.43710  0.27260  Biso   1.000  H
  C17      1.0000 0.46990  0.48664  0.69675  Biso   1.000  C
  C18      1.0000 0.53010  0.51336  0.30325  Biso   1.000  C
  C19      1.0000 0.52110  0.45308  0.80583  Biso   1.000  C
  C20      1.0000 0.47890  0.54692  0.19417  Biso   1.000  C
  F19      1.0000 0.46570  0.49030  0.87060  Biso   1.000  F
  F20      1.0000 0.53430  0.50970  0.12940  Biso   1.000  F
  F21      1.0000 0.49860  0.35670  0.79520  Biso   1.000  F
  F22      1.0000 0.50140  0.64330  0.20480  Biso   1.000  F
  F23      1.0000 0.65000  0.48470  0.85660  Biso   1.000  F
  F24      1.0000 0.35000  0.51530  0.14340  Biso   1.000  F
  O7       1.0000 0.52712  0.45579  0.63703  Biso   1.000  O
  O8       1.0000 0.47288  0.54421  0.36297  Biso   1.000  O
  O9       1.0000 0.90310  0.01575  0.82002  Biso   1.000  O
  O10      1.0000 0.09690  0.98425  0.17998  Biso   1.000  O
  N1       1.0000 0.77665  0.02329  0.76756  Biso   1.000  N
  N2       1.0000 0.22335  0.97671  0.23244  Biso   1.000  N
  C21      1.0000 0.73350  0.12426  0.75035  Biso   1.000  C
  C22      1.0000 0.26650  0.87574  0.24965  Biso   1.000  C
  C23      1.0000 0.80290  0.20540  0.85493  Biso   1.000  C
  C24      1.0000 0.19710  0.79460  0.14507  Biso   1.000  C
  H5       1.0000 0.89930  0.21960  0.87290  Biso   1.000  H
  H6       1.0000 0.10070  0.78040  0.12710  Biso   1.000  H
  H7       1.0000 0.76520  0.26760  0.84530  Biso   1.000  H
  H8       1.0000 0.23480  0.73240  0.15470  Biso   1.000  H
  H9       1.0000 0.78860  0.18080  0.91340  Biso   1.000  H
  H10      1.0000 0.21140  0.81920  0.08660  Biso   1.000  H
  C25      1.0000 0.77580  0.15242  0.66259  Biso   1.000  C
  C26      1.0000 0.22420  0.84758  0.33741  Biso   1.000  C
  H11      1.0000 0.87380  0.17040  0.69200  Biso   1.000  H
  H12      1.0000 0.12620  0.82960  0.30800  Biso   1.000  H
  H13      1.0000 0.74530  0.09450  0.60160  Biso   1.000  H
  H14      1.0000 0.25470  0.90550  0.39840  Biso   1.000  H
  H15      1.0000 0.73540  0.21040  0.63850  Biso   1.000  H
  H16      1.0000 0.26460  0.78960  0.36150  Biso   1.000  H
  C27      1.0000 0.57750  0.09295  0.71113  Biso   1.000  C
  C28      1.0000 0.42250  0.90705  0.28887  Biso   1.000  C
  C29      1.0000 0.52850  0.10112  0.80189  Biso   1.000  C
  C30      1.0000 0.47150  0.89888  0.19811  Biso   1.000  C
  H17      1.0000 0.43080  0.08100  0.77100  Biso   1.000  H
  H18      1.0000 0.56920  0.91900  0.22900  Biso   1.000  H
  H19      1.0000 0.57020  0.05630  0.84960  Biso   1.000  H
  H20      1.0000 0.42980  0.94370  0.15040  Biso   1.000  H
  H21      1.0000 0.55330  0.17130  0.84300  Biso   1.000  H
  H22      1.0000 0.44670  0.82870  0.15700  Biso   1.000  H
  C31      1.0000 0.49160  0.14352  0.62192  Biso   1.000  C
  C32      1.0000 0.50840  0.85648  0.37808  Biso   1.000  C
  H23      1.0000 0.39640  0.12030  0.60320  Biso   1.000  H
  H24      1.0000 0.60360  0.87970  0.39680  Biso   1.000  H
  H25      1.0000 0.51300  0.21730  0.64750  Biso   1.000  H
  H26      1.0000 0.48700  0.78270  0.35250  Biso   1.000  H
  H27      1.0000 0.51090  0.12510  0.55830  Biso   1.000  H
  H28      1.0000 0.48910  0.87490  0.44170  Biso   1.000  H
  N3       1.0000 0.56024  0.98125  0.66568  Biso   1.000  N
  N4       1.0000 0.43976  0.01875  0.33432  Biso   1.000  N
  O11      1.0000 0.44392  0.92666  0.60646  Biso   1.000  O
  O12      1.0000 0.55608  0.07334  0.39354  Biso   1.000  O
  C33      1.0000 0.67701  0.94463  0.70711  Biso   1.000  C
  C34      1.0000 0.32299  0.05537  0.29289  Biso   1.000  C
  C35      1.0000 0.69002  0.83788  0.68599  Biso   1.000  C
  C36      1.0000 0.30998  0.16212  0.31401  Biso   1.000  C
  C37      1.0000 0.59138  0.75452  0.61879  Biso   1.000  C
  C38      1.0000 0.40862  0.24548  0.38121  Biso   1.000  C
  H29      1.0000 0.50020  0.75880  0.57900  Biso   1.000  H
  H30      1.0000 0.49980  0.24120  0.42100  Biso   1.000  H
  N5       1.0000 0.64165  0.66771  0.61755  Biso   1.000  N
  N6       1.0000 0.35835  0.33229  0.38245  Biso   1.000  N
  N7       1.0000 0.77457  0.69590  0.68630  Biso   1.000  N
  N8       1.0000 0.22543  0.30410  0.31370  Biso   1.000  N
  C39      1.0000 0.86720  0.62680  0.70750  Biso   1.000  C
  C40      1.0000 0.13280  0.37320  0.29250  Biso   1.000  C
  H31      1.0000 0.82410  0.56170  0.65500  Biso   1.000  H
  H32      1.0000 0.17590  0.43830  0.34500  Biso   1.000  H
  H33      1.0000 0.94600  0.65400  0.69550  Biso   1.000  H
  H34      1.0000 0.05400  0.34600  0.30450  Biso   1.000  H
  C41      1.0000 0.91420  0.60670  0.81590  Biso   1.000  C
  C42      1.0000 0.08580  0.39330  0.18410  Biso   1.000  C
  H35      1.0000 0.93780  0.67080  0.87000  Biso   1.000  H
  H36      1.0000 0.06220  0.32920  0.13000  Biso   1.000  H
  H37      1.0000 0.84340  0.56120  0.82300  Biso   1.000  H
  H38      1.0000 0.15660  0.43880  0.17700  Biso   1.000  H
  C43      1.0000 0.04730  0.55250  0.83380  Biso   1.000  C
  C44      1.0000 0.95270  0.44750  0.16620  Biso   1.000  C
  H39      1.0000 0.12150  0.58120  0.90510  Biso   1.000  H
  H40      1.0000 0.87850  0.41880  0.09490  Biso   1.000  H
  H41      1.0000 0.07960  0.55640  0.77650  Biso   1.000  H
  H42      1.0000 0.92040  0.44360  0.22350  Biso   1.000  H
  C45      1.0000 0.98970  0.45590  0.82670  Biso   1.000  C
  C46      1.0000 0.01030  0.54410  0.17330  Biso   1.000  C
  H43      1.0000 0.04960  0.40870  0.81980  Biso   1.000  H
  H44      1.0000 0.95040  0.59130  0.18020  Biso   1.000  H
  H45      1.0000 0.97430  0.45290  0.89170  Biso   1.000  H
  H46      1.0000 0.02570  0.54710  0.10830  Biso   1.000  H
  H47      1.0000 0.90390  0.43720  0.76360  Biso   1.000  H
  H48      1.0000 0.09610  0.56280  0.23640  Biso   1.000  H
  C47      1.0000 0.80663  0.79562  0.72838  Biso   1.000  C
  C48      1.0000 0.19337  0.20438  0.27162  Biso   1.000  C
  H49      1.0000 0.89260  0.83130  0.77790  Biso   1.000  H
  H50      1.0000 0.10740  0.16870  0.22210  Biso   1.000  H
  C49      1.0000 0.91213  0.94325  0.44259  Biso   1.000  C
  C50      1.0000 0.08787  0.05675  0.55741  Biso   1.000  C
  C51      1.0000 0.90854  0.88963  0.52079  Biso   1.000  C
  C52      1.0000 0.09146  0.11037  0.47921  Biso   1.000  C
  H51      1.0000 0.92880  0.92600  0.59320  Biso   1.000  H
  H52      1.0000 0.07120  0.07400  0.40680  Biso   1.000  H
  C53      1.0000 0.87554  0.78340  0.49414  Biso   1.000  C
  C54      1.0000 0.12446  0.21660  0.50586  Biso   1.000  C
  H53      1.0000 0.87310  0.74640  0.54810  Biso   1.000  H
  H54      1.0000 0.12690  0.25360  0.45190  Biso   1.000  H
  C55      1.0000 0.84613  0.73078  0.38930  Biso   1.000  C
  C56      1.0000 0.15387  0.26922  0.61070  Biso   1.000  C
  H55      1.0000 0.82330  0.65740  0.37090  Biso   1.000  H
  H56      1.0000 0.17670  0.34260  0.62910  Biso   1.000  H
  C57      1.0000 0.84972  0.78439  0.31111  Biso   1.000  C
  C58      1.0000 0.15028  0.21561  0.68889  Biso   1.000  C
  H57      1.0000 0.82940  0.74800  0.23870  Biso   1.000  H
  H58      1.0000 0.17060  0.25200  0.76130  Biso   1.000  H
  C59      1.0000 0.88273  0.89063  0.33775  Biso   1.000  C
  C60      1.0000 0.11727  0.10937  0.66225  Biso   1.000  C
  H59      1.0000 0.88520  0.92770  0.28380  Biso   1.000  H
  H60      1.0000 0.11480  0.07230  0.71620  Biso   1.000  H
  C61      1.0000 0.95347  0.06002  0.47729  Biso   1.000  C
  C62      1.0000 0.04653  0.93998  0.52271  Biso   1.000  C
  H61      1.0000 0.90940  0.08680  0.52210  Biso   1.000  H
  H62      1.0000 0.09060  0.91320  0.47790  Biso   1.000  H
  H63      1.0000 0.92550  0.08960  0.41420  Biso   1.000  H
  H64      1.0000 0.07450  0.91040  0.58580  Biso   1.000  H
  C63      1.0000 0.09976  0.08718  0.53732  Biso   1.000  C
  C64      1.0000 0.90024  0.91282  0.46268  Biso   1.000  C
  H65      1.0000 0.14540  0.04550  0.50330  Biso   1.000  H
  H66      1.0000 0.85460  0.95450  0.49670  Biso   1.000  H
  H67      1.0000 0.12630  0.07870  0.61080  Biso   1.000  H
  H68      1.0000 0.87370  0.92130  0.38920  Biso   1.000  H
  C65      1.0000 0.13399  0.20507  0.53420  Biso   1.000  C
  C66      1.0000 0.86601  0.79493  0.46580  Biso   1.000  C
  H69      1.0000 0.05960  0.22630  0.48060  Biso   1.000  H
  H70      1.0000 0.94040  0.77370  0.51940  Biso   1.000  H
  H71      1.0000 0.21400  0.21870  0.52100  Biso   1.000  H
  H72      1.0000 0.78600  0.78130  0.47900  Biso   1.000  H
  C67      1.0000 0.15511  0.25247  0.64216  Biso   1.000  C
  C68      1.0000 0.84489  0.74753  0.35784  Biso   1.000  C
  H73      1.0000 0.17710  0.32540  0.65250  Biso   1.000  H
  H74      1.0000 0.82290  0.67460  0.34750  Biso   1.000  H
  H75      1.0000 0.07400  0.23570  0.65310  Biso   1.000  H
  H76      1.0000 0.92600  0.76430  0.34690  Biso   1.000  H
  H77      1.0000 0.22830  0.22810  0.69340  Biso   1.000  H
  H78      1.0000 0.77170  0.77190  0.30660  Biso   1.000  H
  C69      1.0000 0.14070  0.39020  0.29390  Biso   1.000  C
  C70      1.0000 0.85930  0.60980  0.70610  Biso   1.000  C
  C71      1.0000 0.05340  0.37850  0.17690  Biso   1.000  C
  C72      1.0000 0.94660  0.62150  0.82310  Biso   1.000  C
  C73      1.0000 0.00030  0.48110  0.16070  Biso   1.000  C
  C74      1.0000 0.99970  0.51890  0.83930  Biso   1.000  C
  C75      1.0000 0.86490  0.46300  0.11370  Biso   1.000  C
  C76      1.0000 0.13510  0.53700  0.88630  Biso   1.000  C
  F25      1.0000 0.49040  0.48600  0.11810  Biso   1.000  F
  F26      1.0000 0.50960  0.51400  0.88190  Biso   1.000  F
  F27      1.0000 0.45730  0.36240  0.79420  Biso   1.000  F
  F28      1.0000 0.54270  0.63760  0.20580  Biso   1.000  F
  F29      1.0000 0.34740  0.55470  0.15580  Biso   1.000  F
  F30      1.0000 0.65260  0.44530  0.84420  Biso   1.000  F
  F31      1.0000 0.60340  0.74980  0.02220  Biso   1.000  F
  F32      1.0000 0.39660  0.25020  0.97780  Biso   1.000  F
  F33      1.0000 0.78900  0.69640  0.02490  Biso   1.000  F
  F34      1.0000 0.21100  0.30360  0.97510  Biso   1.000  F
  F35      1.0000 0.65750  0.71380  0.87250  Biso   1.000  F
  F36      1.0000 0.34250  0.28620  0.12750  Biso   1.000  F
  F37      1.0000 0.71040  0.20090  0.08810  Biso   1.000  F
  F38      1.0000 0.28960  0.79910  0.91190  Biso   1.000  F
  F39      1.0000 0.65590  0.09440  0.17000  Biso   1.000  F
  F40      1.0000 0.34410  0.90560  0.83000  Biso   1.000  F
  F41      1.0000 0.85460  0.17790  0.23230  Biso   1.000  F
  F42      1.0000 0.14540  0.82210  0.76770  Biso   1.000  F
  F43      1.0000 0.08430  0.57770  0.47900  Biso   1.000  F
  F44      1.0000 0.91570  0.42230  0.52100  Biso   1.000  F
  F45      1.0000 0.21630  0.71770  0.52980  Biso   1.000  F
  F46      1.0000 0.78370  0.28230  0.47020  Biso   1.000  F
  F47      1.0000 0.16460  0.65200  0.64320  Biso   1.000  F
  F48      1.0000 0.83540  0.34800  0.35680  Biso   1.000  F
  H79      1.0000 0.08380  0.38920  0.33480  Biso   1.000  H
  H80      1.0000 0.91620  0.61080  0.66520  Biso   1.000  H
  H81      1.0000 0.20140  0.45650  0.32050  Biso   1.000  H
  H82      1.0000 0.79860  0.54350  0.67950  Biso   1.000  H
  H83      1.0000 0.97710  0.32220  0.15390  Biso   1.000  H
  H84      1.0000 0.02290  0.67780  0.84610  Biso   1.000  H
  H85      1.0000 0.10550  0.36300  0.13330  Biso   1.000  H
  H86      1.0000 0.89450  0.63700  0.86670  Biso   1.000  H
  H87      1.0000 0.03160  0.52870  0.23110  Biso   1.000  H
  H88      1.0000 0.96840  0.47130  0.76890  Biso   1.000  H
  H89      1.0000 0.03600  0.51250  0.11480  Biso   1.000  H
  H90      1.0000 0.96400  0.48750  0.88520  Biso   1.000  H
  H91      1.0000 0.83150  0.52740  0.11610  Biso   1.000  H
  H92      1.0000 0.16850  0.47260  0.88390  Biso   1.000  H
  H93      1.0000 0.83030  0.42110  0.15220  Biso   1.000  H
  H94      1.0000 0.16970  0.57890  0.84780  Biso   1.000  H
  H95      1.0000 0.83460  0.42730  0.03860  Biso   1.000  H
  H96      1.0000 0.16540  0.57270  0.96140  Biso   1.000  H
