data_image0
_cell_length_a       10.7336
_cell_length_b       13.2076
_cell_length_c       13.2548
_cell_angle_alpha    77.237
_cell_angle_beta     68.078
_cell_angle_gamma    85.21

_symmetry_space_group_name_H-M    "P 1"
_symmetry_int_tables_number       1

loop_
  _symmetry_equiv_pos_as_xyz
  'x, y, z'

loop_
  _atom_site_label
  _atom_site_occupancy
  _atom_site_fract_x
  _atom_site_fract_y
  _atom_site_fract_z
  _atom_site_thermal_displace_type
  _atom_site_B_iso_or_equiv
  _atom_site_type_symbol
  Cu1      1.0000 0.00000  0.50000  0.00000  Biso   1.000  Cu
  O1       1.0000 0.88838  0.61826  0.96820  Biso   1.000  O
  O2       1.0000 0.11162  0.38174  0.03180  Biso   1.000  O
  C1       1.0000 0.71580  0.73930  0.98470  Biso   1.000  C
  C2       1.0000 0.28420  0.26070  0.01530  Biso   1.000  C
  F1       1.0000 0.76536  0.79785  0.03060  Biso   1.000  F
  F2       1.0000 0.23464  0.20215  0.96940  Biso   1.000  F
  F3       1.0000 0.58243  0.75085  0.02501  Biso   1.000  F
  F4       1.0000 0.41757  0.24915  0.97499  Biso   1.000  F
  F5       1.0000 0.75867  0.77985  0.87616  Biso   1.000  F
  F6       1.0000 0.24133  0.22015  0.12384  Biso   1.000  F
  C3       1.0000 0.76220  0.62652  0.00664  Biso   1.000  C
  C4       1.0000 0.23780  0.37348  0.99336  Biso   1.000  C
  C5       1.0000 0.66650  0.55030  0.06270  Biso   1.000  C
  C6       1.0000 0.33350  0.44970  0.93730  Biso   1.000  C
  H1       1.0000 0.57440  0.56980  0.08650  Biso   1.000  H
  H2       1.0000 0.42560  0.43020  0.91350  Biso   1.000  H
  C7       1.0000 0.69980  0.44490  0.08610  Biso   1.000  C
  C8       1.0000 0.30020  0.55510  0.91390  Biso   1.000  C
  C9       1.0000 0.58450  0.36700  0.15430  Biso   1.000  C
  C10      1.0000 0.41550  0.63300  0.84570  Biso   1.000  C
  F7       1.0000 0.60200  0.28380  0.11290  Biso   1.000  F
  F8       1.0000 0.39800  0.71620  0.88710  Biso   1.000  F
  F9       1.0000 0.47300  0.39990  0.13280  Biso   1.000  F
  F10      1.0000 0.52700  0.60010  0.86720  Biso   1.000  F
  F11      1.0000 0.55980  0.34890  0.25330  Biso   1.000  F
  F12      1.0000 0.44020  0.65110  0.74670  Biso   1.000  F
  O3       1.0000 0.81219  0.40479  0.05838  Biso   1.000  O
  O4       1.0000 0.18781  0.59521  0.94162  Biso   1.000  O
  Cu2      1.0000 0.00000  0.00000  0.50000  Biso   1.000  Cu
  O5       1.0000 0.84644  0.93851  0.49377  Biso   1.000  O
  O6       1.0000 0.15356  0.06149  0.50623  Biso   1.000  O
  C11      1.0000 0.63520  0.86810  0.54480  Biso   1.000  C
  C12      1.0000 0.36480  0.13190  0.45520  Biso   1.000  C
  F13      1.0000 0.63280  0.91061  0.44563  Biso   1.000  F
  F14      1.0000 0.36720  0.08939  0.55437  Biso   1.000  F
  F15      1.0000 0.51010  0.86967  0.61580  Biso   1.000  F
  F16      1.0000 0.48990  0.13033  0.38420  Biso   1.000  F
  F17      1.0000 0.66924  0.77058  0.54489  Biso   1.000  F
  F18      1.0000 0.33076  0.22942  0.45511  Biso   1.000  F
  C13      1.0000 0.73350  0.92504  0.57179  Biso   1.000  C
  C14      1.0000 0.26650  0.07496  0.42821  Biso   1.000  C
  C15      1.0000 0.69200  0.95340  0.67389  Biso   1.000  C
  C16      1.0000 0.30800  0.04660  0.32611  Biso   1.000  C
  H3       1.0000 0.60510  0.93360  0.72700  Biso   1.000  H
  H4       1.0000 0.39490  0.06640  0.27300  Biso   1.000  H
  C17      1.0000 0.77470  0.01033  0.70038  Biso   1.000  C
  C18      1.0000 0.22530  0.98967  0.29962  Biso   1.000  C
  C19      1.0000 0.72160  0.03970  0.81440  Biso   1.000  C
  C20      1.0000 0.27840  0.96030  0.18560  Biso   1.000  C
  F19      1.0000 0.61277  0.98731  0.88571  Biso   1.000  F
  F20      1.0000 0.38723  0.01269  0.11429  Biso   1.000  F
  F21      1.0000 0.69700  0.14300  0.80500  Biso   1.000  F
  F22      1.0000 0.30300  0.85700  0.19500  Biso   1.000  F
  F23      1.0000 0.80900  0.01380  0.86890  Biso   1.000  F
  F24      1.0000 0.19100  0.98620  0.13110  Biso   1.000  F
  O7       1.0000 0.89082  0.04467  0.64012  Biso   1.000  O
  O8       1.0000 0.10918  0.95533  0.35988  Biso   1.000  O
  O9       1.0000 0.08036  0.48540  0.83873  Biso   1.000  O
  O10      1.0000 0.91964  0.51460  0.16127  Biso   1.000  O
  N1       1.0000 0.00640  0.47570  0.78157  Biso   1.000  N
  N2       1.0000 0.99360  0.52430  0.21843  Biso   1.000  N
  C21      1.0000 0.98690  0.37280  0.75900  Biso   1.000  C
  C22      1.0000 0.01310  0.62720  0.24100  Biso   1.000  C
  C23      1.0000 0.95500  0.28686  0.86270  Biso   1.000  C
  C24      1.0000 0.04500  0.71314  0.13730  Biso   1.000  C
  H5       1.0000 0.03430  0.27300  0.88350  Biso   1.000  H
  H6       1.0000 0.96570  0.72700  0.11650  Biso   1.000  H
  H7       1.0000 0.88020  0.30860  0.92370  Biso   1.000  H
  H8       1.0000 0.11980  0.69140  0.07630  Biso   1.000  H
  H9       1.0000 0.93020  0.22360  0.84750  Biso   1.000  H
  H10      1.0000 0.06980  0.77640  0.15250  Biso   1.000  H
  C25      1.0000 0.11930  0.34890  0.67050  Biso   1.000  C
  C26      1.0000 0.88070  0.65110  0.32950  Biso   1.000  C
  H11      1.0000 0.13880  0.40400  0.60360  Biso   1.000  H
  H12      1.0000 0.86120  0.59600  0.39640  Biso   1.000  H
  H13      1.0000 0.19200  0.34510  0.69910  Biso   1.000  H
  H14      1.0000 0.80800  0.65490  0.30090  Biso   1.000  H
  H15      1.0000 0.11200  0.28230  0.65210  Biso   1.000  H
  H16      1.0000 0.88800  0.71770  0.34790  Biso   1.000  H
  C27      1.0000 0.87100  0.40112  0.71525  Biso   1.000  C
  C28      1.0000 0.12900  0.59888  0.28475  Biso   1.000  C
  C29      1.0000 0.87540  0.34870  0.62340  Biso   1.000  C
  C30      1.0000 0.12460  0.65130  0.37660  Biso   1.000  C
  H17      1.0000 0.79730  0.37010  0.60240  Biso   1.000  H
  H18      1.0000 0.20270  0.62990  0.39760  Biso   1.000  H
  H19      1.0000 0.95790  0.36870  0.55880  Biso   1.000  H
  H20      1.0000 0.04210  0.63130  0.44120  Biso   1.000  H
  H21      1.0000 0.87390  0.27320  0.64950  Biso   1.000  H
  H22      1.0000 0.12610  0.72680  0.35050  Biso   1.000  H
  C31      1.0000 0.73070  0.39247  0.80600  Biso   1.000  C
  C32      1.0000 0.26930  0.60753  0.19400  Biso   1.000  C
  H23      1.0000 0.66320  0.41180  0.77170  Biso   1.000  H
  H24      1.0000 0.33680  0.58820  0.22830  Biso   1.000  H
  H25      1.0000 0.71510  0.32090  0.84850  Biso   1.000  H
  H26      1.0000 0.28490  0.67910  0.15150  Biso   1.000  H
  H27      1.0000 0.72390  0.43920  0.85580  Biso   1.000  H
  H28      1.0000 0.27610  0.56080  0.14420  Biso   1.000  H
  N3       1.0000 0.89630  0.51591  0.66929  Biso   1.000  N
  N4       1.0000 0.10370  0.48409  0.33071  Biso   1.000  N
  O11      1.0000 0.84270  0.56849  0.60373  Biso   1.000  O
  O12      1.0000 0.15730  0.43151  0.39627  Biso   1.000  O
  C33      1.0000 0.96870  0.55498  0.71707  Biso   1.000  C
  C34      1.0000 0.03130  0.44502  0.28293  Biso   1.000  C
  C35      1.0000 0.00140  0.66265  0.69602  Biso   1.000  C
  C36      1.0000 0.99860  0.33735  0.30398  Biso   1.000  C
  C37      1.0000 0.97000  0.74679  0.62291  Biso   1.000  C
  C38      1.0000 0.03000  0.25321  0.37709  Biso   1.000  C
  H29      1.0000 0.91980  0.74070  0.57880  Biso   1.000  H
  H30      1.0000 0.08020  0.25930  0.42120  Biso   1.000  H
  N5       1.0000 0.01900  0.83512  0.62350  Biso   1.000  N
  N6       1.0000 0.98100  0.16488  0.37650  Biso   1.000  N
  N7       1.0000 0.08180  0.80947  0.69865  Biso   1.000  N
  N8       1.0000 0.91820  0.19053  0.30135  Biso   1.000  N
  C39      1.0000 0.14520  0.88920  0.72410  Biso   1.000  C
  C40      1.0000 0.85480  0.11080  0.27590  Biso   1.000  C
  H31      1.0000 0.24400  0.88340  0.68890  Biso   1.000  H
  H32      1.0000 0.75600  0.11660  0.31110  Biso   1.000  H
  H33      1.0000 0.11840  0.95850  0.69170  Biso   1.000  H
  H34      1.0000 0.88160  0.04150  0.30830  Biso   1.000  H
  C41      1.0000 0.10770  0.88090  0.84810  Biso   1.000  C
  C42      1.0000 0.89230  0.11910  0.15190  Biso   1.000  C
  H35      1.0000 0.00870  0.87740  0.88480  Biso   1.000  H
  H36      1.0000 0.99130  0.12260  0.11520  Biso   1.000  H
  H37      1.0000 0.14510  0.81560  0.87880  Biso   1.000  H
  H38      1.0000 0.85490  0.18440  0.12120  Biso   1.000  H
  C43      1.0000 0.15970  0.97280  0.87490  Biso   1.000  C
  C44      1.0000 0.84030  0.02720  0.12510  Biso   1.000  C
  H39      1.0000 0.11830  0.96950  0.95600  Biso   1.000  H
  H40      1.0000 0.88170  0.03050  0.04400  Biso   1.000  H
  H41      1.0000 0.12930  0.03810  0.83750  Biso   1.000  H
  H42      1.0000 0.87070  0.96190  0.16250  Biso   1.000  H
  C45      1.0000 0.30580  0.97680  0.84170  Biso   1.000  C
  C46      1.0000 0.69420  0.02320  0.15830  Biso   1.000  C
  H43      1.0000 0.33090  0.04150  0.85390  Biso   1.000  H
  H44      1.0000 0.66910  0.95850  0.14610  Biso   1.000  H
  H45      1.0000 0.33580  0.91740  0.88610  Biso   1.000  H
  H46      1.0000 0.66420  0.08260  0.11390  Biso   1.000  H
  H47      1.0000 0.34850  0.97410  0.76280  Biso   1.000  H
  H48      1.0000 0.65150  0.02590  0.23720  Biso   1.000  H
  C47      1.0000 0.07471  0.70832  0.74178  Biso   1.000  C
  C48      1.0000 0.92529  0.29168  0.25822  Biso   1.000  C
  H49      1.0000 0.11270  0.67340  0.79430  Biso   1.000  H
  H50      1.0000 0.88730  0.32660  0.20570  Biso   1.000  H
  C49      1.0000 0.53423  0.43983  0.55484  Biso   1.000  C
  C50      1.0000 0.46577  0.56017  0.44516  Biso   1.000  C
  C51      1.0000 0.61783  0.38523  0.47683  Biso   1.000  C
  C52      1.0000 0.38217  0.61477  0.52317  Biso   1.000  C
  H51      1.0000 0.67140  0.42370  0.40500  Biso   1.000  H
  H52      1.0000 0.32860  0.57630  0.59500  Biso   1.000  H
  C53      1.0000 0.62735  0.28440  0.49612  Biso   1.000  C
  C54      1.0000 0.37265  0.71560  0.50388  Biso   1.000  C
  H53      1.0000 0.67840  0.24910  0.43750  Biso   1.000  H
  H54      1.0000 0.32160  0.75090  0.56250  Biso   1.000  H
  C55      1.0000 0.56117  0.22817  0.60497  Biso   1.000  C
  C56      1.0000 0.43883  0.77183  0.39503  Biso   1.000  C
  H55      1.0000 0.57120  0.15420  0.62320  Biso   1.000  H
  H56      1.0000 0.42880  0.84580  0.37680  Biso   1.000  H
  C57      1.0000 0.47999  0.28295  0.68647  Biso   1.000  C
  C58      1.0000 0.52001  0.71705  0.31353  Biso   1.000  C
  H57      1.0000 0.43270  0.24760  0.76150  Biso   1.000  H
  H58      1.0000 0.56730  0.75240  0.23850  Biso   1.000  H
  C59      1.0000 0.47069  0.39293  0.65341  Biso   1.000  C
  C60      1.0000 0.52931  0.60707  0.34659  Biso   1.000  C
  H59      1.0000 0.41520  0.43210  0.70700  Biso   1.000  H
  H60      1.0000 0.58480  0.56790  0.29300  Biso   1.000  H
  C61      1.0000 0.52957  0.56054  0.51483  Biso   1.000  C
  C62      1.0000 0.47043  0.43946  0.48517  Biso   1.000  C
  H61      1.0000 0.59540  0.58200  0.44160  Biso   1.000  H
  H62      1.0000 0.40460  0.41800  0.55840  Biso   1.000  H
  H63      1.0000 0.54710  0.59540  0.56450  Biso   1.000  H
  H64      1.0000 0.45290  0.40460  0.43550  Biso   1.000  H
  C63      1.0000 0.39468  0.58429  0.51465  Biso   1.000  C
  C64      1.0000 0.60532  0.41571  0.48535  Biso   1.000  C
  H65      1.0000 0.32970  0.55730  0.58680  Biso   1.000  H
  H66      1.0000 0.67030  0.44270  0.41320  Biso   1.000  H
  H67      1.0000 0.38020  0.55180  0.46190  Biso   1.000  H
  H68      1.0000 0.61980  0.44820  0.53810  Biso   1.000  H
  C65      1.0000 0.37157  0.73400  0.47584  Biso   1.000  C
  C66      1.0000 0.62843  0.26600  0.52416  Biso   1.000  C
  H69      1.0000 0.39290  0.77030  0.52260  Biso   1.000  H
  H70      1.0000 0.60710  0.22970  0.47740  Biso   1.000  H
  H71      1.0000 0.28310  0.75270  0.47610  Biso   1.000  H
  H72      1.0000 0.71690  0.24730  0.52390  Biso   1.000  H
  C67      1.0000 0.47394  0.74892  0.36276  Biso   1.000  C
  C68      1.0000 0.52606  0.25108  0.63724  Biso   1.000  C
  H73      1.0000 0.47840  0.82110  0.32780  Biso   1.000  H
  H74      1.0000 0.52160  0.17890  0.67220  Biso   1.000  H
  H75      1.0000 0.55980  0.72650  0.36660  Biso   1.000  H
  H76      1.0000 0.44020  0.27350  0.63340  Biso   1.000  H
  H77      1.0000 0.45040  0.70890  0.32020  Biso   1.000  H
  H78      1.0000 0.54960  0.29110  0.67980  Biso   1.000  H
  F25      1.0000 0.68300  0.13600  0.80500  Biso   1.000  F
  F26      1.0000 0.31700  0.86400  0.19500  Biso   1.000  F
  F27      1.0000 0.81700  0.03300  0.85260  Biso   1.000  F
  F28      1.0000 0.18300  0.96700  0.14740  Biso   1.000  F
  F29      1.0000 0.61600  0.30370  0.23390  Biso   1.000  F
  F30      1.0000 0.38400  0.69630  0.76610  Biso   1.000  F
  F31      1.0000 0.57490  0.30270  0.09750  Biso   1.000  F
  F32      1.0000 0.42510  0.69730  0.90250  Biso   1.000  F
  F33      1.0000 0.46910  0.40560  0.20360  Biso   1.000  F
  F34      1.0000 0.53090  0.59440  0.79640  Biso   1.000  F
