data_image0
_cell_length_a       10.7038
_cell_length_b       13.3409
_cell_length_c       13.4069
_cell_angle_alpha    76.562
_cell_angle_beta     67.355
_cell_angle_gamma    84.937

_symmetry_space_group_name_H-M    "P 1"
_symmetry_int_tables_number       1

loop_
  _symmetry_equiv_pos_as_xyz
  'x, y, z'

loop_
  _atom_site_label
  _atom_site_occupancy
  _atom_site_fract_x
  _atom_site_fract_y
  _atom_site_fract_z
  _atom_site_thermal_displace_type
  _atom_site_B_iso_or_equiv
  _atom_site_type_symbol
  Cu1      1.0000 0.00000  0.50000  0.00000  Biso   1.000  Cu
  O1       1.0000 0.89229  0.62141  0.96932  Biso   1.000  O
  O2       1.0000 0.10771  0.37859  0.03068  Biso   1.000  O
  C1       1.0000 0.71660  0.73930  0.98010  Biso   1.000  C
  C2       1.0000 0.28340  0.26070  0.01990  Biso   1.000  C
  F1       1.0000 0.76330  0.79856  0.02575  Biso   1.000  F
  F2       1.0000 0.23670  0.20144  0.97425  Biso   1.000  F
  F3       1.0000 0.58236  0.74904  0.01972  Biso   1.000  F
  F4       1.0000 0.41764  0.25096  0.98028  Biso   1.000  F
  F5       1.0000 0.76200  0.77972  0.87276  Biso   1.000  F
  F6       1.0000 0.23800  0.22028  0.12724  Biso   1.000  F
  C3       1.0000 0.76500  0.62820  0.00440  Biso   1.000  C
  C4       1.0000 0.23500  0.37180  0.99560  Biso   1.000  C
  C5       1.0000 0.66930  0.55110  0.05900  Biso   1.000  C
  C6       1.0000 0.33070  0.44890  0.94100  Biso   1.000  C
  H1       1.0000 0.57610  0.56900  0.08120  Biso   1.000  H
  H2       1.0000 0.42390  0.43100  0.91880  Biso   1.000  H
  C7       1.0000 0.70500  0.44790  0.08270  Biso   1.000  C
  C8       1.0000 0.29500  0.55210  0.91730  Biso   1.000  C
  C9       1.0000 0.59080  0.36880  0.14840  Biso   1.000  C
  C10      1.0000 0.40920  0.63120  0.85160  Biso   1.000  C
  F7       1.0000 0.61530  0.28230  0.11190  Biso   1.000  F
  F8       1.0000 0.38470  0.71770  0.88810  Biso   1.000  F
  F9       1.0000 0.47760  0.39670  0.12760  Biso   1.000  F
  F10      1.0000 0.52240  0.60330  0.87240  Biso   1.000  F
  F11      1.0000 0.55270  0.35440  0.25370  Biso   1.000  F
  F12      1.0000 0.44730  0.64560  0.74630  Biso   1.000  F
  O3       1.0000 0.82090  0.40984  0.05821  Biso   1.000  O
  O4       1.0000 0.17910  0.59016  0.94179  Biso   1.000  O
  Cu2      1.0000 0.00000  0.00000  0.50000  Biso   1.000  Cu
  O5       1.0000 0.84488  0.93992  0.49552  Biso   1.000  O
  O6       1.0000 0.15512  0.06008  0.50448  Biso   1.000  O
  C11      1.0000 0.63150  0.87000  0.54900  Biso   1.000  C
  C12      1.0000 0.36850  0.13000  0.45100  Biso   1.000  C
  F13      1.0000 0.62320  0.91665  0.45335  Biso   1.000  F
  F14      1.0000 0.37680  0.08335  0.54665  Biso   1.000  F
  F15      1.0000 0.50652  0.86602  0.62456  Biso   1.000  F
  F16      1.0000 0.49348  0.13398  0.37544  Biso   1.000  F
  F17      1.0000 0.67078  0.77450  0.54325  Biso   1.000  F
  F18      1.0000 0.32922  0.22550  0.45675  Biso   1.000  F
  C13      1.0000 0.73060  0.92670  0.57370  Biso   1.000  C
  C14      1.0000 0.26940  0.07330  0.42630  Biso   1.000  C
  C15      1.0000 0.68890  0.95490  0.67460  Biso   1.000  C
  C16      1.0000 0.31110  0.04510  0.32540  Biso   1.000  C
  H3       1.0000 0.60100  0.93560  0.72810  Biso   1.000  H
  H4       1.0000 0.39900  0.06440  0.27190  Biso   1.000  H
  C17      1.0000 0.77270  0.01115  0.69960  Biso   1.000  C
  C18      1.0000 0.22730  0.98885  0.30040  Biso   1.000  C
  C19      1.0000 0.71790  0.04100  0.81270  Biso   1.000  C
  C20      1.0000 0.28210  0.95900  0.18730  Biso   1.000  C
  F19      1.0000 0.60850  0.98540  0.88760  Biso   1.000  F
  F20      1.0000 0.39150  0.01460  0.11240  Biso   1.000  F
  F21      1.0000 0.81180  0.03300  0.85650  Biso   1.000  F
  F22      1.0000 0.18820  0.96700  0.14350  Biso   1.000  F
  F23      1.0000 0.68300  0.13140  0.80100  Biso   1.000  F
  F24      1.0000 0.31700  0.86860  0.19900  Biso   1.000  F
  O7       1.0000 0.89055  0.04360  0.63939  Biso   1.000  O
  O8       1.0000 0.10945  0.95640  0.36061  Biso   1.000  O
  O9       1.0000 0.08235  0.48452  0.83139  Biso   1.000  O
  O10      1.0000 0.91765  0.51548  0.16861  Biso   1.000  O
  N1       1.0000 0.00720  0.47554  0.77610  Biso   1.000  N
  N2       1.0000 0.99280  0.52446  0.22390  Biso   1.000  N
  C21      1.0000 0.98590  0.37410  0.75580  Biso   1.000  C
  C22      1.0000 0.01410  0.62590  0.24420  Biso   1.000  C
  C23      1.0000 0.95200  0.28920  0.86090  Biso   1.000  C
  C24      1.0000 0.04800  0.71080  0.13910  Biso   1.000  C
  H5       1.0000 0.03120  0.27560  0.88160  Biso   1.000  H
  H6       1.0000 0.96880  0.72440  0.11840  Biso   1.000  H
  H7       1.0000 0.87630  0.31150  0.92110  Biso   1.000  H
  H8       1.0000 0.12370  0.68850  0.07890  Biso   1.000  H
  H9       1.0000 0.92660  0.22630  0.84740  Biso   1.000  H
  H10      1.0000 0.07340  0.77370  0.15260  Biso   1.000  H
  C25      1.0000 0.11830  0.34850  0.66760  Biso   1.000  C
  C26      1.0000 0.88170  0.65150  0.33240  Biso   1.000  C
  H11      1.0000 0.13920  0.40280  0.60020  Biso   1.000  H
  H12      1.0000 0.86080  0.59720  0.39980  Biso   1.000  H
  H13      1.0000 0.19170  0.34370  0.69510  Biso   1.000  H
  H14      1.0000 0.80830  0.65630  0.30490  Biso   1.000  H
  H15      1.0000 0.10890  0.28240  0.65100  Biso   1.000  H
  H16      1.0000 0.89110  0.71760  0.34900  Biso   1.000  H
  C27      1.0000 0.86820  0.40300  0.71380  Biso   1.000  C
  C28      1.0000 0.13180  0.59700  0.28620  Biso   1.000  C
  C29      1.0000 0.87330  0.35060  0.62280  Biso   1.000  C
  C30      1.0000 0.12670  0.64940  0.37720  Biso   1.000  C
  H17      1.0000 0.79510  0.37220  0.60190  Biso   1.000  H
  H18      1.0000 0.20490  0.62780  0.39810  Biso   1.000  H
  H19      1.0000 0.95700  0.37020  0.55810  Biso   1.000  H
  H20      1.0000 0.04300  0.62980  0.44190  Biso   1.000  H
  H21      1.0000 0.87100  0.27570  0.64970  Biso   1.000  H
  H22      1.0000 0.12900  0.72430  0.35030  Biso   1.000  H
  C31      1.0000 0.72760  0.39350  0.80440  Biso   1.000  C
  C32      1.0000 0.27240  0.60650  0.19560  Biso   1.000  C
  H23      1.0000 0.65970  0.41260  0.77100  Biso   1.000  H
  H24      1.0000 0.34030  0.58740  0.22900  Biso   1.000  H
  H25      1.0000 0.71230  0.32220  0.84700  Biso   1.000  H
  H26      1.0000 0.28770  0.67780  0.15300  Biso   1.000  H
  H27      1.0000 0.72020  0.43950  0.85370  Biso   1.000  H
  H28      1.0000 0.27980  0.56050  0.14630  Biso   1.000  H
  N3       1.0000 0.89460  0.51587  0.66750  Biso   1.000  N
  N4       1.0000 0.10540  0.48413  0.33250  Biso   1.000  N
  O11      1.0000 0.83830  0.56931  0.60453  Biso   1.000  O
  O12      1.0000 0.16170  0.43069  0.39547  Biso   1.000  O
  C33      1.0000 0.96830  0.55460  0.71250  Biso   1.000  C
  C34      1.0000 0.03170  0.44540  0.28750  Biso   1.000  C
  C35      1.0000 0.00140  0.66150  0.69170  Biso   1.000  C
  C36      1.0000 0.99860  0.33850  0.30830  Biso   1.000  C
  C37      1.0000 0.96860  0.74580  0.62120  Biso   1.000  C
  C38      1.0000 0.03140  0.25420  0.37880  Biso   1.000  C
  H29      1.0000 0.91720  0.74070  0.57840  Biso   1.000  H
  H30      1.0000 0.08280  0.25930  0.42160  Biso   1.000  H
  N5       1.0000 0.01800  0.83333  0.62163  Biso   1.000  N
  N6       1.0000 0.98200  0.16667  0.37837  Biso   1.000  N
  N7       1.0000 0.08270  0.80610  0.69414  Biso   1.000  N
  N8       1.0000 0.91730  0.19390  0.30586  Biso   1.000  N
  C39      1.0000 0.16200  0.87800  0.71000  Biso   1.000  C
  C40      1.0000 0.83800  0.12200  0.29000  Biso   1.000  C
  H31      1.0000 0.25900  0.86050  0.67780  Biso   1.000  H
  H32      1.0000 0.74100  0.13950  0.32220  Biso   1.000  H
  H33      1.0000 0.14810  0.94820  0.67200  Biso   1.000  H
  H34      1.0000 0.85190  0.05180  0.32800  Biso   1.000  H
  C41      1.0000 0.11840  0.87350  0.84090  Biso   1.000  C
  C42      1.0000 0.88160  0.12650  0.15910  Biso   1.000  C
  H35      1.0000 0.16660  0.81540  0.87150  Biso   1.000  H
  H36      1.0000 0.83340  0.18460  0.12850  Biso   1.000  H
  H37      1.0000 0.02020  0.85840  0.87820  Biso   1.000  H
  H38      1.0000 0.97980  0.14160  0.12180  Biso   1.000  H
  C43      1.0000 0.14800  0.97640  0.87190  Biso   1.000  C
  C44      1.0000 0.85200  0.02360  0.12810  Biso   1.000  C
  H39      1.0000 0.09820  0.97480  0.95170  Biso   1.000  H
  H40      1.0000 0.90180  0.02520  0.04830  Biso   1.000  H
  H41      1.0000 0.12070  0.03860  0.82830  Biso   1.000  H
  H42      1.0000 0.87930  0.96140  0.17170  Biso   1.000  H
  C45      1.0000 0.29650  0.97590  0.84380  Biso   1.000  C
  C46      1.0000 0.70350  0.02410  0.15620  Biso   1.000  C
  H43      1.0000 0.32310  0.03960  0.85510  Biso   1.000  H
  H44      1.0000 0.67690  0.96040  0.14490  Biso   1.000  H
  H45      1.0000 0.32060  0.91650  0.89160  Biso   1.000  H
  H46      1.0000 0.67940  0.08350  0.10840  Biso   1.000  H
  H47      1.0000 0.34380  0.97140  0.76620  Biso   1.000  H
  H48      1.0000 0.65620  0.02860  0.23380  Biso   1.000  H
  C47      1.0000 0.07590  0.70569  0.73628  Biso   1.000  C
  C48      1.0000 0.92410  0.29431  0.26372  Biso   1.000  C
  H49      1.0000 0.11460  0.67010  0.78750  Biso   1.000  H
  H50      1.0000 0.88540  0.32990  0.21250  Biso   1.000  H
  C49      1.0000 0.53529  0.44574  0.55301  Biso   1.000  C
  C50      1.0000 0.46471  0.55426  0.44699  Biso   1.000  C
  C51      1.0000 0.61739  0.39136  0.47469  Biso   1.000  C
  C52      1.0000 0.38261  0.60864  0.52531  Biso   1.000  C
  H51      1.0000 0.66770  0.42740  0.40050  Biso   1.000  H
  H52      1.0000 0.33230  0.57260  0.59950  Biso   1.000  H
  C53      1.0000 0.62658  0.28474  0.50375  Biso   1.000  C
  C54      1.0000 0.37342  0.71526  0.49625  Biso   1.000  C
  H53      1.0000 0.68330  0.24720  0.44970  Biso   1.000  H
  H54      1.0000 0.31670  0.75280  0.55030  Biso   1.000  H
  C55      1.0000 0.55367  0.23249  0.61115  Biso   1.000  C
  C56      1.0000 0.44633  0.76751  0.38885  Biso   1.000  C
  H55      1.0000 0.56000  0.15890  0.63120  Biso   1.000  H
  H56      1.0000 0.44000  0.84110  0.36880  Biso   1.000  H
  C57      1.0000 0.47157  0.28687  0.68946  Biso   1.000  C
  C58      1.0000 0.52843  0.71313  0.31054  Biso   1.000  C
  H57      1.0000 0.42120  0.25080  0.76360  Biso   1.000  H
  H58      1.0000 0.57880  0.74920  0.23640  Biso   1.000  H
  C59      1.0000 0.46238  0.39349  0.66040  Biso   1.000  C
  C60      1.0000 0.53762  0.60651  0.33960  Biso   1.000  C
  H59      1.0000 0.40570  0.43100  0.71450  Biso   1.000  H
  H60      1.0000 0.59430  0.56900  0.28550  Biso   1.000  H
  C61      1.0000 0.52864  0.56258  0.51659  Biso   1.000  C
  C62      1.0000 0.47136  0.43742  0.48341  Biso   1.000  C
  H61      1.0000 0.61070  0.58720  0.45550  Biso   1.000  H
  H62      1.0000 0.38930  0.41280  0.54450  Biso   1.000  H
  H63      1.0000 0.52030  0.59400  0.57640  Biso   1.000  H
  H64      1.0000 0.47970  0.40600  0.42360  Biso   1.000  H
  C63      1.0000 0.41467  0.59094  0.48403  Biso   1.000  C
  C64      1.0000 0.58533  0.40906  0.51597  Biso   1.000  C
  H65      1.0000 0.33650  0.55100  0.53520  Biso   1.000  H
  H66      1.0000 0.66350  0.44900  0.46480  Biso   1.000  H
  H67      1.0000 0.43450  0.57910  0.41150  Biso   1.000  H
  H68      1.0000 0.56550  0.42090  0.58850  Biso   1.000  H
  C65      1.0000 0.38839  0.70702  0.48420  Biso   1.000  C
  C66      1.0000 0.61161  0.29298  0.51580  Biso   1.000  C
  H69      1.0000 0.41870  0.72720  0.53540  Biso   1.000  H
  H70      1.0000 0.58130  0.27280  0.46460  Biso   1.000  H
  H71      1.0000 0.29400  0.72320  0.50280  Biso   1.000  H
  H72      1.0000 0.70600  0.27680  0.49720  Biso   1.000  H
  C67      1.0000 0.46616  0.75581  0.37329  Biso   1.000  C
  C68      1.0000 0.53384  0.24419  0.62671  Biso   1.000  C
  H73      1.0000 0.45650  0.82920  0.36470  Biso   1.000  H
  H74      1.0000 0.54350  0.17080  0.63530  Biso   1.000  H
  H75      1.0000 0.55970  0.73760  0.35640  Biso   1.000  H
  H76      1.0000 0.44030  0.26240  0.64360  Biso   1.000  H
  H77      1.0000 0.43480  0.73360  0.32380  Biso   1.000  H
  H78      1.0000 0.56520  0.26640  0.67620  Biso   1.000  H
  C69      1.0000 0.86600  0.10900  0.27400  Biso   1.000  C
  C70      1.0000 0.13400  0.89100  0.72600  Biso   1.000  C
  C71      1.0000 0.90000  0.11900  0.16310  Biso   1.000  C
  C72      1.0000 0.10000  0.88100  0.83690  Biso   1.000  C
  C73      1.0000 0.79540  0.05870  0.14380  Biso   1.000  C
  C74      1.0000 0.20460  0.94130  0.85620  Biso   1.000  C
  C75      1.0000 0.83940  0.95160  0.17010  Biso   1.000  C
  C76      1.0000 0.16060  0.04840  0.82990  Biso   1.000  C
  F25      1.0000 0.60700  0.99750  0.87800  Biso   1.000  F
  F26      1.0000 0.39300  0.00250  0.12200  Biso   1.000  F
  F27      1.0000 0.69470  0.14680  0.80300  Biso   1.000  F
  F28      1.0000 0.30530  0.85320  0.19700  Biso   1.000  F
  F29      1.0000 0.80430  0.01410  0.86260  Biso   1.000  F
  F30      1.0000 0.19570  0.98590  0.13740  Biso   1.000  F
  F31      1.0000 0.61530  0.31770  0.23420  Biso   1.000  F
  F32      1.0000 0.38470  0.68230  0.76580  Biso   1.000  F
  F33      1.0000 0.60360  0.29620  0.09300  Biso   1.000  F
  F34      1.0000 0.39640  0.70380  0.90700  Biso   1.000  F
  F35      1.0000 0.47190  0.40450  0.17500  Biso   1.000  F
  F36      1.0000 0.52810  0.59550  0.82500  Biso   1.000  F
  H79      1.0000 0.90050  0.04240  0.30320  Biso   1.000  H
  H80      1.0000 0.09950  0.95760  0.69680  Biso   1.000  H
  H81      1.0000 0.76560  0.10690  0.30990  Biso   1.000  H
  H82      1.0000 0.23440  0.89310  0.69010  Biso   1.000  H
  H83      1.0000 0.99230  0.09110  0.13030  Biso   1.000  H
  H84      1.0000 0.00770  0.90890  0.86970  Biso   1.000  H
  H85      1.0000 0.90060  0.19280  0.12700  Biso   1.000  H
  H86      1.0000 0.09940  0.80720  0.87300  Biso   1.000  H
  H87      1.0000 0.70170  0.06940  0.19400  Biso   1.000  H
  H88      1.0000 0.29830  0.93060  0.80600  Biso   1.000  H
  H89      1.0000 0.80160  0.07900  0.06620  Biso   1.000  H
  H90      1.0000 0.19840  0.92100  0.93380  Biso   1.000  H
  H91      1.0000 0.77840  0.90500  0.16360  Biso   1.000  H
  H92      1.0000 0.22160  0.09500  0.83640  Biso   1.000  H
  H93      1.0000 0.83720  0.93510  0.24590  Biso   1.000  H
  H94      1.0000 0.16280  0.06490  0.75410  Biso   1.000  H
  H95      1.0000 0.93180  0.94320  0.11830  Biso   1.000  H
  H96      1.0000 0.06820  0.05680  0.88170  Biso   1.000  H
