data_image0
_cell_length_a       10.7045
_cell_length_b       13.1585
_cell_length_c       13.206
_cell_angle_alpha    77.44
_cell_angle_beta     68.295
_cell_angle_gamma    85.29

_symmetry_space_group_name_H-M    "P 1"
_symmetry_int_tables_number       1

loop_
  _symmetry_equiv_pos_as_xyz
  'x, y, z'

loop_
  _atom_site_label
  _atom_site_occupancy
  _atom_site_fract_x
  _atom_site_fract_y
  _atom_site_fract_z
  _atom_site_thermal_displace_type
  _atom_site_B_iso_or_equiv
  _atom_site_type_symbol
  Cu1      1.0000 0.00000  0.50000  0.00000  Biso   1.000  Cu
  O1       1.0000 0.88664  0.61723  0.96764  Biso   1.000  O
  O2       1.0000 0.11336  0.38277  0.03236  Biso   1.000  O
  C1       1.0000 0.71370  0.73920  0.98675  Biso   1.000  C
  C2       1.0000 0.28630  0.26080  0.01325  Biso   1.000  C
  F1       1.0000 0.76478  0.79757  0.03297  Biso   1.000  F
  F2       1.0000 0.23522  0.20243  0.96703  Biso   1.000  F
  F3       1.0000 0.58021  0.75101  0.02700  Biso   1.000  F
  F4       1.0000 0.41979  0.24899  0.97300  Biso   1.000  F
  F5       1.0000 0.75659  0.78017  0.87742  Biso   1.000  F
  F6       1.0000 0.24341  0.21983  0.12258  Biso   1.000  F
  C3       1.0000 0.76050  0.62573  0.00737  Biso   1.000  C
  C4       1.0000 0.23950  0.37427  0.99263  Biso   1.000  C
  C5       1.0000 0.66370  0.54956  0.06466  Biso   1.000  C
  C6       1.0000 0.33630  0.45044  0.93534  Biso   1.000  C
  H1       1.0000 0.57170  0.56940  0.08950  Biso   1.000  H
  H2       1.0000 0.42830  0.43060  0.91050  Biso   1.000  H
  C7       1.0000 0.69740  0.44341  0.08741  Biso   1.000  C
  C8       1.0000 0.30260  0.55659  0.91259  Biso   1.000  C
  C9       1.0000 0.58200  0.36550  0.15560  Biso   1.000  C
  C10      1.0000 0.41800  0.63450  0.84440  Biso   1.000  C
  F7       1.0000 0.47140  0.40540  0.21760  Biso   1.000  F
  F8       1.0000 0.52860  0.59460  0.78240  Biso   1.000  F
  F9       1.0000 0.61450  0.29770  0.23610  Biso   1.000  F
  F10      1.0000 0.38550  0.70230  0.76390  Biso   1.000  F
  F11      1.0000 0.56340  0.30760  0.09900  Biso   1.000  F
  F12      1.0000 0.43660  0.69240  0.90100  Biso   1.000  F
  O3       1.0000 0.80972  0.40289  0.05820  Biso   1.000  O
  O4       1.0000 0.19028  0.59711  0.94180  Biso   1.000  O
  Cu2      1.0000 0.00000  0.00000  0.50000  Biso   1.000  Cu
  O5       1.0000 0.84624  0.93856  0.49297  Biso   1.000  O
  O6       1.0000 0.15376  0.06144  0.50703  Biso   1.000  O
  C11      1.0000 0.63450  0.86820  0.54313  Biso   1.000  C
  C12      1.0000 0.36550  0.13180  0.45687  Biso   1.000  C
  F13      1.0000 0.63633  0.90832  0.44156  Biso   1.000  F
  F14      1.0000 0.36367  0.09168  0.55844  Biso   1.000  F
  F15      1.0000 0.50862  0.87307  0.61202  Biso   1.000  F
  F16      1.0000 0.49138  0.12693  0.38798  Biso   1.000  F
  F17      1.0000 0.66670  0.76861  0.54681  Biso   1.000  F
  F18      1.0000 0.33330  0.23139  0.45319  Biso   1.000  F
  C13      1.0000 0.73350  0.92496  0.57066  Biso   1.000  C
  C14      1.0000 0.26650  0.07504  0.42934  Biso   1.000  C
  C15      1.0000 0.69200  0.95241  0.67392  Biso   1.000  C
  C16      1.0000 0.30800  0.04759  0.32608  Biso   1.000  C
  H3       1.0000 0.60550  0.93170  0.72730  Biso   1.000  H
  H4       1.0000 0.39450  0.06830  0.27270  Biso   1.000  H
  C17      1.0000 0.77500  0.00989  0.70067  Biso   1.000  C
  C18      1.0000 0.22500  0.99011  0.29933  Biso   1.000  C
  C19      1.0000 0.72200  0.03816  0.81621  Biso   1.000  C
  C20      1.0000 0.27800  0.96184  0.18379  Biso   1.000  C
  F19      1.0000 0.61232  0.98557  0.88670  Biso   1.000  F
  F20      1.0000 0.38768  0.01443  0.11330  Biso   1.000  F
  F21      1.0000 0.69181  0.13935  0.80792  Biso   1.000  F
  F22      1.0000 0.30819  0.86065  0.19208  Biso   1.000  F
  F23      1.0000 0.81700  0.02480  0.85930  Biso   1.000  F
  F24      1.0000 0.18300  0.97520  0.14070  Biso   1.000  F
  O7       1.0000 0.89077  0.04519  0.64039  Biso   1.000  O
  O8       1.0000 0.10923  0.95481  0.35961  Biso   1.000  O
  O9       1.0000 0.08018  0.48566  0.84054  Biso   1.000  O
  O10      1.0000 0.91982  0.51434  0.15946  Biso   1.000  O
  N1       1.0000 0.00670  0.47539  0.78283  Biso   1.000  N
  N2       1.0000 0.99330  0.52461  0.21717  Biso   1.000  N
  C21      1.0000 0.98820  0.37183  0.75957  Biso   1.000  C
  C22      1.0000 0.01180  0.62817  0.24043  Biso   1.000  C
  C23      1.0000 0.95680  0.28555  0.86285  Biso   1.000  C
  C24      1.0000 0.04320  0.71445  0.13715  Biso   1.000  C
  H5       1.0000 0.03630  0.27170  0.88380  Biso   1.000  H
  H6       1.0000 0.96370  0.72830  0.11620  Biso   1.000  H
  H7       1.0000 0.88200  0.30710  0.92410  Biso   1.000  H
  H8       1.0000 0.11800  0.69290  0.07590  Biso   1.000  H
  H9       1.0000 0.93200  0.22220  0.84720  Biso   1.000  H
  H10      1.0000 0.06800  0.77780  0.15280  Biso   1.000  H
  C25      1.0000 0.12040  0.34881  0.67056  Biso   1.000  C
  C26      1.0000 0.87960  0.65119  0.32944  Biso   1.000  C
  H11      1.0000 0.13910  0.40430  0.60400  Biso   1.000  H
  H12      1.0000 0.86090  0.59570  0.39600  Biso   1.000  H
  H13      1.0000 0.19350  0.34530  0.69900  Biso   1.000  H
  H14      1.0000 0.80650  0.65470  0.30100  Biso   1.000  H
  H15      1.0000 0.11360  0.28210  0.65150  Biso   1.000  H
  H16      1.0000 0.88640  0.71790  0.34850  Biso   1.000  H
  C27      1.0000 0.87140  0.40016  0.71511  Biso   1.000  C
  C28      1.0000 0.12860  0.59984  0.28489  Biso   1.000  C
  C29      1.0000 0.87600  0.34678  0.62343  Biso   1.000  C
  C30      1.0000 0.12400  0.65322  0.37657  Biso   1.000  C
  H17      1.0000 0.79790  0.36800  0.60200  Biso   1.000  H
  H18      1.0000 0.20210  0.63200  0.39800  Biso   1.000  H
  H19      1.0000 0.95860  0.36660  0.55890  Biso   1.000  H
  H20      1.0000 0.04140  0.63340  0.44110  Biso   1.000  H
  H21      1.0000 0.87450  0.27110  0.64990  Biso   1.000  H
  H22      1.0000 0.12550  0.72890  0.35010  Biso   1.000  H
  C31      1.0000 0.73150  0.39158  0.80660  Biso   1.000  C
  C32      1.0000 0.26850  0.60842  0.19340  Biso   1.000  C
  H23      1.0000 0.66320  0.41090  0.77270  Biso   1.000  H
  H24      1.0000 0.33680  0.58910  0.22730  Biso   1.000  H
  H25      1.0000 0.71630  0.31980  0.84910  Biso   1.000  H
  H26      1.0000 0.28370  0.68020  0.15090  Biso   1.000  H
  H27      1.0000 0.72540  0.43860  0.85650  Biso   1.000  H
  H28      1.0000 0.27460  0.56140  0.14350  Biso   1.000  H
  N3       1.0000 0.89686  0.51517  0.66974  Biso   1.000  N
  N4       1.0000 0.10314  0.48483  0.33026  Biso   1.000  N
  O11      1.0000 0.84358  0.56767  0.60321  Biso   1.000  O
  O12      1.0000 0.15642  0.43233  0.39679  Biso   1.000  O
  C33      1.0000 0.96890  0.55483  0.71775  Biso   1.000  C
  C34      1.0000 0.03110  0.44517  0.28225  Biso   1.000  C
  C35      1.0000 0.00110  0.66315  0.69715  Biso   1.000  C
  C36      1.0000 0.99890  0.33685  0.30285  Biso   1.000  C
  C37      1.0000 0.96960  0.74685  0.62345  Biso   1.000  C
  C38      1.0000 0.03040  0.25315  0.37655  Biso   1.000  C
  H29      1.0000 0.92000  0.74020  0.57870  Biso   1.000  H
  H30      1.0000 0.08000  0.25980  0.42130  Biso   1.000  H
  N5       1.0000 0.01795  0.83563  0.62454  Biso   1.000  N
  N6       1.0000 0.98205  0.16437  0.37546  Biso   1.000  N
  N7       1.0000 0.07981  0.81087  0.70038  Biso   1.000  N
  N8       1.0000 0.92019  0.18913  0.29962  Biso   1.000  N
  C39      1.0000 0.14250  0.89168  0.72665  Biso   1.000  C
  C40      1.0000 0.85750  0.10832  0.27335  Biso   1.000  C
  H31      1.0000 0.24140  0.88770  0.68990  Biso   1.000  H
  H32      1.0000 0.75860  0.11230  0.31010  Biso   1.000  H
  H33      1.0000 0.11280  0.96090  0.69630  Biso   1.000  H
  H34      1.0000 0.88720  0.03910  0.30370  Biso   1.000  H
  C41      1.0000 0.10740  0.88090  0.85086  Biso   1.000  C
  C42      1.0000 0.89260  0.11910  0.14914  Biso   1.000  C
  H35      1.0000 0.00850  0.87620  0.88860  Biso   1.000  H
  H36      1.0000 0.99150  0.12380  0.11140  Biso   1.000  H
  H37      1.0000 0.14670  0.81530  0.87950  Biso   1.000  H
  H38      1.0000 0.85330  0.18470  0.12050  Biso   1.000  H
  C43      1.0000 0.15860  0.97190  0.87968  Biso   1.000  C
  C44      1.0000 0.84140  0.02810  0.12032  Biso   1.000  C
  H39      1.0000 0.11980  0.96620  0.96130  Biso   1.000  H
  H40      1.0000 0.88020  0.03380  0.03870  Biso   1.000  H
  H41      1.0000 0.12540  0.03770  0.84520  Biso   1.000  H
  H42      1.0000 0.87460  0.96230  0.15480  Biso   1.000  H
  C45      1.0000 0.30980  0.97765  0.84207  Biso   1.000  C
  C46      1.0000 0.69020  0.02235  0.15793  Biso   1.000  C
  H43      1.0000 0.33500  0.04260  0.85440  Biso   1.000  H
  H44      1.0000 0.66500  0.95740  0.14560  Biso   1.000  H
  H45      1.0000 0.34250  0.91830  0.88480  Biso   1.000  H
  H46      1.0000 0.65750  0.08170  0.11520  Biso   1.000  H
  H47      1.0000 0.35000  0.97580  0.76270  Biso   1.000  H
  H48      1.0000 0.65000  0.02420  0.23730  Biso   1.000  H
  C47      1.0000 0.07339  0.70870  0.74236  Biso   1.000  C
  C48      1.0000 0.92661  0.29130  0.25764  Biso   1.000  C
  H49      1.0000 0.11220  0.67350  0.79450  Biso   1.000  H
  H50      1.0000 0.88780  0.32650  0.20550  Biso   1.000  H
  C49      1.0000 0.46445  0.56055  0.44574  Biso   1.000  C
  C50      1.0000 0.53555  0.43945  0.55426  Biso   1.000  C
  C51      1.0000 0.38085  0.61515  0.52375  Biso   1.000  C
  C52      1.0000 0.61915  0.38485  0.47625  Biso   1.000  C
  H51      1.0000 0.32730  0.57670  0.59560  Biso   1.000  H
  H52      1.0000 0.67270  0.42330  0.40440  Biso   1.000  H
  C53      1.0000 0.37133  0.71598  0.50446  Biso   1.000  C
  C54      1.0000 0.62867  0.28402  0.49554  Biso   1.000  C
  H53      1.0000 0.32030  0.75130  0.56310  Biso   1.000  H
  H54      1.0000 0.67970  0.24870  0.43690  Biso   1.000  H
  C55      1.0000 0.43751  0.77221  0.39561  Biso   1.000  C
  C56      1.0000 0.56249  0.22779  0.60439  Biso   1.000  C
  H55      1.0000 0.42750  0.84620  0.37740  Biso   1.000  H
  H56      1.0000 0.57250  0.15380  0.62260  Biso   1.000  H
  C57      1.0000 0.51869  0.71743  0.31411  Biso   1.000  C
  C58      1.0000 0.48131  0.28257  0.68589  Biso   1.000  C
  H57      1.0000 0.56600  0.75280  0.23910  Biso   1.000  H
  H58      1.0000 0.43400  0.24720  0.76090  Biso   1.000  H
  C59      1.0000 0.52799  0.60745  0.34717  Biso   1.000  C
  C60      1.0000 0.47201  0.39255  0.65283  Biso   1.000  C
  H59      1.0000 0.58350  0.56830  0.29360  Biso   1.000  H
  H60      1.0000 0.41650  0.43170  0.70640  Biso   1.000  H
  C61      1.0000 0.46911  0.43984  0.48575  Biso   1.000  C
  C62      1.0000 0.53089  0.56016  0.51425  Biso   1.000  C
  H61      1.0000 0.40330  0.41830  0.55900  Biso   1.000  H
  H62      1.0000 0.59670  0.58170  0.44100  Biso   1.000  H
  H63      1.0000 0.45160  0.40490  0.43610  Biso   1.000  H
  H64      1.0000 0.54840  0.59510  0.56390  Biso   1.000  H
  C63      1.0000 0.60400  0.41609  0.48593  Biso   1.000  C
  C64      1.0000 0.39600  0.58391  0.51407  Biso   1.000  C
  H65      1.0000 0.66900  0.44310  0.41370  Biso   1.000  H
  H66      1.0000 0.33100  0.55690  0.58630  Biso   1.000  H
  H67      1.0000 0.61850  0.44860  0.53870  Biso   1.000  H
  H68      1.0000 0.38150  0.55140  0.46130  Biso   1.000  H
  C65      1.0000 0.62711  0.26638  0.52474  Biso   1.000  C
  C66      1.0000 0.37289  0.73362  0.47526  Biso   1.000  C
  H69      1.0000 0.60580  0.23010  0.47800  Biso   1.000  H
  H70      1.0000 0.39420  0.76990  0.52200  Biso   1.000  H
  H71      1.0000 0.71560  0.24770  0.52450  Biso   1.000  H
  H72      1.0000 0.28440  0.75230  0.47550  Biso   1.000  H
  C67      1.0000 0.52474  0.25146  0.63782  Biso   1.000  C
  C68      1.0000 0.47526  0.74854  0.36218  Biso   1.000  C
  H73      1.0000 0.52030  0.17930  0.67280  Biso   1.000  H
  H74      1.0000 0.47970  0.82070  0.32720  Biso   1.000  H
  H75      1.0000 0.43890  0.27390  0.63400  Biso   1.000  H
  H76      1.0000 0.56110  0.72610  0.36600  Biso   1.000  H
  H77      1.0000 0.54830  0.29150  0.68040  Biso   1.000  H
  H78      1.0000 0.45170  0.70850  0.31960  Biso   1.000  H
  F25      1.0000 0.81400  0.01540  0.86550  Biso   1.000  F
  F26      1.0000 0.18600  0.98460  0.13450  Biso   1.000  F
  F27      1.0000 0.57870  0.33420  0.25050  Biso   1.000  F
  F28      1.0000 0.42130  0.66580  0.74950  Biso   1.000  F
  F29      1.0000 0.46430  0.40370  0.15170  Biso   1.000  F
  F30      1.0000 0.53570  0.59630  0.84830  Biso   1.000  F
  F31      1.0000 0.59150  0.28570  0.10790  Biso   1.000  F
  F32      1.0000 0.40850  0.71430  0.89210  Biso   1.000  F
