data_image0
_cell_length_a       10.2641
_cell_length_b       13.099
_cell_length_c       13.959
_cell_angle_alpha    100.267
_cell_angle_beta     101.958
_cell_angle_gamma    103.382

_symmetry_space_group_name_H-M    "P 1"
_symmetry_int_tables_number       1

loop_
  _symmetry_equiv_pos_as_xyz
  'x, y, z'

loop_
  _atom_site_label
  _atom_site_occupancy
  _atom_site_fract_x
  _atom_site_fract_y
  _atom_site_fract_z
  _atom_site_thermal_displace_type
  _atom_site_B_iso_or_equiv
  _atom_site_type_symbol
  Cu1      1.0000 0.50000  0.50000  0.00000  Biso   1.000  Cu
  O1       1.0000 0.64620  0.64054  0.03109  Biso   1.000  O
  O2       1.0000 0.35380  0.35946  0.96891  Biso   1.000  O
  C1       1.0000 0.84360  0.77140  0.02800  Biso   1.000  C
  C2       1.0000 0.15640  0.22860  0.97200  Biso   1.000  C
  F1       1.0000 0.76930  0.83500  0.02330  Biso   1.000  F
  F2       1.0000 0.23070  0.16500  0.97670  Biso   1.000  F
  F3       1.0000 0.94900  0.78970  0.97350  Biso   1.000  F
  F4       1.0000 0.05100  0.21030  0.02650  Biso   1.000  F
  F5       1.0000 0.92100  0.80100  0.12290  Biso   1.000  F
  F6       1.0000 0.07900  0.19900  0.87710  Biso   1.000  F
  C3       1.0000 0.75480  0.65360  0.00090  Biso   1.000  C
  C4       1.0000 0.24520  0.34640  0.99910  Biso   1.000  C
  C5       1.0000 0.80280  0.57430  0.95060  Biso   1.000  C
  C6       1.0000 0.19720  0.42570  0.04940  Biso   1.000  C
  H1       1.0000 0.88420  0.59560  0.92840  Biso   1.000  H
  H2       1.0000 0.11580  0.40440  0.07160  Biso   1.000  H
  C7       1.0000 0.73590  0.46570  0.93200  Biso   1.000  C
  C8       1.0000 0.26410  0.53430  0.06800  Biso   1.000  C
  C9       1.0000 0.80000  0.38360  0.88150  Biso   1.000  C
  C10      1.0000 0.20000  0.61640  0.11850  Biso   1.000  C
  F7       1.0000 0.92600  0.43160  0.86620  Biso   1.000  F
  F8       1.0000 0.07400  0.56840  0.13380  Biso   1.000  F
  F9       1.0000 0.71200  0.32800  0.78400  Biso   1.000  F
  F10      1.0000 0.28800  0.67200  0.21600  Biso   1.000  F
  F11      1.0000 0.81500  0.31400  0.92520  Biso   1.000  F
  F12      1.0000 0.18500  0.68600  0.07480  Biso   1.000  F
  O3       1.0000 0.62600  0.42136  0.95298  Biso   1.000  O
  O4       1.0000 0.37400  0.57864  0.04702  Biso   1.000  O
  Cu2      1.0000 0.00000  0.00000  0.50000  Biso   1.000  Cu
  O5       1.0000 0.96780  0.93280  0.61320  Biso   1.000  O
  O6       1.0000 0.03220  0.06720  0.38680  Biso   1.000  O
  C11      1.0000 0.89580  0.90390  0.75750  Biso   1.000  C
  C12      1.0000 0.10420  0.09610  0.24250  Biso   1.000  C
  F13      1.0000 0.93400  0.82430  0.74390  Biso   1.000  F
  F14      1.0000 0.06600  0.17570  0.25610  Biso   1.000  F
  F15      1.0000 0.75950  0.86390  0.76250  Biso   1.000  F
  F16      1.0000 0.24050  0.13610  0.23750  Biso   1.000  F
  F17      1.0000 0.94100  0.97180  0.83400  Biso   1.000  F
  F18      1.0000 0.05900  0.02820  0.16600  Biso   1.000  F
  C13      1.0000 0.88780  0.95460  0.66510  Biso   1.000  C
  C14      1.0000 0.11220  0.04540  0.33490  Biso   1.000  C
  C15      1.0000 0.79650  0.01730  0.64970  Biso   1.000  C
  C16      1.0000 0.20350  0.98270  0.35030  Biso   1.000  C
  H3       1.0000 0.74170  0.02700  0.69590  Biso   1.000  H
  H4       1.0000 0.25830  0.97300  0.30410  Biso   1.000  H
  C17      1.0000 0.78260  0.06580  0.57000  Biso   1.000  C
  C18      1.0000 0.21740  0.93420  0.43000  Biso   1.000  C
  C19      1.0000 0.68090  0.13460  0.55760  Biso   1.000  C
  C20      1.0000 0.31910  0.86540  0.44240  Biso   1.000  C
  F19      1.0000 0.75030  0.23850  0.57760  Biso   1.000  F
  F20      1.0000 0.24970  0.76150  0.42240  Biso   1.000  F
  F21      1.0000 0.59890  0.12660  0.61990  Biso   1.000  F
  F22      1.0000 0.40110  0.87340  0.38010  Biso   1.000  F
  F23      1.0000 0.60150  0.10900  0.46500  Biso   1.000  F
  F24      1.0000 0.39850  0.89100  0.53500  Biso   1.000  F
  O7       1.0000 0.84670  0.06372  0.50214  Biso   1.000  O
  O8       1.0000 0.15330  0.93628  0.49786  Biso   1.000  O
  O9       1.0000 0.54520  0.48546  0.16349  Biso   1.000  O
  O10      1.0000 0.45480  0.51454  0.83651  Biso   1.000  O
  N1       1.0000 0.65250  0.46760  0.21880  Biso   1.000  N
  N2       1.0000 0.34750  0.53240  0.78120  Biso   1.000  N
  C21      1.0000 0.65450  0.35600  0.22980  Biso   1.000  C
  C22      1.0000 0.34550  0.64400  0.77020  Biso   1.000  C
  C23      1.0000 0.60390  0.27730  0.12730  Biso   1.000  C
  C24      1.0000 0.39610  0.72270  0.87270  Biso   1.000  C
  H5       1.0000 0.50510  0.26900  0.09970  Biso   1.000  H
  H6       1.0000 0.49490  0.73100  0.90030  Biso   1.000  H
  H7       1.0000 0.65630  0.30500  0.08180  Biso   1.000  H
  H8       1.0000 0.34370  0.69500  0.91820  Biso   1.000  H
  H9       1.0000 0.61740  0.20710  0.13420  Biso   1.000  H
  H10      1.0000 0.38260  0.79290  0.86580  Biso   1.000  H
  C25      1.0000 0.55590  0.32570  0.29460  Biso   1.000  C
  C26      1.0000 0.44410  0.67430  0.70540  Biso   1.000  C
  H11      1.0000 0.46020  0.31380  0.25590  Biso   1.000  H
  H12      1.0000 0.53980  0.68620  0.74410  Biso   1.000  H
  H13      1.0000 0.56620  0.25940  0.31470  Biso   1.000  H
  H14      1.0000 0.43380  0.74060  0.68530  Biso   1.000  H
  H15      1.0000 0.57800  0.38440  0.35490  Biso   1.000  H
  H16      1.0000 0.42200  0.61560  0.64510  Biso   1.000  H
  C27      1.0000 0.81010  0.37720  0.28330  Biso   1.000  C
  C28      1.0000 0.18990  0.62280  0.71670  Biso   1.000  C
  C29      1.0000 0.89970  0.36350  0.20940  Biso   1.000  C
  C30      1.0000 0.10030  0.63650  0.79060  Biso   1.000  C
  H17      1.0000 0.99640  0.37790  0.24710  Biso   1.000  H
  H18      1.0000 0.00360  0.62210  0.75290  Biso   1.000  H
  H19      1.0000 0.86670  0.28950  0.16750  Biso   1.000  H
  H20      1.0000 0.13330  0.71050  0.83250  Biso   1.000  H
  H21      1.0000 0.89320  0.41450  0.16620  Biso   1.000  H
  H22      1.0000 0.10680  0.58550  0.83380  Biso   1.000  H
  C31      1.0000 0.84150  0.31720  0.36520  Biso   1.000  C
  C32      1.0000 0.15850  0.68280  0.63480  Biso   1.000  C
  H23      1.0000 0.94200  0.33610  0.39370  Biso   1.000  H
  H24      1.0000 0.05800  0.66390  0.60630  Biso   1.000  H
  H25      1.0000 0.79700  0.33780  0.41850  Biso   1.000  H
  H26      1.0000 0.20300  0.66220  0.58150  Biso   1.000  H
  H27      1.0000 0.80570  0.23920  0.33620  Biso   1.000  H
  H28      1.0000 0.19430  0.76080  0.66380  Biso   1.000  H
  N3       1.0000 0.84980  0.49590  0.33030  Biso   1.000  N
  N4       1.0000 0.15020  0.50410  0.66970  Biso   1.000  N
  O11      1.0000 0.96450  0.54510  0.39420  Biso   1.000  O
  O12      1.0000 0.03550  0.45490  0.60580  Biso   1.000  O
  C33      1.0000 0.75810  0.54390  0.28470  Biso   1.000  C
  C34      1.0000 0.24190  0.45610  0.71530  Biso   1.000  C
  C35      1.0000 0.77470  0.65840  0.30530  Biso   1.000  C
  C36      1.0000 0.22530  0.34160  0.69470  Biso   1.000  C
  C37      1.0000 0.88160  0.74090  0.37700  Biso   1.000  C
  C38      1.0000 0.11840  0.25910  0.62300  Biso   1.000  C
  H29      1.0000 0.95860  0.72920  0.42020  Biso   1.000  H
  H30      1.0000 0.04140  0.27080  0.57980  Biso   1.000  H
  N5       1.0000 0.86070  0.83710  0.37630  Biso   1.000  N
  N6       1.0000 0.13930  0.16290  0.62370  Biso   1.000  N
  N7       1.0000 0.74060  0.81740  0.30380  Biso   1.000  N
  N8       1.0000 0.25940  0.18260  0.69620  Biso   1.000  N
  C39      1.0000 0.69320  0.90950  0.27930  Biso   1.000  C
  C40      1.0000 0.30680  0.09050  0.72070  Biso   1.000  C
  H31      1.0000 0.67660  0.95000  0.34040  Biso   1.000  H
  H32      1.0000 0.32340  0.05000  0.65960  Biso   1.000  H
  H33      1.0000 0.76850  0.95840  0.26130  Biso   1.000  H
  H34      1.0000 0.23150  0.04160  0.73870  Biso   1.000  H
  C41      1.0000 0.56580  0.88060  0.19600  Biso   1.000  C
  C42      1.0000 0.43420  0.11940  0.80400  Biso   1.000  C
  H35      1.0000 0.58130  0.84010  0.13440  Biso   1.000  H
  H36      1.0000 0.41870  0.15990  0.86560  Biso   1.000  H
  H37      1.0000 0.48910  0.83290  0.21380  Biso   1.000  H
  H38      1.0000 0.51090  0.16710  0.78620  Biso   1.000  H
  C43      1.0000 0.52430  0.97970  0.17460  Biso   1.000  C
  C44      1.0000 0.47570  0.02030  0.82540  Biso   1.000  C
  H39      1.0000 0.59980  0.02530  0.15390  Biso   1.000  H
  H40      1.0000 0.40020  0.97470  0.84610  Biso   1.000  H
  H41      1.0000 0.51500  0.02210  0.23780  Biso   1.000  H
  H42      1.0000 0.48500  0.97790  0.76220  Biso   1.000  H
  C45      1.0000 0.39180  0.95620  0.09460  Biso   1.000  C
  C46      1.0000 0.60820  0.04380  0.90540  Biso   1.000  C
  H43      1.0000 0.37270  0.02430  0.08550  Biso   1.000  H
  H44      1.0000 0.62730  0.97570  0.91450  Biso   1.000  H
  H45      1.0000 0.40040  0.91600  0.03100  Biso   1.000  H
  H46      1.0000 0.59960  0.08400  0.96900  Biso   1.000  H
  H47      1.0000 0.31550  0.91290  0.11500  Biso   1.000  H
  H48      1.0000 0.68450  0.08710  0.88500  Biso   1.000  H
  C47      1.0000 0.68570  0.71220  0.26060  Biso   1.000  C
  C48      1.0000 0.31430  0.28780  0.73940  Biso   1.000  C
  H49      1.0000 0.60190  0.68010  0.20910  Biso   1.000  H
  H50      1.0000 0.39810  0.31990  0.79090  Biso   1.000  H
  C49      1.0000 0.25380  0.47180  0.37410  Biso   1.000  C
  C50      1.0000 0.74620  0.52820  0.62590  Biso   1.000  C
  H51      1.0000 0.20640  0.40250  0.38150  Biso   1.000  H
  H52      1.0000 0.79360  0.59750  0.61850  Biso   1.000  H
  H53      1.0000 0.25790  0.46650  0.30540  Biso   1.000  H
  H54      1.0000 0.74210  0.53350  0.69460  Biso   1.000  H
  H55      1.0000 0.20480  0.52330  0.39220  Biso   1.000  H
  H56      1.0000 0.79520  0.47670  0.60780  Biso   1.000  H
  C51      1.0000 0.39750  0.50760  0.44140  Biso   1.000  C
  C52      1.0000 0.60250  0.49240  0.55860  Biso   1.000  C
  C53      1.0000 0.44710  0.44200  0.49940  Biso   1.000  C
  C54      1.0000 0.55290  0.55800  0.50060  Biso   1.000  C
  H57      1.0000 0.38730  0.37360  0.49900  Biso   1.000  H
  H58      1.0000 0.61270  0.62640  0.50100  Biso   1.000  H
  C55      1.0000 0.58340  0.47550  0.55810  Biso   1.000  C
  C56      1.0000 0.41660  0.52450  0.44190  Biso   1.000  C
  C57      1.0000 0.67000  0.57460  0.55880  Biso   1.000  C
  C58      1.0000 0.33000  0.42540  0.44120  Biso   1.000  C
  H59      1.0000 0.76410  0.59770  0.59930  Biso   1.000  H
  H60      1.0000 0.23590  0.40230  0.40070  Biso   1.000  H
  C59      1.0000 0.62030  0.64010  0.50080  Biso   1.000  C
  C60      1.0000 0.37970  0.35990  0.49920  Biso   1.000  C
  H61      1.0000 0.68010  0.70860  0.50130  Biso   1.000  H
  H62      1.0000 0.31990  0.29140  0.49870  Biso   1.000  H
  C61      1.0000 0.48410  0.60660  0.44210  Biso   1.000  C
  C62      1.0000 0.51590  0.39340  0.55790  Biso   1.000  C
  H63      1.0000 0.44970  0.65200  0.40210  Biso   1.000  H
  H64      1.0000 0.55030  0.34800  0.59790  Biso   1.000  H
  C63      1.0000 0.64780  0.43890  0.64450  Biso   1.000  C
  C64      1.0000 0.35220  0.56110  0.35550  Biso   1.000  C
  H65      1.0000 0.58990  0.37040  0.64570  Biso   1.000  H
  H66      1.0000 0.41010  0.62960  0.35430  Biso   1.000  H
  H67      1.0000 0.65900  0.49080  0.70570  Biso   1.000  H
  H68      1.0000 0.34100  0.50920  0.29430  Biso   1.000  H
  H69      1.0000 0.73700  0.43140  0.63880  Biso   1.000  H
  H70      1.0000 0.26300  0.56860  0.36120  Biso   1.000  H
  F25      1.0000 0.23100  0.16200  0.00480  Biso   1.000  F
  F26      1.0000 0.76900  0.83800  0.99520  Biso   1.000  F
  F27      1.0000 0.06600  0.21300  0.01500  Biso   1.000  F
  F28      1.0000 0.93400  0.78700  0.98500  Biso   1.000  F
  F29      1.0000 0.10500  0.19720  0.87440  Biso   1.000  F
  F30      1.0000 0.89500  0.80280  0.12560  Biso   1.000  F
  F31      1.0000 0.28250  0.68260  0.19270  Biso   1.000  F
  F32      1.0000 0.71750  0.31740  0.80730  Biso   1.000  F
  F33      1.0000 0.16300  0.67800  0.04770  Biso   1.000  F
  F34      1.0000 0.83700  0.32200  0.95230  Biso   1.000  F
  F35      1.0000 0.09300  0.57780  0.14650  Biso   1.000  F
  F36      1.0000 0.90700  0.42220  0.85350  Biso   1.000  F
  F37      1.0000 0.84990  0.80470  0.73910  Biso   1.000  F
  F38      1.0000 0.15010  0.19530  0.26090  Biso   1.000  F
  F39      1.0000 0.86380  0.95450  0.83260  Biso   1.000  F
  F40      1.0000 0.13620  0.04550  0.16740  Biso   1.000  F
  F41      1.0000 0.96330  0.08180  0.19210  Biso   1.000  F
  F42      1.0000 0.03670  0.91820  0.80790  Biso   1.000  F
