data_image0
_cell_length_a       10.476
_cell_length_b       13.25
_cell_length_c       13.789
_cell_angle_alpha    98.898
_cell_angle_beta     106.051
_cell_angle_gamma    101.884

_symmetry_space_group_name_H-M    "P 1"
_symmetry_int_tables_number       1

loop_
  _symmetry_equiv_pos_as_xyz
  'x, y, z'

loop_
  _atom_site_label
  _atom_site_occupancy
  _atom_site_fract_x
  _atom_site_fract_y
  _atom_site_fract_z
  _atom_site_thermal_displace_type
  _atom_site_B_iso_or_equiv
  _atom_site_type_symbol
  Cu1      1.0000 0.00000  0.00000  0.00000  Biso   1.000  Cu
  O1       1.0000 0.16560  0.13500  0.04130  Biso   1.000  O
  O2       1.0000 0.83440  0.86500  0.95870  Biso   1.000  O
  C1       1.0000 0.35320  0.26480  0.03360  Biso   1.000  C
  C2       1.0000 0.64680  0.73520  0.96640  Biso   1.000  C
  F1       1.0000 0.28100  0.33500  0.02000  Biso   1.000  F
  F2       1.0000 0.71900  0.66500  0.98000  Biso   1.000  F
  F3       1.0000 0.42640  0.29570  0.13670  Biso   1.000  F
  F4       1.0000 0.57360  0.70430  0.86330  Biso   1.000  F
  F5       1.0000 0.44100  0.27800  0.98200  Biso   1.000  F
  F6       1.0000 0.55900  0.72200  0.01800  Biso   1.000  F
  C3       1.0000 0.26650  0.14750  0.00620  Biso   1.000  C
  C4       1.0000 0.73350  0.85250  0.99380  Biso   1.000  C
  C5       1.0000 0.30790  0.07050  0.94950  Biso   1.000  C
  C6       1.0000 0.69210  0.92950  0.05050  Biso   1.000  C
  H1       1.0000 0.38390  0.09240  0.92580  Biso   1.000  H
  H2       1.0000 0.61610  0.90760  0.07420  Biso   1.000  H
  C7       1.0000 0.24060  0.96130  0.92610  Biso   1.000  C
  C8       1.0000 0.75940  0.03870  0.07390  Biso   1.000  C
  C9       1.0000 0.29050  0.88380  0.85910  Biso   1.000  C
  C10      1.0000 0.70950  0.11620  0.14090  Biso   1.000  C
  F7       1.0000 0.31890  0.80470  0.90610  Biso   1.000  F
  F8       1.0000 0.68110  0.19530  0.09390  Biso   1.000  F
  F9       1.0000 0.18900  0.83700  0.76870  Biso   1.000  F
  F10      1.0000 0.81100  0.16300  0.23130  Biso   1.000  F
  F11      1.0000 0.40410  0.92727  0.83830  Biso   1.000  F
  F12      1.0000 0.59590  0.07273  0.16170  Biso   1.000  F
  O3       1.0000 0.14210  0.91580  0.95399  Biso   1.000  O
  O4       1.0000 0.85790  0.08420  0.04601  Biso   1.000  O
  Cu2      1.0000 0.50000  0.50000  0.50000  Biso   1.000  Cu
  O5       1.0000 0.65470  0.43672  0.49910  Biso   1.000  O
  O6       1.0000 0.34530  0.56328  0.50090  Biso   1.000  O
  C11      1.0000 0.81500  0.36530  0.44180  Biso   1.000  C
  C12      1.0000 0.18500  0.63470  0.55820  Biso   1.000  C
  F13      1.0000 0.90720  0.39800  0.53738  Biso   1.000  F
  F14      1.0000 0.09280  0.60200  0.46262  Biso   1.000  F
  F15      1.0000 0.88600  0.36932  0.37351  Biso   1.000  F
  F16      1.0000 0.11400  0.63068  0.62649  Biso   1.000  F
  F17      1.0000 0.75400  0.26227  0.43013  Biso   1.000  F
  F18      1.0000 0.24600  0.73773  0.56987  Biso   1.000  F
  C13      1.0000 0.70760  0.43080  0.42610  Biso   1.000  C
  C14      1.0000 0.29240  0.56920  0.57390  Biso   1.000  C
  C15      1.0000 0.67730  0.47280  0.33770  Biso   1.000  C
  C16      1.0000 0.32270  0.52720  0.66230  Biso   1.000  C
  H3       1.0000 0.72220  0.45940  0.28780  Biso   1.000  H
  H4       1.0000 0.27780  0.54060  0.71220  Biso   1.000  H
  C17      1.0000 0.58110  0.53500  0.32070  Biso   1.000  C
  C18      1.0000 0.41890  0.46500  0.67930  Biso   1.000  C
  C19      1.0000 0.55810  0.57930  0.22140  Biso   1.000  C
  C20      1.0000 0.44190  0.42070  0.77860  Biso   1.000  C
  F19      1.0000 0.41390  0.56690  0.17410  Biso   1.000  F
  F20      1.0000 0.58610  0.43310  0.82590  Biso   1.000  F
  F21      1.0000 0.60830  0.53880  0.15470  Biso   1.000  F
  F22      1.0000 0.39170  0.46120  0.84530  Biso   1.000  F
  F23      1.0000 0.60390  0.68360  0.24260  Biso   1.000  F
  F24      1.0000 0.39610  0.31640  0.75740  Biso   1.000  F
  O7       1.0000 0.51220  0.56031  0.37730  Biso   1.000  O
  O8       1.0000 0.48780  0.43969  0.62270  Biso   1.000  O
  O9       1.0000 0.03840  0.98515  0.14894  Biso   1.000  O
  O10      1.0000 0.96160  0.01485  0.85106  Biso   1.000  O
  N1       1.0000 0.15310  0.96690  0.20485  Biso   1.000  N
  N2       1.0000 0.84690  0.03310  0.79515  Biso   1.000  N
  C21      1.0000 0.15760  0.85550  0.22020  Biso   1.000  C
  C22      1.0000 0.84240  0.14450  0.77980  Biso   1.000  C
  C23      1.0000 0.07060  0.83180  0.29170  Biso   1.000  C
  C24      1.0000 0.92940  0.16820  0.70830  Biso   1.000  C
  H5       1.0000 0.97300  0.82030  0.25320  Biso   1.000  H
  H6       1.0000 0.02700  0.17970  0.74680  Biso   1.000  H
  H7       1.0000 0.08470  0.76810  0.31620  Biso   1.000  H
  H8       1.0000 0.91530  0.23190  0.68380  Biso   1.000  H
  H9       1.0000 0.09860  0.89190  0.35110  Biso   1.000  H
  H10      1.0000 0.90140  0.10810  0.64890  Biso   1.000  H
  C25      1.0000 0.09730  0.77370  0.11620  Biso   1.000  C
  C26      1.0000 0.90270  0.22630  0.88380  Biso   1.000  C
  H11      1.0000 0.99820  0.76640  0.08830  Biso   1.000  H
  H12      1.0000 0.00180  0.23360  0.91170  Biso   1.000  H
  H13      1.0000 0.14240  0.79750  0.06720  Biso   1.000  H
  H14      1.0000 0.85760  0.20250  0.93280  Biso   1.000  H
  H15      1.0000 0.11280  0.70520  0.12670  Biso   1.000  H
  H16      1.0000 0.88720  0.29480  0.87330  Biso   1.000  H
  C27      1.0000 0.31820  0.87580  0.27450  Biso   1.000  C
  C28      1.0000 0.68180  0.12420  0.72550  Biso   1.000  C
  C29      1.0000 0.35810  0.81540  0.36040  Biso   1.000  C
  C30      1.0000 0.64190  0.18460  0.63960  Biso   1.000  C
  H17      1.0000 0.45850  0.83240  0.38940  Biso   1.000  H
  H18      1.0000 0.54150  0.16760  0.61060  Biso   1.000  H
  H19      1.0000 0.31960  0.83640  0.41530  Biso   1.000  H
  H20      1.0000 0.68040  0.16360  0.58470  Biso   1.000  H
  H21      1.0000 0.32140  0.73910  0.33130  Biso   1.000  H
  H22      1.0000 0.67860  0.26090  0.66870  Biso   1.000  H
  C31      1.0000 0.39800  0.86030  0.19660  Biso   1.000  C
  C32      1.0000 0.60200  0.13970  0.80340  Biso   1.000  C
  H23      1.0000 0.49620  0.87360  0.23450  Biso   1.000  H
  H24      1.0000 0.50380  0.12640  0.76550  Biso   1.000  H
  H25      1.0000 0.36310  0.78750  0.15490  Biso   1.000  H
  H26      1.0000 0.63690  0.21250  0.84510  Biso   1.000  H
  H27      1.0000 0.38540  0.90990  0.15110  Biso   1.000  H
  H28      1.0000 0.61460  0.09010  0.84890  Biso   1.000  H
  N3       1.0000 0.35730  0.99410  0.32130  Biso   1.000  N
  N4       1.0000 0.64270  0.00590  0.67870  Biso   1.000  N
  O11      1.0000 0.47550  0.04226  0.38923  Biso   1.000  O
  O12      1.0000 0.52450  0.95774  0.61077  Biso   1.000  O
  C33      1.0000 0.26090  0.04250  0.27380  Biso   1.000  C
  C34      1.0000 0.73910  0.95750  0.72620  Biso   1.000  C
  C35      1.0000 0.27280  0.15590  0.29810  Biso   1.000  C
  C36      1.0000 0.72720  0.84410  0.70190  Biso   1.000  C
  C37      1.0000 0.38460  0.23710  0.37160  Biso   1.000  C
  C38      1.0000 0.61540  0.76290  0.62840  Biso   1.000  C
  H29      1.0000 0.46680  0.22560  0.41320  Biso   1.000  H
  H30      1.0000 0.53320  0.77440  0.58680  Biso   1.000  H
  N5       1.0000 0.22780  0.31260  0.30140  Biso   1.000  N
  N6       1.0000 0.77220  0.68740  0.69860  Biso   1.000  N
  C39      1.0000 0.16610  0.40290  0.28460  Biso   1.000  C
  C40      1.0000 0.83390  0.59710  0.71540  Biso   1.000  C
  H31      1.0000 0.13280  0.42350  0.34340  Biso   1.000  H
  H32      1.0000 0.86720  0.57650  0.65660  Biso   1.000  H
  H33      1.0000 0.23900  0.46400  0.28510  Biso   1.000  H
  H34      1.0000 0.76100  0.53600  0.71490  Biso   1.000  H
  C41      1.0000 0.04790  0.37990  0.18460  Biso   1.000  C
  C42      1.0000 0.95210  0.62010  0.81540  Biso   1.000  C
  H35      1.0000 0.08010  0.35950  0.12520  Biso   1.000  H
  H36      1.0000 0.91990  0.64050  0.87480  Biso   1.000  H
  H37      1.0000 0.97350  0.31970  0.18380  Biso   1.000  H
  H38      1.0000 0.02650  0.68030  0.81620  Biso   1.000  H
  C43      1.0000 0.99130  0.47730  0.17340  Biso   1.000  C
  C44      1.0000 0.00870  0.52270  0.82660  Biso   1.000  C
  H39      1.0000 0.06540  0.53570  0.17070  Biso   1.000  H
  H40      1.0000 0.93460  0.46430  0.82930  Biso   1.000  H
  H41      1.0000 0.96650  0.50030  0.23590  Biso   1.000  H
  H42      1.0000 0.03350  0.49970  0.76410  Biso   1.000  H
  C45      1.0000 0.86620  0.45980  0.07840  Biso   1.000  C
  C46      1.0000 0.13380  0.54020  0.92160  Biso   1.000  C
  H43      1.0000 0.83710  0.52540  0.07720  Biso   1.000  H
  H44      1.0000 0.16290  0.47460  0.92280  Biso   1.000  H
  H45      1.0000 0.89010  0.43900  0.01560  Biso   1.000  H
  H46      1.0000 0.10990  0.56100  0.98440  Biso   1.000  H
  H47      1.0000 0.79100  0.40360  0.08100  Biso   1.000  H
  H48      1.0000 0.20900  0.59640  0.91900  Biso   1.000  H
  C47      1.0000 0.17430  0.20860  0.25560  Biso   1.000  C
  C48      1.0000 0.82570  0.79140  0.74440  Biso   1.000  C
  H49      1.0000 0.08700  0.17700  0.20450  Biso   1.000  H
  H50      1.0000 0.91300  0.82300  0.79550  Biso   1.000  H
  N7       1.0000 0.35730  0.33260  0.37390  Biso   1.000  N
  N8       1.0000 0.64270  0.66740  0.62610  Biso   1.000  N
  C49      1.0000 0.12440  0.22620  0.50150  Biso   1.000  C
  C50      1.0000 0.87560  0.77380  0.49850  Biso   1.000  C
  H51      1.0000 0.04460  0.24020  0.45730  Biso   1.000  H
  H52      1.0000 0.95540  0.75980  0.54270  Biso   1.000  H
  H53      1.0000 0.19810  0.23890  0.47260  Biso   1.000  H
  H54      1.0000 0.80190  0.76110  0.52740  Biso   1.000  H
  H55      1.0000 0.15180  0.27200  0.56900  Biso   1.000  H
  H56      1.0000 0.84820  0.72800  0.43100  Biso   1.000  H
  C51      1.0000 0.09230  0.11730  0.51000  Biso   1.000  C
  C52      1.0000 0.90770  0.88270  0.49000  Biso   1.000  C
  C53      1.0000 0.95660  0.05710  0.46610  Biso   1.000  C
  C54      1.0000 0.04340  0.94290  0.53390  Biso   1.000  C
  H57      1.0000 0.88900  0.08560  0.42490  Biso   1.000  H
  H58      1.0000 0.11100  0.91440  0.57510  Biso   1.000  H
  C55      1.0000 0.91890  0.95560  0.48200  Biso   1.000  C
  C56      1.0000 0.08110  0.04440  0.51800  Biso   1.000  C
  C57      1.0000 0.01680  0.91440  0.54170  Biso   1.000  C
  C58      1.0000 0.98320  0.08560  0.45830  Biso   1.000  C
  H59      1.0000 0.99070  0.84430  0.55270  Biso   1.000  H
  H60      1.0000 0.00930  0.15570  0.44730  Biso   1.000  H
  C59      1.0000 0.15250  0.97460  0.58560  Biso   1.000  C
  C60      1.0000 0.84750  0.02540  0.41440  Biso   1.000  C
  H61      1.0000 0.22010  0.94620  0.62680  Biso   1.000  H
  H62      1.0000 0.77990  0.05380  0.37320  Biso   1.000  H
  C61      1.0000 0.19030  0.07610  0.56970  Biso   1.000  C
  C62      1.0000 0.80970  0.92390  0.43030  Biso   1.000  C
  H63      1.0000 0.28400  0.11770  0.60000  Biso   1.000  H
  H64      1.0000 0.71600  0.88230  0.40000  Biso   1.000  H
  C63      1.0000 0.76280  0.88330  0.43260  Biso   1.000  C
  C64      1.0000 0.23720  0.11670  0.56740  Biso   1.000  C
  H65      1.0000 0.70680  0.92140  0.39360  Biso   1.000  H
  H66      1.0000 0.29320  0.07860  0.60640  Biso   1.000  H
  H67      1.0000 0.72790  0.86580  0.48710  Biso   1.000  H
  H68      1.0000 0.27210  0.13420  0.51290  Biso   1.000  H
  H69      1.0000 0.76060  0.81940  0.38770  Biso   1.000  H
  H70      1.0000 0.23940  0.18060  0.61230  Biso   1.000  H
  F25      1.0000 0.42110  0.47740  0.85760  Biso   1.000  F
  F26      1.0000 0.57890  0.52260  0.14240  Biso   1.000  F
  F27      1.0000 0.43900  0.58610  0.18530  Biso   1.000  F
  F28      1.0000 0.56100  0.41390  0.81470  Biso   1.000  F
  F29      1.0000 0.35500  0.32700  0.75510  Biso   1.000  F
  F30      1.0000 0.64500  0.67300  0.24490  Biso   1.000  F
  F31      1.0000 0.73300  0.67850  0.00800  Biso   1.000  F
  F32      1.0000 0.26700  0.32150  0.99200  Biso   1.000  F
  F33      1.0000 0.59800  0.70170  0.86500  Biso   1.000  F
  F34      1.0000 0.40200  0.29830  0.13500  Biso   1.000  F
  F35      1.0000 0.53800  0.71600  0.00300  Biso   1.000  F
  F36      1.0000 0.46200  0.28400  0.99700  Biso   1.000  F
