data_image0
_cell_length_a       10.334
_cell_length_b       13.136
_cell_length_c       14.061
_cell_angle_alpha    100.57
_cell_angle_beta     102.18
_cell_angle_gamma    103.72

_symmetry_space_group_name_H-M    "P 1"
_symmetry_int_tables_number       1

loop_
  _symmetry_equiv_pos_as_xyz
  'x, y, z'

loop_
  _atom_site_label
  _atom_site_occupancy
  _atom_site_fract_x
  _atom_site_fract_y
  _atom_site_fract_z
  _atom_site_thermal_displace_type
  _atom_site_B_iso_or_equiv
  _atom_site_type_symbol
  Cu1      1.0000 0.50000  0.50000  0.00000  Biso   1.000  Cu
  O1       1.0000 0.64430  0.63976  0.02967  Biso   1.000  O
  O2       1.0000 0.35570  0.36024  0.97033  Biso   1.000  O
  C1       1.0000 0.83880  0.76990  0.02680  Biso   1.000  C
  C2       1.0000 0.16120  0.23010  0.97320  Biso   1.000  C
  F1       1.0000 0.76810  0.83450  0.01890  Biso   1.000  F
  F2       1.0000 0.23190  0.16550  0.98110  Biso   1.000  F
  F3       1.0000 0.92900  0.79300  0.97000  Biso   1.000  F
  F4       1.0000 0.07100  0.20700  0.03000  Biso   1.000  F
  F5       1.0000 0.91900  0.79990  0.11700  Biso   1.000  F
  F6       1.0000 0.08100  0.20010  0.88300  Biso   1.000  F
  C3       1.0000 0.75200  0.65230  0.00020  Biso   1.000  C
  C4       1.0000 0.24800  0.34770  0.99980  Biso   1.000  C
  C5       1.0000 0.79880  0.57350  0.95170  Biso   1.000  C
  C6       1.0000 0.20120  0.42650  0.04830  Biso   1.000  C
  H1       1.0000 0.87950  0.59460  0.93080  Biso   1.000  H
  H2       1.0000 0.12050  0.40540  0.06920  Biso   1.000  H
  C7       1.0000 0.73230  0.46460  0.93250  Biso   1.000  C
  C8       1.0000 0.26770  0.53540  0.06750  Biso   1.000  C
  C9       1.0000 0.79650  0.38330  0.88440  Biso   1.000  C
  C10      1.0000 0.20350  0.61670  0.11560  Biso   1.000  C
  F7       1.0000 0.92600  0.43200  0.86420  Biso   1.000  F
  F8       1.0000 0.07400  0.56800  0.13580  Biso   1.000  F
  F9       1.0000 0.70700  0.33640  0.79400  Biso   1.000  F
  F10      1.0000 0.29300  0.66360  0.20600  Biso   1.000  F
  F11      1.0000 0.81000  0.31000  0.92900  Biso   1.000  F
  F12      1.0000 0.19000  0.69000  0.07100  Biso   1.000  F
  O3       1.0000 0.62310  0.42138  0.95234  Biso   1.000  O
  O4       1.0000 0.37690  0.57862  0.04766  Biso   1.000  O
  Cu2      1.0000 0.00000  0.00000  0.50000  Biso   1.000  Cu
  O5       1.0000 0.96780  0.93302  0.61220  Biso   1.000  O
  O6       1.0000 0.03220  0.06698  0.38780  Biso   1.000  O
  C11      1.0000 0.89360  0.90300  0.75330  Biso   1.000  C
  C12      1.0000 0.10640  0.09700  0.24670  Biso   1.000  C
  F13      1.0000 0.93900  0.82700  0.74200  Biso   1.000  F
  F14      1.0000 0.06100  0.17300  0.25800  Biso   1.000  F
  F15      1.0000 0.75920  0.85700  0.75490  Biso   1.000  F
  F16      1.0000 0.24080  0.14300  0.24510  Biso   1.000  F
  F17      1.0000 0.93600  0.97460  0.83140  Biso   1.000  F
  F18      1.0000 0.06400  0.02540  0.16860  Biso   1.000  F
  C13      1.0000 0.88850  0.95460  0.66320  Biso   1.000  C
  C14      1.0000 0.11150  0.04540  0.33680  Biso   1.000  C
  C15      1.0000 0.79840  0.01690  0.64740  Biso   1.000  C
  C16      1.0000 0.20160  0.98310  0.35260  Biso   1.000  C
  H3       1.0000 0.74360  0.02560  0.69220  Biso   1.000  H
  H4       1.0000 0.25640  0.97440  0.30780  Biso   1.000  H
  C17      1.0000 0.78590  0.06600  0.57010  Biso   1.000  C
  C18      1.0000 0.21410  0.93400  0.42990  Biso   1.000  C
  C19      1.0000 0.68650  0.13420  0.55830  Biso   1.000  C
  C20      1.0000 0.31350  0.86580  0.44170  Biso   1.000  C
  F19      1.0000 0.75500  0.23720  0.57980  Biso   1.000  F
  F20      1.0000 0.24500  0.76280  0.42020  Biso   1.000  F
  F21      1.0000 0.60450  0.12640  0.61850  Biso   1.000  F
  F22      1.0000 0.39550  0.87360  0.38150  Biso   1.000  F
  F23      1.0000 0.60840  0.11140  0.46660  Biso   1.000  F
  F24      1.0000 0.39160  0.88860  0.53340  Biso   1.000  F
  O7       1.0000 0.84950  0.06423  0.50340  Biso   1.000  O
  O8       1.0000 0.15050  0.93577  0.49660  Biso   1.000  O
  O9       1.0000 0.54890  0.48598  0.16400  Biso   1.000  O
  O10      1.0000 0.45110  0.51402  0.83600  Biso   1.000  O
  N1       1.0000 0.65460  0.46940  0.21940  Biso   1.000  N
  N2       1.0000 0.34540  0.53060  0.78060  Biso   1.000  N
  C21      1.0000 0.65770  0.35890  0.23050  Biso   1.000  C
  C22      1.0000 0.34230  0.64110  0.76950  Biso   1.000  C
  C23      1.0000 0.60900  0.28010  0.12750  Biso   1.000  C
  C24      1.0000 0.39100  0.71990  0.87250  Biso   1.000  C
  H5       1.0000 0.51180  0.27120  0.09890  Biso   1.000  H
  H6       1.0000 0.48820  0.72880  0.90110  Biso   1.000  H
  H7       1.0000 0.66210  0.30810  0.08400  Biso   1.000  H
  H8       1.0000 0.33790  0.69190  0.91600  Biso   1.000  H
  H9       1.0000 0.62190  0.21070  0.13410  Biso   1.000  H
  H10      1.0000 0.37810  0.78930  0.86590  Biso   1.000  H
  C25      1.0000 0.55730  0.32680  0.29260  Biso   1.000  C
  C26      1.0000 0.44270  0.67320  0.70740  Biso   1.000  C
  H11      1.0000 0.46340  0.31440  0.25300  Biso   1.000  H
  H12      1.0000 0.53660  0.68560  0.74700  Biso   1.000  H
  H13      1.0000 0.56690  0.26120  0.31190  Biso   1.000  H
  H14      1.0000 0.43310  0.73880  0.68810  Biso   1.000  H
  H15      1.0000 0.57760  0.38450  0.35240  Biso   1.000  H
  H16      1.0000 0.42240  0.61550  0.64760  Biso   1.000  H
  C27      1.0000 0.80850  0.38040  0.28470  Biso   1.000  C
  C28      1.0000 0.19150  0.61960  0.71530  Biso   1.000  C
  C29      1.0000 0.90070  0.36910  0.21230  Biso   1.000  C
  C30      1.0000 0.09930  0.63090  0.78770  Biso   1.000  C
  H17      1.0000 0.99570  0.38380  0.25070  Biso   1.000  H
  H18      1.0000 0.00430  0.61620  0.74930  Biso   1.000  H
  H19      1.0000 0.86920  0.29610  0.16980  Biso   1.000  H
  H20      1.0000 0.13080  0.70390  0.83020  Biso   1.000  H
  H21      1.0000 0.89520  0.42020  0.17080  Biso   1.000  H
  H22      1.0000 0.10480  0.57980  0.82920  Biso   1.000  H
  C31      1.0000 0.84100  0.32060  0.36570  Biso   1.000  C
  C32      1.0000 0.15900  0.67940  0.63430  Biso   1.000  C
  H23      1.0000 0.78300  0.32840  0.41100  Biso   1.000  H
  H24      1.0000 0.21700  0.67160  0.58900  Biso   1.000  H
  H25      1.0000 0.82350  0.24460  0.33480  Biso   1.000  H
  H26      1.0000 0.17650  0.75540  0.66520  Biso   1.000  H
  H27      1.0000 0.93740  0.35080  0.40310  Biso   1.000  H
  H28      1.0000 0.06260  0.64920  0.59690  Biso   1.000  H
  N3       1.0000 0.84740  0.49880  0.33080  Biso   1.000  N
  N4       1.0000 0.15260  0.50120  0.66920  Biso   1.000  N
  O11      1.0000 0.96190  0.54880  0.39580  Biso   1.000  O
  O12      1.0000 0.03810  0.45120  0.60420  Biso   1.000  O
  C33      1.0000 0.75770  0.54510  0.28540  Biso   1.000  C
  C34      1.0000 0.24230  0.45490  0.71460  Biso   1.000  C
  C35      1.0000 0.77440  0.66030  0.30710  Biso   1.000  C
  C36      1.0000 0.22560  0.33970  0.69290  Biso   1.000  C
  C37      1.0000 0.87930  0.74180  0.37860  Biso   1.000  C
  C38      1.0000 0.12070  0.25820  0.62140  Biso   1.000  C
  H29      1.0000 0.95520  0.73050  0.42110  Biso   1.000  H
  H30      1.0000 0.04480  0.26950  0.57890  Biso   1.000  H
  N5       1.0000 0.85810  0.83800  0.37890  Biso   1.000  N
  N6       1.0000 0.14190  0.16200  0.62110  Biso   1.000  N
  N7       1.0000 0.74040  0.81800  0.30530  Biso   1.000  N
  N8       1.0000 0.25960  0.18200  0.69470  Biso   1.000  N
  C39      1.0000 0.69450  0.90960  0.28130  Biso   1.000  C
  C40      1.0000 0.30550  0.09040  0.71870  Biso   1.000  C
  H31      1.0000 0.76980  0.95850  0.26510  Biso   1.000  H
  H32      1.0000 0.23020  0.04150  0.73490  Biso   1.000  H
  H33      1.0000 0.67740  0.94930  0.34130  Biso   1.000  H
  H34      1.0000 0.32260  0.05070  0.65870  Biso   1.000  H
  C41      1.0000 0.57130  0.88220  0.19890  Biso   1.000  C
  C42      1.0000 0.42870  0.11780  0.80110  Biso   1.000  C
  H35      1.0000 0.58750  0.84220  0.13860  Biso   1.000  H
  H36      1.0000 0.41250  0.15780  0.86140  Biso   1.000  H
  H37      1.0000 0.49500  0.83430  0.21500  Biso   1.000  H
  H38      1.0000 0.50500  0.16570  0.78500  Biso   1.000  H
  C43      1.0000 0.52870  0.98080  0.17620  Biso   1.000  C
  C44      1.0000 0.47130  0.01920  0.82380  Biso   1.000  C
  H39      1.0000 0.60230  0.02500  0.15460  Biso   1.000  H
  H40      1.0000 0.39770  0.97500  0.84540  Biso   1.000  H
  H41      1.0000 0.52210  0.02420  0.23860  Biso   1.000  H
  H42      1.0000 0.47790  0.97580  0.76140  Biso   1.000  H
  C45      1.0000 0.39850  0.95750  0.10000  Biso   1.000  C
  C46      1.0000 0.60150  0.04250  0.90000  Biso   1.000  C
  H43      1.0000 0.38060  0.02480  0.09100  Biso   1.000  H
  H44      1.0000 0.61940  0.97520  0.90900  Biso   1.000  H
  H45      1.0000 0.40440  0.91650  0.03700  Biso   1.000  H
  H46      1.0000 0.59560  0.08350  0.96300  Biso   1.000  H
  H47      1.0000 0.32400  0.91560  0.12120  Biso   1.000  H
  H48      1.0000 0.67600  0.08440  0.87880  Biso   1.000  H
  C47      1.0000 0.68730  0.71220  0.26170  Biso   1.000  C
  C48      1.0000 0.31270  0.28780  0.73830  Biso   1.000  C
  H49      1.0000 0.60570  0.67950  0.20960  Biso   1.000  H
  H50      1.0000 0.39430  0.32050  0.79040  Biso   1.000  H
  C49      1.0000 0.25270  0.47440  0.37410  Biso   1.000  C
  C50      1.0000 0.74730  0.52560  0.62590  Biso   1.000  C
  H51      1.0000 0.20420  0.40520  0.38080  Biso   1.000  H
  H52      1.0000 0.79580  0.59480  0.61920  Biso   1.000  H
  H53      1.0000 0.25670  0.46900  0.30580  Biso   1.000  H
  H54      1.0000 0.74330  0.53100  0.69420  Biso   1.000  H
  H55      1.0000 0.20520  0.52640  0.39240  Biso   1.000  H
  H56      1.0000 0.79480  0.47360  0.60760  Biso   1.000  H
  C51      1.0000 0.39710  0.50970  0.44200  Biso   1.000  C
  C52      1.0000 0.60290  0.49030  0.55800  Biso   1.000  C
  C53      1.0000 0.44580  0.44520  0.49900  Biso   1.000  C
  C54      1.0000 0.55420  0.55480  0.50100  Biso   1.000  C
  H57      1.0000 0.38590  0.37690  0.49840  Biso   1.000  H
  H58      1.0000 0.61410  0.62310  0.50160  Biso   1.000  H
  C55      1.0000 0.58130  0.47920  0.55700  Biso   1.000  C
  C56      1.0000 0.41870  0.52080  0.44300  Biso   1.000  C
  C57      1.0000 0.66820  0.57760  0.55810  Biso   1.000  C
  C58      1.0000 0.33180  0.42240  0.44190  Biso   1.000  C
  H59      1.0000 0.76210  0.60090  0.59850  Biso   1.000  H
  H60      1.0000 0.23790  0.39910  0.40150  Biso   1.000  H
  C59      1.0000 0.61940  0.64210  0.50120  Biso   1.000  C
  C60      1.0000 0.38060  0.35790  0.49880  Biso   1.000  C
  H61      1.0000 0.67930  0.71050  0.50170  Biso   1.000  H
  H62      1.0000 0.32070  0.28950  0.49830  Biso   1.000  H
  C61      1.0000 0.48390  0.60820  0.44310  Biso   1.000  C
  C62      1.0000 0.51610  0.39180  0.55690  Biso   1.000  C
  H63      1.0000 0.44990  0.65320  0.40340  Biso   1.000  H
  H64      1.0000 0.55010  0.34680  0.59660  Biso   1.000  H
  C63      1.0000 0.64060  0.42950  0.63470  Biso   1.000  C
  C64      1.0000 0.35940  0.57050  0.36530  Biso   1.000  C
  H65      1.0000 0.73650  0.46810  0.66390  Biso   1.000  H
  H66      1.0000 0.26350  0.53190  0.33610  Biso   1.000  H
  H67      1.0000 0.63190  0.35550  0.60500  Biso   1.000  H
  H68      1.0000 0.36810  0.64450  0.39500  Biso   1.000  H
  H69      1.0000 0.59210  0.43240  0.68580  Biso   1.000  H
  H70      1.0000 0.40790  0.56760  0.31420  Biso   1.000  H
  F25      1.0000 0.23800  0.16960  0.01460  Biso   1.000  F
  F26      1.0000 0.76200  0.83040  0.98540  Biso   1.000  F
  F27      1.0000 0.05700  0.21960  0.00900  Biso   1.000  F
  F28      1.0000 0.94300  0.78040  0.99100  Biso   1.000  F
  F29      1.0000 0.11700  0.19560  0.87550  Biso   1.000  F
  F30      1.0000 0.88300  0.80440  0.12450  Biso   1.000  F
  F31      1.0000 0.28300  0.69420  0.19300  Biso   1.000  F
  F32      1.0000 0.71700  0.30580  0.80700  Biso   1.000  F
  F33      1.0000 0.16400  0.67000  0.04800  Biso   1.000  F
  F34      1.0000 0.83600  0.33000  0.95200  Biso   1.000  F
  F35      1.0000 0.10800  0.58100  0.14030  Biso   1.000  F
  F36      1.0000 0.89200  0.41900  0.85970  Biso   1.000  F
  F37      1.0000 0.85100  0.80350  0.73410  Biso   1.000  F
  F38      1.0000 0.14900  0.19650  0.26590  Biso   1.000  F
  F39      1.0000 0.85600  0.94670  0.82590  Biso   1.000  F
  F40      1.0000 0.14400  0.05330  0.17410  Biso   1.000  F
  F41      1.0000 0.96580  0.08100  0.19470  Biso   1.000  F
  F42      1.0000 0.03420  0.91900  0.80530  Biso   1.000  F
