data_image0
_cell_length_a       10.206
_cell_length_b       12.974
_cell_length_c       13.473
_cell_angle_alpha    98.938
_cell_angle_beta     105.919
_cell_angle_gamma    101.882

_symmetry_space_group_name_H-M    "P 1"
_symmetry_int_tables_number       1

loop_
  _symmetry_equiv_pos_as_xyz
  'x, y, z'

loop_
  _atom_site_label
  _atom_site_occupancy
  _atom_site_fract_x
  _atom_site_fract_y
  _atom_site_fract_z
  _atom_site_thermal_displace_type
  _atom_site_B_iso_or_equiv
  _atom_site_type_symbol
  Cu1      1.0000 0.00000  0.00000  0.00000  Biso   1.000  Cu
  O1       1.0000 0.83290  0.86490  0.95794  Biso   1.000  O
  O2       1.0000 0.16710  0.13510  0.04206  Biso   1.000  O
  C1       1.0000 0.64430  0.73490  0.96610  Biso   1.000  C
  C2       1.0000 0.35570  0.26510  0.03390  Biso   1.000  C
  F1       1.0000 0.72100  0.66100  0.99190  Biso   1.000  F
  F2       1.0000 0.27900  0.33900  0.00810  Biso   1.000  F
  F3       1.0000 0.59200  0.70420  0.86700  Biso   1.000  F
  F4       1.0000 0.40800  0.29580  0.13300  Biso   1.000  F
  F5       1.0000 0.52870  0.71600  0.00700  Biso   1.000  F
  F6       1.0000 0.47130  0.28400  0.99300  Biso   1.000  F
  C3       1.0000 0.73180  0.85290  0.99350  Biso   1.000  C
  C4       1.0000 0.26820  0.14710  0.00650  Biso   1.000  C
  C5       1.0000 0.68990  0.92970  0.05080  Biso   1.000  C
  C6       1.0000 0.31010  0.07030  0.94920  Biso   1.000  C
  H1       1.0000 0.62300  0.91100  0.07400  Biso   1.000  H
  H2       1.0000 0.37700  0.08900  0.92600  Biso   1.000  H
  C7       1.0000 0.75770  0.03930  0.07390  Biso   1.000  C
  C8       1.0000 0.24230  0.96070  0.92610  Biso   1.000  C
  C9       1.0000 0.70830  0.11640  0.14270  Biso   1.000  C
  C10      1.0000 0.29170  0.88360  0.85730  Biso   1.000  C
  F7       1.0000 0.68070  0.19640  0.09670  Biso   1.000  F
  F8       1.0000 0.31930  0.80360  0.90330  Biso   1.000  F
  F9       1.0000 0.81130  0.16200  0.23340  Biso   1.000  F
  F10      1.0000 0.18870  0.83800  0.76660  Biso   1.000  F
  F11      1.0000 0.59450  0.07266  0.16410  Biso   1.000  F
  F12      1.0000 0.40550  0.92734  0.83590  Biso   1.000  F
  O3       1.0000 0.85640  0.08450  0.04602  Biso   1.000  O
  O4       1.0000 0.14360  0.91550  0.95398  Biso   1.000  O
  Cu2      1.0000 0.50000  0.50000  0.50000  Biso   1.000  Cu
  O5       1.0000 0.34330  0.56204  0.50084  Biso   1.000  O
  O6       1.0000 0.65670  0.43796  0.49916  Biso   1.000  O
  C11      1.0000 0.18280  0.63460  0.55880  Biso   1.000  C
  C12      1.0000 0.81720  0.36540  0.44120  Biso   1.000  C
  F13      1.0000 0.08910  0.60020  0.46342  Biso   1.000  F
  F14      1.0000 0.91090  0.39980  0.53658  Biso   1.000  F
  F15      1.0000 0.11310  0.63101  0.62861  Biso   1.000  F
  F16      1.0000 0.88690  0.36899  0.37139  Biso   1.000  F
  F17      1.0000 0.24470  0.73743  0.56937  Biso   1.000  F
  F18      1.0000 0.75530  0.26257  0.43063  Biso   1.000  F
  C13      1.0000 0.29180  0.56920  0.57410  Biso   1.000  C
  C14      1.0000 0.70820  0.43080  0.42590  Biso   1.000  C
  C15      1.0000 0.32240  0.52740  0.66370  Biso   1.000  C
  C16      1.0000 0.67760  0.47260  0.33630  Biso   1.000  C
  H3       1.0000 0.28200  0.54400  0.71000  Biso   1.000  H
  H4       1.0000 0.71800  0.45600  0.29000  Biso   1.000  H
  C17      1.0000 0.41920  0.46580  0.68030  Biso   1.000  C
  C18      1.0000 0.58080  0.53420  0.31970  Biso   1.000  C
  C19      1.0000 0.44390  0.42120  0.78020  Biso   1.000  C
  C20      1.0000 0.55610  0.57880  0.21980  Biso   1.000  C
  F19      1.0000 0.58650  0.43210  0.82570  Biso   1.000  F
  F20      1.0000 0.41350  0.56790  0.17430  Biso   1.000  F
  F21      1.0000 0.39300  0.46200  0.84390  Biso   1.000  F
  F22      1.0000 0.60700  0.53800  0.15610  Biso   1.000  F
  F23      1.0000 0.38940  0.31320  0.75620  Biso   1.000  F
  F24      1.0000 0.61060  0.68680  0.24380  Biso   1.000  F
  O7       1.0000 0.48810  0.43953  0.62287  Biso   1.000  O
  O8       1.0000 0.51190  0.56047  0.37713  Biso   1.000  O
  O9       1.0000 0.96280  0.01514  0.85179  Biso   1.000  O
  O10      1.0000 0.03720  0.98486  0.14821  Biso   1.000  O
  N1       1.0000 0.84780  0.03376  0.79586  Biso   1.000  N
  N2       1.0000 0.15220  0.96624  0.20414  Biso   1.000  N
  C21      1.0000 0.84380  0.14500  0.78030  Biso   1.000  C
  C22      1.0000 0.15620  0.85500  0.21970  Biso   1.000  C
  C23      1.0000 0.93150  0.16880  0.70870  Biso   1.000  C
  C24      1.0000 0.06850  0.83120  0.29130  Biso   1.000  C
  H5       1.0000 0.01800  0.16900  0.74100  Biso   1.000  H
  H6       1.0000 0.98200  0.83100  0.25900  Biso   1.000  H
  H7       1.0000 0.89600  0.11800  0.64700  Biso   1.000  H
  H8       1.0000 0.10400  0.88200  0.35300  Biso   1.000  H
  H9       1.0000 0.93400  0.23800  0.69600  Biso   1.000  H
  H10      1.0000 0.06600  0.76200  0.30400  Biso   1.000  H
  C25      1.0000 0.90440  0.22670  0.88480  Biso   1.000  C
  C26      1.0000 0.09560  0.77330  0.11520  Biso   1.000  C
  H11      1.0000 0.00300  0.22900  0.91800  Biso   1.000  H
  H12      1.0000 0.99700  0.77100  0.08200  Biso   1.000  H
  H13      1.0000 0.90000  0.29800  0.87300  Biso   1.000  H
  H14      1.0000 0.10000  0.70200  0.12700  Biso   1.000  H
  H15      1.0000 0.85900  0.21100  0.93700  Biso   1.000  H
  H16      1.0000 0.14100  0.78900  0.06300  Biso   1.000  H
  C27      1.0000 0.68280  0.12570  0.72610  Biso   1.000  C
  C28      1.0000 0.31720  0.87430  0.27390  Biso   1.000  C
  C29      1.0000 0.64400  0.18550  0.63950  Biso   1.000  C
  C30      1.0000 0.35600  0.81450  0.36050  Biso   1.000  C
  H17      1.0000 0.54100  0.17100  0.61000  Biso   1.000  H
  H18      1.0000 0.45900  0.82900  0.39000  Biso   1.000  H
  H19      1.0000 0.67500  0.25800  0.66500  Biso   1.000  H
  H20      1.0000 0.32500  0.74200  0.33500  Biso   1.000  H
  H21      1.0000 0.68500  0.16500  0.58200  Biso   1.000  H
  H22      1.0000 0.31500  0.83500  0.41800  Biso   1.000  H
  C31      1.0000 0.60190  0.14150  0.80390  Biso   1.000  C
  C32      1.0000 0.39810  0.85850  0.19610  Biso   1.000  C
  H23      1.0000 0.50800  0.11800  0.76600  Biso   1.000  H
  H24      1.0000 0.49200  0.88200  0.23400  Biso   1.000  H
  H25      1.0000 0.62600  0.10300  0.85900  Biso   1.000  H
  H26      1.0000 0.37400  0.89700  0.14100  Biso   1.000  H
  H27      1.0000 0.62500  0.22000  0.83900  Biso   1.000  H
  H28      1.0000 0.37500  0.78000  0.16100  Biso   1.000  H
  N3       1.0000 0.64250  0.00670  0.67910  Biso   1.000  N
  N4       1.0000 0.35750  0.99330  0.32090  Biso   1.000  N
  O11      1.0000 0.52340  0.95888  0.61090  Biso   1.000  O
  O12      1.0000 0.47660  0.04112  0.38910  Biso   1.000  O
  C33      1.0000 0.73870  0.95780  0.72640  Biso   1.000  C
  C34      1.0000 0.26130  0.04220  0.27360  Biso   1.000  C
  C35      1.0000 0.72700  0.84510  0.70220  Biso   1.000  C
  C36      1.0000 0.27300  0.15490  0.29780  Biso   1.000  C
  C37      1.0000 0.61410  0.76270  0.62860  Biso   1.000  C
  C38      1.0000 0.38590  0.23730  0.37140  Biso   1.000  C
  H29      1.0000 0.53000  0.76900  0.58700  Biso   1.000  H
  H30      1.0000 0.47000  0.23100  0.41300  Biso   1.000  H
  N5       1.0000 0.77150  0.68782  0.69840  Biso   1.000  N
  N6       1.0000 0.22850  0.31218  0.30160  Biso   1.000  N
  C39      1.0000 0.83350  0.59690  0.71420  Biso   1.000  C
  C40      1.0000 0.16650  0.40310  0.28580  Biso   1.000  C
  H31      1.0000 0.76100  0.53800  0.71600  Biso   1.000  H
  H32      1.0000 0.23900  0.46200  0.28400  Biso   1.000  H
  H33      1.0000 0.87400  0.57600  0.65400  Biso   1.000  H
  H34      1.0000 0.12600  0.42400  0.34600  Biso   1.000  H
  C41      1.0000 0.95240  0.62030  0.81580  Biso   1.000  C
  C42      1.0000 0.04760  0.37970  0.18420  Biso   1.000  C
  H35      1.0000 0.92600  0.64300  0.87300  Biso   1.000  H
  H36      1.0000 0.07400  0.35700  0.12700  Biso   1.000  H
  H37      1.0000 0.02400  0.67700  0.81700  Biso   1.000  H
  H38      1.0000 0.97600  0.32300  0.18300  Biso   1.000  H
  C43      1.0000 0.00820  0.52210  0.82640  Biso   1.000  C
  C44      1.0000 0.99180  0.47790  0.17360  Biso   1.000  C
  H39      1.0000 0.93200  0.46200  0.82700  Biso   1.000  H
  H40      1.0000 0.06800  0.53800  0.17300  Biso   1.000  H
  H41      1.0000 0.02900  0.49900  0.76800  Biso   1.000  H
  H42      1.0000 0.97100  0.50100  0.23200  Biso   1.000  H
  C45      1.0000 0.13400  0.54020  0.92240  Biso   1.000  C
  C46      1.0000 0.86600  0.45980  0.07760  Biso   1.000  C
  H43      1.0000 0.17000  0.48200  0.92500  Biso   1.000  H
  H44      1.0000 0.83000  0.51800  0.07500  Biso   1.000  H
  H45      1.0000 0.21200  0.59800  0.92000  Biso   1.000  H
  H46      1.0000 0.78800  0.40200  0.08000  Biso   1.000  H
  H47      1.0000 0.11700  0.56300  0.98600  Biso   1.000  H
  H48      1.0000 0.88300  0.43700  0.01400  Biso   1.000  H
  C47      1.0000 0.82570  0.79150  0.74430  Biso   1.000  C
  C48      1.0000 0.17430  0.20850  0.25570  Biso   1.000  C
  H49      1.0000 0.91500  0.81800  0.79200  Biso   1.000  H
  H50      1.0000 0.08500  0.18200  0.20800  Biso   1.000  H
  N7       1.0000 0.64130  0.66740  0.62600  Biso   1.000  N
  N8       1.0000 0.35870  0.33260  0.37400  Biso   1.000  N
  C49      1.0000 0.12140  0.22630  0.50220  Biso   1.000  C
  C50      1.0000 0.87860  0.77370  0.49780  Biso   1.000  C
  H51      1.0000 0.03880  0.23950  0.45690  Biso   1.000  H
  H52      1.0000 0.96120  0.76050  0.54310  Biso   1.000  H
  H53      1.0000 0.19730  0.24080  0.47300  Biso   1.000  H
  H54      1.0000 0.80270  0.75920  0.52700  Biso   1.000  H
  H55      1.0000 0.14810  0.27270  0.57130  Biso   1.000  H
  H56      1.0000 0.85190  0.72730  0.42870  Biso   1.000  H
  C51      1.0000 0.09220  0.11890  0.51020  Biso   1.000  C
  C52      1.0000 0.90780  0.88110  0.48980  Biso   1.000  C
  C53      1.0000 0.95340  0.05670  0.46520  Biso   1.000  C
  C54      1.0000 0.04660  0.94330  0.53480  Biso   1.000  C
  H57      1.0000 0.88360  0.08540  0.42310  Biso   1.000  H
  H58      1.0000 0.11640  0.91460  0.57690  Biso   1.000  H
  C55      1.0000 0.91560  0.95280  0.48120  Biso   1.000  C
  C56      1.0000 0.08440  0.04720  0.51880  Biso   1.000  C
  C57      1.0000 0.01670  0.91120  0.54220  Biso   1.000  C
  C58      1.0000 0.98330  0.08880  0.45780  Biso   1.000  C
  H59      1.0000 0.99060  0.83950  0.55320  Biso   1.000  H
  H60      1.0000 0.00940  0.16050  0.44680  Biso   1.000  H
  C59      1.0000 0.15550  0.97340  0.58720  Biso   1.000  C
  C60      1.0000 0.84450  0.02660  0.41280  Biso   1.000  C
  H61      1.0000 0.22530  0.94470  0.62930  Biso   1.000  H
  H62      1.0000 0.77470  0.05530  0.37070  Biso   1.000  H
  C61      1.0000 0.19330  0.07730  0.57120  Biso   1.000  C
  C62      1.0000 0.80670  0.92270  0.42880  Biso   1.000  C
  H63      1.0000 0.28910  0.12030  0.60230  Biso   1.000  H
  H64      1.0000 0.71090  0.87970  0.39770  Biso   1.000  H
  C63      1.0000 0.76290  0.88180  0.43580  Biso   1.000  C
  C64      1.0000 0.23710  0.11820  0.56420  Biso   1.000  C
  H65      1.0000 0.75850  0.81340  0.45540  Biso   1.000  H
  H66      1.0000 0.24150  0.18660  0.54460  Biso   1.000  H
  H67      1.0000 0.73230  0.87040  0.36000  Biso   1.000  H
  H68      1.0000 0.26770  0.12960  0.64000  Biso   1.000  H
  H69      1.0000 0.70260  0.91720  0.46360  Biso   1.000  H
  H70      1.0000 0.29740  0.08280  0.53640  Biso   1.000  H
  F25      1.0000 0.41400  0.47630  0.86090  Biso   1.000  F
  F26      1.0000 0.58600  0.52370  0.13910  Biso   1.000  F
  F27      1.0000 0.42740  0.57480  0.17790  Biso   1.000  F
  F28      1.0000 0.57260  0.42520  0.82210  Biso   1.000  F
  F29      1.0000 0.37510  0.32580  0.75850  Biso   1.000  F
  F30      1.0000 0.62490  0.67420  0.24150  Biso   1.000  F
  F31      1.0000 0.72790  0.68100  0.99490  Biso   1.000  F
  F32      1.0000 0.27210  0.31900  0.00510  Biso   1.000  F
  F33      1.0000 0.57000  0.70070  0.85880  Biso   1.000  F
  F34      1.0000 0.43000  0.29930  0.14120  Biso   1.000  F
  F35      1.0000 0.56320  0.72100  0.01600  Biso   1.000  F
  F36      1.0000 0.43680  0.27900  0.98400  Biso   1.000  F
