data_image0
_cell_length_a       10.4488
_cell_length_b       13.2464
_cell_length_c       14.2035
_cell_angle_alpha    100.687
_cell_angle_beta     102.549
_cell_angle_gamma    104.125

_symmetry_space_group_name_H-M    "P 1"
_symmetry_int_tables_number       1

loop_
  _symmetry_equiv_pos_as_xyz
  'x, y, z'

loop_
  _atom_site_label
  _atom_site_occupancy
  _atom_site_fract_x
  _atom_site_fract_y
  _atom_site_fract_z
  _atom_site_thermal_displace_type
  _atom_site_B_iso_or_equiv
  _atom_site_type_symbol
  Cu1      1.0000 0.50000  0.50000  0.00000  Biso   1.000  Cu
  O1       1.0000 0.64320  0.63850  0.02880  Biso   1.000  O
  O2       1.0000 0.35680  0.36150  0.97120  Biso   1.000  O
  C1       1.0000 0.83550  0.76730  0.02510  Biso   1.000  C
  C2       1.0000 0.16450  0.23270  0.97490  Biso   1.000  C
  F1       1.0000 0.77200  0.83120  0.01640  Biso   1.000  F
  F2       1.0000 0.22800  0.16880  0.98360  Biso   1.000  F
  F3       1.0000 0.94800  0.78500  0.97610  Biso   1.000  F
  F4       1.0000 0.05200  0.21500  0.02390  Biso   1.000  F
  F5       1.0000 0.91900  0.79780  0.11510  Biso   1.000  F
  F6       1.0000 0.08100  0.20220  0.88490  Biso   1.000  F
  C3       1.0000 0.75010  0.65050  0.00030  Biso   1.000  C
  C4       1.0000 0.24990  0.34950  0.99970  Biso   1.000  C
  C5       1.0000 0.79520  0.57180  0.95230  Biso   1.000  C
  C6       1.0000 0.20480  0.42820  0.04770  Biso   1.000  C
  H1       1.0000 0.87490  0.59220  0.93250  Biso   1.000  H
  H2       1.0000 0.12510  0.40780  0.06750  Biso   1.000  H
  C7       1.0000 0.72670  0.46330  0.93250  Biso   1.000  C
  C8       1.0000 0.27330  0.53670  0.06750  Biso   1.000  C
  C9       1.0000 0.78920  0.38440  0.88480  Biso   1.000  C
  C10      1.0000 0.21080  0.61560  0.11520  Biso   1.000  C
  F7       1.0000 0.90090  0.42480  0.86160  Biso   1.000  F
  F8       1.0000 0.09910  0.57520  0.13840  Biso   1.000  F
  F9       1.0000 0.70710  0.31970  0.80520  Biso   1.000  F
  F10      1.0000 0.29290  0.68030  0.19480  Biso   1.000  F
  F11      1.0000 0.82050  0.32250  0.94270  Biso   1.000  F
  F12      1.0000 0.17950  0.67750  0.05730  Biso   1.000  F
  O3       1.0000 0.61910  0.42130  0.95160  Biso   1.000  O
  O4       1.0000 0.38090  0.57870  0.04840  Biso   1.000  O
  Cu2      1.0000 0.00000  0.00000  0.50000  Biso   1.000  Cu
  O5       1.0000 0.97020  0.93330  0.61190  Biso   1.000  O
  O6       1.0000 0.02980  0.06670  0.38810  Biso   1.000  O
  C11      1.0000 0.89430  0.90350  0.75000  Biso   1.000  C
  C12      1.0000 0.10570  0.09650  0.25000  Biso   1.000  C
  F13      1.0000 0.85900  0.80470  0.73110  Biso   1.000  F
  F14      1.0000 0.14100  0.19530  0.26890  Biso   1.000  F
  F15      1.0000 0.86400  0.94800  0.82100  Biso   1.000  F
  F16      1.0000 0.13600  0.05200  0.17900  Biso   1.000  F
  F17      1.0000 0.03300  0.91500  0.79980  Biso   1.000  F
  F18      1.0000 0.96700  0.08500  0.20020  Biso   1.000  F
  C13      1.0000 0.89260  0.95430  0.66210  Biso   1.000  C
  C14      1.0000 0.10740  0.04570  0.33790  Biso   1.000  C
  C15      1.0000 0.80500  0.01590  0.64740  Biso   1.000  C
  C16      1.0000 0.19500  0.98410  0.35260  Biso   1.000  C
  H3       1.0000 0.75190  0.02390  0.69150  Biso   1.000  H
  H4       1.0000 0.24810  0.97610  0.30850  Biso   1.000  H
  C17      1.0000 0.79180  0.06590  0.57170  Biso   1.000  C
  C18      1.0000 0.20820  0.93410  0.42830  Biso   1.000  C
  C19      1.0000 0.69550  0.13490  0.56360  Biso   1.000  C
  C20      1.0000 0.30450  0.86510  0.43640  Biso   1.000  C
  F19      1.0000 0.76230  0.23620  0.58430  Biso   1.000  F
  F20      1.0000 0.23770  0.76380  0.41570  Biso   1.000  F
  F21      1.0000 0.61540  0.12750  0.61940  Biso   1.000  F
  F22      1.0000 0.38460  0.87250  0.38060  Biso   1.000  F
  F23      1.0000 0.61690  0.11500  0.47200  Biso   1.000  F
  F24      1.0000 0.38310  0.88500  0.52800  Biso   1.000  F
  O7       1.0000 0.85360  0.06490  0.50520  Biso   1.000  O
  O8       1.0000 0.14640  0.93510  0.49480  Biso   1.000  O
  O9       1.0000 0.55240  0.48710  0.16320  Biso   1.000  O
  O10      1.0000 0.44760  0.51290  0.83680  Biso   1.000  O
  N1       1.0000 0.65660  0.47200  0.22010  Biso   1.000  N
  N2       1.0000 0.34340  0.52800  0.77990  Biso   1.000  N
  C21      1.0000 0.65890  0.36200  0.23070  Biso   1.000  C
  C22      1.0000 0.34110  0.63800  0.76930  Biso   1.000  C
  C23      1.0000 0.61470  0.28470  0.12940  Biso   1.000  C
  C24      1.0000 0.38530  0.71530  0.87060  Biso   1.000  C
  H5       1.0000 0.51950  0.27470  0.09900  Biso   1.000  H
  H6       1.0000 0.48050  0.72530  0.90100  Biso   1.000  H
  H7       1.0000 0.66880  0.31320  0.08840  Biso   1.000  H
  H8       1.0000 0.33120  0.68680  0.91160  Biso   1.000  H
  H9       1.0000 0.62760  0.21680  0.13630  Biso   1.000  H
  H10      1.0000 0.37240  0.78320  0.86370  Biso   1.000  H
  C25      1.0000 0.55790  0.32910  0.28710  Biso   1.000  C
  C26      1.0000 0.44210  0.67090  0.71290  Biso   1.000  C
  H11      1.0000 0.46660  0.31570  0.24570  Biso   1.000  H
  H12      1.0000 0.53340  0.68430  0.75430  Biso   1.000  H
  H13      1.0000 0.56670  0.26470  0.30610  Biso   1.000  H
  H14      1.0000 0.43330  0.73530  0.69390  Biso   1.000  H
  H15      1.0000 0.57520  0.38550  0.34570  Biso   1.000  H
  H16      1.0000 0.42480  0.61450  0.65430  Biso   1.000  H
  C27      1.0000 0.80940  0.38580  0.28830  Biso   1.000  C
  C28      1.0000 0.19060  0.61420  0.71170  Biso   1.000  C
  C29      1.0000 0.90210  0.37500  0.21610  Biso   1.000  C
  C30      1.0000 0.09790  0.62500  0.78390  Biso   1.000  C
  H17      1.0000 0.99560  0.39040  0.25440  Biso   1.000  H
  H18      1.0000 0.00440  0.60960  0.74560  Biso   1.000  H
  H19      1.0000 0.87120  0.30310  0.17430  Biso   1.000  H
  H20      1.0000 0.12880  0.69690  0.82570  Biso   1.000  H
  H21      1.0000 0.89650  0.42500  0.17540  Biso   1.000  H
  H22      1.0000 0.10350  0.57500  0.82460  Biso   1.000  H
  C31      1.0000 0.84090  0.32650  0.36640  Biso   1.000  C
  C32      1.0000 0.15910  0.67350  0.63360  Biso   1.000  C
  H23      1.0000 0.78420  0.33350  0.41070  Biso   1.000  H
  H24      1.0000 0.21580  0.66650  0.58930  Biso   1.000  H
  H25      1.0000 0.82290  0.25180  0.33500  Biso   1.000  H
  H26      1.0000 0.17710  0.74820  0.66500  Biso   1.000  H
  H27      1.0000 0.93580  0.35630  0.40350  Biso   1.000  H
  H28      1.0000 0.06420  0.64370  0.59650  Biso   1.000  H
  N3       1.0000 0.84490  0.50270  0.33480  Biso   1.000  N
  N4       1.0000 0.15510  0.49730  0.66520  Biso   1.000  N
  O11      1.0000 0.95730  0.55370  0.39900  Biso   1.000  O
  O12      1.0000 0.04270  0.44630  0.60100  Biso   1.000  O
  C33      1.0000 0.75630  0.54830  0.28800  Biso   1.000  C
  C34      1.0000 0.24370  0.45170  0.71200  Biso   1.000  C
  C35      1.0000 0.77190  0.66160  0.30950  Biso   1.000  C
  C36      1.0000 0.22810  0.33840  0.69050  Biso   1.000  C
  C37      1.0000 0.87590  0.74390  0.38210  Biso   1.000  C
  C38      1.0000 0.12410  0.25610  0.61790  Biso   1.000  C
  H29      1.0000 0.94990  0.73360  0.42500  Biso   1.000  H
  H30      1.0000 0.05010  0.26640  0.57500  Biso   1.000  H
  N5       1.0000 0.85500  0.83810  0.38180  Biso   1.000  N
  N6       1.0000 0.14500  0.16190  0.61820  Biso   1.000  N
  N7       1.0000 0.73900  0.81790  0.30740  Biso   1.000  N
  N8       1.0000 0.26100  0.18210  0.69260  Biso   1.000  N
  C39      1.0000 0.69120  0.90830  0.28430  Biso   1.000  C
  C40      1.0000 0.30880  0.09170  0.71570  Biso   1.000  C
  H31      1.0000 0.76720  0.96010  0.27420  Biso   1.000  H
  H32      1.0000 0.23280  0.03990  0.72580  Biso   1.000  H
  H33      1.0000 0.66920  0.94320  0.34250  Biso   1.000  H
  H34      1.0000 0.33080  0.05680  0.65750  Biso   1.000  H
  C41      1.0000 0.57950  0.88570  0.20310  Biso   1.000  C
  C42      1.0000 0.42050  0.11430  0.79690  Biso   1.000  C
  H35      1.0000 0.59960  0.84840  0.14510  Biso   1.000  H
  H36      1.0000 0.40040  0.15160  0.85490  Biso   1.000  H
  H37      1.0000 0.50190  0.83660  0.21420  Biso   1.000  H
  H38      1.0000 0.49810  0.16340  0.78580  Biso   1.000  H
  C43      1.0000 0.53690  0.98270  0.17930  Biso   1.000  C
  C44      1.0000 0.46310  0.01730  0.82070  Biso   1.000  C
  H39      1.0000 0.60810  0.02510  0.15660  Biso   1.000  H
  H40      1.0000 0.39190  0.97490  0.84340  Biso   1.000  H
  H41      1.0000 0.53320  0.02700  0.24070  Biso   1.000  H
  H42      1.0000 0.46680  0.97300  0.75930  Biso   1.000  H
  C45      1.0000 0.40960  0.95970  0.10710  Biso   1.000  C
  C46      1.0000 0.59040  0.04030  0.89290  Biso   1.000  C
  H43      1.0000 0.39270  0.02580  0.09810  Biso   1.000  H
  H44      1.0000 0.60730  0.97420  0.90190  Biso   1.000  H
  H45      1.0000 0.41260  0.91820  0.04500  Biso   1.000  H
  H46      1.0000 0.58740  0.08180  0.95500  Biso   1.000  H
  H47      1.0000 0.33740  0.91940  0.12920  Biso   1.000  H
  H48      1.0000 0.66260  0.08060  0.87080  Biso   1.000  H
  C47      1.0000 0.68680  0.71220  0.26280  Biso   1.000  C
  C48      1.0000 0.31320  0.28780  0.73720  Biso   1.000  C
  H49      1.0000 0.60780  0.67950  0.21010  Biso   1.000  H
  H50      1.0000 0.39220  0.32050  0.78990  Biso   1.000  H
  C49      1.0000 0.28320  0.50160  0.35760  Biso   1.000  C
  C50      1.0000 0.71680  0.49840  0.64240  Biso   1.000  C
  H51      1.0000 0.20970  0.43810  0.34960  Biso   1.000  H
  H52      1.0000 0.79030  0.56190  0.65040  Biso   1.000  H
  H53      1.0000 0.31450  0.49620  0.29860  Biso   1.000  H
  H54      1.0000 0.68550  0.50380  0.70140  Biso   1.000  H
  H55      1.0000 0.25100  0.56360  0.36810  Biso   1.000  H
  H56      1.0000 0.74900  0.43640  0.63190  Biso   1.000  H
  C51      1.0000 0.39770  0.51210  0.44440  Biso   1.000  C
  C52      1.0000 0.60230  0.48790  0.55560  Biso   1.000  C
  C53      1.0000 0.44150  0.44910  0.50510  Biso   1.000  C
  C54      1.0000 0.55850  0.55090  0.49490  Biso   1.000  C
  H57      1.0000 0.37820  0.38390  0.50710  Biso   1.000  H
  H58      1.0000 0.62180  0.61610  0.49290  Biso   1.000  H
  C55      1.0000 0.57700  0.48040  0.56290  Biso   1.000  C
  C56      1.0000 0.42300  0.51960  0.43710  Biso   1.000  C
  C57      1.0000 0.66860  0.57470  0.56000  Biso   1.000  C
  C58      1.0000 0.33140  0.42530  0.44000  Biso   1.000  C
  H59      1.0000 0.76220  0.59640  0.59990  Biso   1.000  H
  H60      1.0000 0.23780  0.40360  0.40010  Biso   1.000  H
  C59      1.0000 0.62480  0.63770  0.49930  Biso   1.000  C
  C60      1.0000 0.37520  0.36230  0.50070  Biso   1.000  C
  H61      1.0000 0.68810  0.70290  0.49730  Biso   1.000  H
  H62      1.0000 0.31190  0.29710  0.50270  Biso   1.000  H
  C61      1.0000 0.48930  0.60640  0.44150  Biso   1.000  C
  C62      1.0000 0.51070  0.39360  0.55850  Biso   1.000  C
  H63      1.0000 0.45900  0.64990  0.39950  Biso   1.000  H
  H64      1.0000 0.54100  0.35010  0.60050  Biso   1.000  H
  C63      1.0000 0.60390  0.40010  0.62850  Biso   1.000  C
  C64      1.0000 0.39610  0.59990  0.37150  Biso   1.000  C
  H65      1.0000 0.52140  0.34190  0.61460  Biso   1.000  H
  H66      1.0000 0.47860  0.65810  0.38540  Biso   1.000  H
  H67      1.0000 0.63130  0.43730  0.69770  Biso   1.000  H
  H68      1.0000 0.36870  0.56270  0.30230  Biso   1.000  H
  H69      1.0000 0.67550  0.37200  0.61300  Biso   1.000  H
  H70      1.0000 0.32450  0.62800  0.38700  Biso   1.000  H
  F25      1.0000 0.24400  0.17810  0.02400  Biso   1.000  F
  F26      1.0000 0.75600  0.82190  0.97600  Biso   1.000  F
  F27      1.0000 0.08100  0.22100  0.00900  Biso   1.000  F
  F28      1.0000 0.91900  0.77900  0.99100  Biso   1.000  F
  F29      1.0000 0.13500  0.19400  0.88120  Biso   1.000  F
  F30      1.0000 0.86500  0.80600  0.11880  Biso   1.000  F
  F31      1.0000 0.94400  0.82900  0.73900  Biso   1.000  F
  F32      1.0000 0.05600  0.17100  0.26100  Biso   1.000  F
  F33      1.0000 0.76250  0.85600  0.74900  Biso   1.000  F
  F34      1.0000 0.23750  0.14400  0.25100  Biso   1.000  F
  F35      1.0000 0.94500  0.97300  0.82880  Biso   1.000  F
  F36      1.0000 0.05500  0.02700  0.17120  Biso   1.000  F
