data_image0
_cell_length_a       10.634
_cell_length_b       13.344
_cell_length_c       13.744
_cell_angle_alpha    99.257
_cell_angle_beta     111.469
_cell_angle_gamma    96.457

_symmetry_space_group_name_H-M    "P 1"
_symmetry_int_tables_number       1

loop_
  _symmetry_equiv_pos_as_xyz
  'x, y, z'

loop_
  _atom_site_label
  _atom_site_occupancy
  _atom_site_fract_x
  _atom_site_fract_y
  _atom_site_fract_z
  _atom_site_thermal_displace_type
  _atom_site_B_iso_or_equiv
  _atom_site_type_symbol
  Cu1      1.0000 0.50000  0.50000  0.50000  Biso   1.000  Cu
  O1       1.0000 0.37170  0.37267  0.47530  Biso   1.000  O
  O2       1.0000 0.62830  0.62733  0.52470  Biso   1.000  O
  C1       1.0000 0.20210  0.25570  0.48780  Biso   1.000  C
  C2       1.0000 0.79790  0.74430  0.51220  Biso   1.000  C
  F1       1.0000 0.14010  0.21760  0.38610  Biso   1.000  F
  F2       1.0000 0.85990  0.78240  0.61390  Biso   1.000  F
  F3       1.0000 0.28300  0.18990  0.50190  Biso   1.000  F
  F4       1.0000 0.71700  0.81010  0.49810  Biso   1.000  F
  F5       1.0000 0.13200  0.24110  0.54270  Biso   1.000  F
  F6       1.0000 0.86800  0.75890  0.45730  Biso   1.000  F
  C3       1.0000 0.27670  0.36620  0.50680  Biso   1.000  C
  C4       1.0000 0.72330  0.63380  0.49320  Biso   1.000  C
  C5       1.0000 0.23200  0.44460  0.55610  Biso   1.000  C
  C6       1.0000 0.76800  0.55540  0.44390  Biso   1.000  C
  H1       1.0000 0.16020  0.42800  0.57750  Biso   1.000  H
  H2       1.0000 0.83980  0.57200  0.42250  Biso   1.000  H
  C7       1.0000 0.29010  0.54630  0.57450  Biso   1.000  C
  C8       1.0000 0.70990  0.45370  0.42550  Biso   1.000  C
  C9       1.0000 0.23280  0.62770  0.62710  Biso   1.000  C
  C10      1.0000 0.76720  0.37230  0.37290  Biso   1.000  C
  F7       1.0000 0.33560  0.69320  0.71290  Biso   1.000  F
  F8       1.0000 0.66440  0.30680  0.28710  Biso   1.000  F
  F9       1.0000 0.15740  0.59530  0.67490  Biso   1.000  F
  F10      1.0000 0.84260  0.40470  0.32510  Biso   1.000  F
  F11      1.0000 0.17970  0.68590  0.56570  Biso   1.000  F
  F12      1.0000 0.82030  0.31410  0.43430  Biso   1.000  F
  O3       1.0000 0.38730  0.58263  0.55231  Biso   1.000  O
  O4       1.0000 0.61270  0.41737  0.44769  Biso   1.000  O
  Cu2      1.0000 0.00000  0.00000  0.00000  Biso   1.000  Cu
  O5       1.0000 0.15510  0.93611  0.00278  Biso   1.000  O
  O6       1.0000 0.84490  0.06389  0.99722  Biso   1.000  O
  C11      1.0000 0.31480  0.86420  0.95070  Biso   1.000  C
  C12      1.0000 0.68520  0.13580  0.04930  Biso   1.000  C
  F13      1.0000 0.39580  0.88640  0.04860  Biso   1.000  F
  F14      1.0000 0.60420  0.11360  0.95140  Biso   1.000  F
  F15      1.0000 0.38250  0.88230  0.89190  Biso   1.000  F
  F16      1.0000 0.61750  0.11770  0.10810  Biso   1.000  F
  F17      1.0000 0.26200  0.76900  0.92210  Biso   1.000  F
  F18      1.0000 0.73800  0.23100  0.07790  Biso   1.000  F
  C13      1.0000 0.19900  0.92600  0.92990  Biso   1.000  C
  C14      1.0000 0.80100  0.07400  0.07010  Biso   1.000  C
  C15      1.0000 0.15430  0.96180  0.83720  Biso   1.000  C
  C16      1.0000 0.84570  0.03820  0.16280  Biso   1.000  C
  H3       1.0000 0.19400  0.94600  0.78800  Biso   1.000  H
  H4       1.0000 0.80600  0.05400  0.21200  Biso   1.000  H
  C17      1.0000 0.05220  0.02060  0.81440  Biso   1.000  C
  C18      1.0000 0.94780  0.97940  0.18560  Biso   1.000  C
  C19      1.0000 0.01610  0.05780  0.71070  Biso   1.000  C
  C20      1.0000 0.98390  0.94220  0.28930  Biso   1.000  C
  F19      1.0000 0.86300  0.05800  0.66690  Biso   1.000  F
  F20      1.0000 0.13700  0.94200  0.33310  Biso   1.000  F
  F21      1.0000 0.06400  0.01980  0.64630  Biso   1.000  F
  F22      1.0000 0.93600  0.98020  0.35370  Biso   1.000  F
  F23      1.0000 0.03900  0.15030  0.72080  Biso   1.000  F
  F24      1.0000 0.96100  0.84970  0.27920  Biso   1.000  F
  O7       1.0000 0.98720  0.04851  0.86972  Biso   1.000  O
  O8       1.0000 0.01280  0.95149  0.13028  Biso   1.000  O
  O9       1.0000 0.40840  0.51448  0.32192  Biso   1.000  O
  O10      1.0000 0.59160  0.48552  0.67808  Biso   1.000  O
  N1       1.0000 0.28360  0.52177  0.26770  Biso   1.000  N
  N2       1.0000 0.71640  0.47823  0.73230  Biso   1.000  N
  C21      1.0000 0.24220  0.62280  0.24850  Biso   1.000  C
  C22      1.0000 0.75780  0.37720  0.75150  Biso   1.000  C
  C23      1.0000 0.29330  0.64930  0.16400  Biso   1.000  C
  C24      1.0000 0.70670  0.35070  0.83600  Biso   1.000  C
  H5       1.0000 0.24900  0.59690  0.09920  Biso   1.000  H
  H6       1.0000 0.75100  0.40310  0.90080  Biso   1.000  H
  H7       1.0000 0.39100  0.65290  0.18960  Biso   1.000  H
  H8       1.0000 0.60900  0.34710  0.81040  Biso   1.000  H
  H9       1.0000 0.27210  0.71480  0.14970  Biso   1.000  H
  H10      1.0000 0.72790  0.28520  0.85030  Biso   1.000  H
  C25      1.0000 0.31260  0.70670  0.35260  Biso   1.000  C
  C26      1.0000 0.68740  0.29330  0.64740  Biso   1.000  C
  H11      1.0000 0.41000  0.72020  0.37080  Biso   1.000  H
  H12      1.0000 0.59000  0.27980  0.62920  Biso   1.000  H
  H13      1.0000 0.29460  0.68330  0.40950  Biso   1.000  H
  H14      1.0000 0.70540  0.31670  0.59050  Biso   1.000  H
  H15      1.0000 0.27710  0.76890  0.34220  Biso   1.000  H
  H16      1.0000 0.72290  0.23110  0.65780  Biso   1.000  H
  C27      1.0000 0.08590  0.59250  0.20870  Biso   1.000  C
  C28      1.0000 0.91410  0.40750  0.79130  Biso   1.000  C
  C29      1.0000 0.00250  0.64260  0.12050  Biso   1.000  C
  C30      1.0000 0.99750  0.35740  0.87950  Biso   1.000  C
  H17      1.0000 0.90620  0.61860  0.10120  Biso   1.000  H
  H18      1.0000 0.09380  0.38140  0.89880  Biso   1.000  H
  H19      1.0000 0.02460  0.62450  0.05900  Biso   1.000  H
  H20      1.0000 0.97540  0.37550  0.94100  Biso   1.000  H
  H21      1.0000 0.02390  0.71630  0.14560  Biso   1.000  H
  H22      1.0000 0.97610  0.28370  0.85440  Biso   1.000  H
  C31      1.0000 0.03230  0.60220  0.29810  Biso   1.000  C
  C32      1.0000 0.96770  0.39780  0.70190  Biso   1.000  C
  H23      1.0000 0.93400  0.58210  0.26760  Biso   1.000  H
  H24      1.0000 0.06600  0.41790  0.73240  Biso   1.000  H
  H25      1.0000 0.05770  0.67260  0.33770  Biso   1.000  H
  H26      1.0000 0.94230  0.32740  0.66230  Biso   1.000  H
  H27      1.0000 0.07160  0.55810  0.34530  Biso   1.000  H
  H28      1.0000 0.92840  0.44190  0.65470  Biso   1.000  H
  N3       1.0000 0.06590  0.47960  0.16490  Biso   1.000  N
  N4       1.0000 0.93410  0.52040  0.83510  Biso   1.000  N
  O11      1.0000 0.94900  0.42516  0.10640  Biso   1.000  O
  O12      1.0000 0.05100  0.57484  0.89360  Biso   1.000  O
  C33      1.0000 0.18170  0.44280  0.20760  Biso   1.000  C
  C34      1.0000 0.81830  0.55720  0.79240  Biso   1.000  C
  C35      1.0000 0.19420  0.33690  0.18920  Biso   1.000  C
  C36      1.0000 0.80580  0.66310  0.81080  Biso   1.000  C
  C37      1.0000 0.09370  0.25240  0.11950  Biso   1.000  C
  C38      1.0000 0.90630  0.74760  0.88050  Biso   1.000  C
  H29      1.0000 0.00370  0.25680  0.07850  Biso   1.000  H
  H30      1.0000 0.99630  0.74320  0.92150  Biso   1.000  H
  N5       1.0000 0.14270  0.16591  0.11940  Biso   1.000  N
  N6       1.0000 0.85730  0.83409  0.88060  Biso   1.000  N
  N7       1.0000 0.27500  0.19351  0.18980  Biso   1.000  N
  N8       1.0000 0.72500  0.80649  0.81020  Biso   1.000  N
  C39      1.0000 0.36390  0.11740  0.21020  Biso   1.000  C
  C40      1.0000 0.63610  0.88260  0.78980  Biso   1.000  C
  H31      1.0000 0.31040  0.05020  0.16770  Biso   1.000  H
  H32      1.0000 0.68960  0.94980  0.83230  Biso   1.000  H
  H33      1.0000 0.43650  0.13410  0.18530  Biso   1.000  H
  H34      1.0000 0.56350  0.86590  0.81470  Biso   1.000  H
  C41      1.0000 0.42440  0.10960  0.31680  Biso   1.000  C
  C42      1.0000 0.57560  0.89040  0.68320  Biso   1.000  C
  H35      1.0000 0.35550  0.10730  0.34750  Biso   1.000  H
  H36      1.0000 0.64450  0.89270  0.65250  Biso   1.000  H
  H37      1.0000 0.49530  0.17010  0.35730  Biso   1.000  H
  H38      1.0000 0.50470  0.82990  0.64270  Biso   1.000  H
  C43      1.0000 0.49090  0.00700  0.32520  Biso   1.000  C
  C44      1.0000 0.50910  0.99300  0.67480  Biso   1.000  C
  H39      1.0000 0.44720  0.96050  0.35580  Biso   1.000  H
  H40      1.0000 0.55280  0.03950  0.64420  Biso   1.000  H
  H41      1.0000 0.48240  0.97080  0.25530  Biso   1.000  H
  H42      1.0000 0.51760  0.02920  0.74470  Biso   1.000  H
  C45      1.0000 0.61170  0.04020  0.38430  Biso   1.000  C
  C46      1.0000 0.38830  0.95980  0.61570  Biso   1.000  C
  H43      1.0000 0.66000  0.98370  0.39460  Biso   1.000  H
  H44      1.0000 0.34000  0.01630  0.60540  Biso   1.000  H
  H45      1.0000 0.61740  0.07700  0.45230  Biso   1.000  H
  H46      1.0000 0.38260  0.92300  0.54770  Biso   1.000  H
  H47      1.0000 0.65260  0.08610  0.35240  Biso   1.000  H
  H48      1.0000 0.34740  0.91390  0.64760  Biso   1.000  H
  C47      1.0000 0.30870  0.29420  0.23210  Biso   1.000  C
  C48      1.0000 0.69130  0.70580  0.76790  Biso   1.000  C
  H49      1.0000 0.39440  0.32960  0.28190  Biso   1.000  H
  H50      1.0000 0.60560  0.67040  0.71810  Biso   1.000  H
  C49      1.0000 0.63740  0.71260  0.04540  Biso   1.000  C
  C50      1.0000 0.36260  0.28740  0.95460  Biso   1.000  C
  H51      1.0000 0.62040  0.74040  0.98250  Biso   1.000  H
  H52      1.0000 0.37960  0.25960  0.01750  Biso   1.000  H
  H53      1.0000 0.73440  0.71560  0.08150  Biso   1.000  H
  H54      1.0000 0.26560  0.28440  0.91850  Biso   1.000  H
  H55      1.0000 0.60440  0.75250  0.09250  Biso   1.000  H
  H56      1.0000 0.39560  0.24750  0.90750  Biso   1.000  H
  C51      1.0000 0.56250  0.60050  0.01330  Biso   1.000  C
  C52      1.0000 0.43750  0.39950  0.98670  Biso   1.000  C
  C53      1.0000 0.48120  0.53850  0.91690  Biso   1.000  C
  C54      1.0000 0.51880  0.46150  0.08310  Biso   1.000  C
  H57      1.0000 0.46980  0.56640  0.85710  Biso   1.000  H
  H58      1.0000 0.53020  0.43360  0.14290  Biso   1.000  H
  C55      1.0000 0.58460  0.55880  0.10160  Biso   1.000  C
  C56      1.0000 0.41540  0.44120  0.89840  Biso   1.000  C
  H59      1.0000 0.64180  0.59570  0.17020  Biso   1.000  H
  H60      1.0000 0.35820  0.40430  0.82980  Biso   1.000  H
  F25      1.0000 0.91800  0.07500  0.67800  Biso   1.000  F
  F26      1.0000 0.08200  0.92500  0.32200  Biso   1.000  F
  F27      1.0000 0.88920  0.85960  0.27420  Biso   1.000  F
  F28      1.0000 0.11080  0.14040  0.72580  Biso   1.000  F
  F29      1.0000 0.98750  0.00920  0.36750  Biso   1.000  F
  F30      1.0000 0.01250  0.99080  0.63250  Biso   1.000  F
  F31      1.0000 0.09640  0.24920  0.50890  Biso   1.000  F
  F32      1.0000 0.90360  0.75080  0.49110  Biso   1.000  F
  F33      1.0000 0.28460  0.20750  0.54470  Biso   1.000  F
  F34      1.0000 0.71540  0.79250  0.45530  Biso   1.000  F
  F35      1.0000 0.23220  0.70790  0.59340  Biso   1.000  F
  F36      1.0000 0.76780  0.29210  0.40660  Biso   1.000  F
  F37      1.0000 0.29300  0.64880  0.72220  Biso   1.000  F
  F38      1.0000 0.70700  0.35120  0.27780  Biso   1.000  F
  F39      1.0000 0.10020  0.59470  0.60470  Biso   1.000  F
  F40      1.0000 0.89980  0.40530  0.39530  Biso   1.000  F
  F41      1.0000 0.71680  0.22280  0.03140  Biso   1.000  F
  F42      1.0000 0.28320  0.77720  0.96860  Biso   1.000  F
  F43      1.0000 0.63640  0.15410  0.12160  Biso   1.000  F
  F44      1.0000 0.36360  0.84590  0.87840  Biso   1.000  F
  F45      1.0000 0.57340  0.08610  0.96640  Biso   1.000  F
  F46      1.0000 0.42660  0.91390  0.03360  Biso   1.000  F
