data_image0
_cell_length_a       10.365
_cell_length_b       13.086
_cell_length_c       13.584
_cell_angle_alpha    100.557
_cell_angle_beta     102.014
_cell_angle_gamma    104.744

_symmetry_space_group_name_H-M    "P 1"
_symmetry_int_tables_number       1

loop_
  _symmetry_equiv_pos_as_xyz
  'x, y, z'

loop_
  _atom_site_label
  _atom_site_occupancy
  _atom_site_fract_x
  _atom_site_fract_y
  _atom_site_fract_z
  _atom_site_thermal_displace_type
  _atom_site_B_iso_or_equiv
  _atom_site_type_symbol
  Cu1      1.0000 0.50000  0.50000  0.50000  Biso   1.000  Cu
  O1       1.0000 0.32336  0.33762  0.45162  Biso   1.000  O
  O2       1.0000 0.67664  0.66238  0.54838  Biso   1.000  O
  C1       1.0000 0.12210  0.21120  0.45780  Biso   1.000  C
  C2       1.0000 0.87790  0.78880  0.54220  Biso   1.000  C
  F1       1.0000 0.04130  0.17610  0.36260  Biso   1.000  F
  F2       1.0000 0.95870  0.82390  0.63740  Biso   1.000  F
  F3       1.0000 0.19450  0.14410  0.46840  Biso   1.000  F
  F4       1.0000 0.80550  0.85590  0.53160  Biso   1.000  F
  F5       1.0000 0.02300  0.19800  0.51910  Biso   1.000  F
  F6       1.0000 0.97700  0.80200  0.48090  Biso   1.000  F
  C3       1.0000 0.22000  0.32890  0.48488  Biso   1.000  C
  C4       1.0000 0.78000  0.67110  0.51512  Biso   1.000  C
  C5       1.0000 0.17980  0.41220  0.53960  Biso   1.000  C
  C6       1.0000 0.82020  0.58780  0.46040  Biso   1.000  C
  H1       1.0000 0.10600  0.39600  0.56500  Biso   1.000  H
  H2       1.0000 0.89400  0.60400  0.43500  Biso   1.000  H
  C7       1.0000 0.25170  0.52120  0.55717  Biso   1.000  C
  C8       1.0000 0.74830  0.47880  0.44283  Biso   1.000  C
  C9       1.0000 0.20040  0.60570  0.61810  Biso   1.000  C
  C10      1.0000 0.79960  0.39430  0.38190  Biso   1.000  C
  F7       1.0000 0.29546  0.65883  0.70852  Biso   1.000  F
  F8       1.0000 0.70454  0.34117  0.29148  Biso   1.000  F
  F9       1.0000 0.08204  0.56363  0.64065  Biso   1.000  F
  F10      1.0000 0.91796  0.43637  0.35935  Biso   1.000  F
  F11      1.0000 0.18101  0.68022  0.56626  Biso   1.000  F
  F12      1.0000 0.81899  0.31978  0.43374  Biso   1.000  F
  O3       1.0000 0.35657  0.56520  0.52882  Biso   1.000  O
  O4       1.0000 0.64343  0.43480  0.47118  Biso   1.000  O
  Cu2      1.0000 0.00000  0.00000  0.00000  Biso   1.000  Cu
  O5       1.0000 0.14795  0.93434  0.99157  Biso   1.000  O
  O6       1.0000 0.85205  0.06566  0.00843  Biso   1.000  O
  C11      1.0000 0.31010  0.86780  0.92880  Biso   1.000  C
  C12      1.0000 0.68990  0.13220  0.07120  Biso   1.000  C
  F13      1.0000 0.39590  0.89516  0.02351  Biso   1.000  F
  F14      1.0000 0.60410  0.10484  0.97649  Biso   1.000  F
  F15      1.0000 0.38630  0.87613  0.86154  Biso   1.000  F
  F16      1.0000 0.61370  0.12387  0.13846  Biso   1.000  F
  F17      1.0000 0.23880  0.76249  0.90980  Biso   1.000  F
  F18      1.0000 0.76120  0.23751  0.09020  Biso   1.000  F
  C13      1.0000 0.21080  0.93682  0.92225  Biso   1.000  C
  C14      1.0000 0.78920  0.06318  0.07775  Biso   1.000  C
  C15      1.0000 0.19780  0.99050  0.84310  Biso   1.000  C
  C16      1.0000 0.80220  0.00950  0.15690  Biso   1.000  C
  H3       1.0000 0.25300  0.99300  0.80400  Biso   1.000  H
  H4       1.0000 0.74700  0.00700  0.19600  Biso   1.000  H
  C17      1.0000 0.10740  0.05280  0.83220  Biso   1.000  C
  C18      1.0000 0.89260  0.94720  0.16780  Biso   1.000  C
  C19      1.0000 0.09840  0.10960  0.74290  Biso   1.000  C
  C20      1.0000 0.90160  0.89040  0.25710  Biso   1.000  C
  F19      1.0000 0.97450  0.08150  0.68330  Biso   1.000  F
  F20      1.0000 0.02550  0.91850  0.31670  Biso   1.000  F
  F21      1.0000 0.13600  0.21760  0.78200  Biso   1.000  F
  F22      1.0000 0.86400  0.78240  0.21800  Biso   1.000  F
  F23      1.0000 0.18980  0.10030  0.68980  Biso   1.000  F
  F24      1.0000 0.81020  0.89970  0.31020  Biso   1.000  F
  O7       1.0000 0.02886  0.07054  0.88758  Biso   1.000  O
  O8       1.0000 0.97114  0.92946  0.11242  Biso   1.000  O
  O9       1.0000 0.47958  0.51440  0.35408  Biso   1.000  O
  O10      1.0000 0.52042  0.48560  0.64592  Biso   1.000  O
  N1       1.0000 0.37570  0.53471  0.29677  Biso   1.000  N
  N2       1.0000 0.62430  0.46529  0.70323  Biso   1.000  N
  C21      1.0000 0.38320  0.64820  0.28470  Biso   1.000  C
  C22      1.0000 0.61680  0.35180  0.71530  Biso   1.000  C
  C23      1.0000 0.48700  0.67500  0.22130  Biso   1.000  C
  C24      1.0000 0.51300  0.32500  0.77870  Biso   1.000  C
  H5       1.0000 0.45800  0.62300  0.15400  Biso   1.000  H
  H6       1.0000 0.54200  0.37700  0.84600  Biso   1.000  H
  H7       1.0000 0.59000  0.68100  0.26500  Biso   1.000  H
  H8       1.0000 0.41000  0.31900  0.73500  Biso   1.000  H
  H9       1.0000 0.49900  0.74500  0.20900  Biso   1.000  H
  H10      1.0000 0.50100  0.25500  0.79100  Biso   1.000  H
  C25      1.0000 0.43210  0.73010  0.38940  Biso   1.000  C
  C26      1.0000 0.56790  0.26990  0.61060  Biso   1.000  C
  H11      1.0000 0.37800  0.70900  0.43400  Biso   1.000  H
  H12      1.0000 0.62200  0.29100  0.56600  Biso   1.000  H
  H13      1.0000 0.42900  0.80000  0.37900  Biso   1.000  H
  H14      1.0000 0.57100  0.20000  0.62100  Biso   1.000  H
  H15      1.0000 0.52300  0.73400  0.42100  Biso   1.000  H
  H16      1.0000 0.47700  0.26600  0.57900  Biso   1.000  H
  C27      1.0000 0.23020  0.62916  0.22527  Biso   1.000  C
  C28      1.0000 0.76980  0.37084  0.77473  Biso   1.000  C
  C29      1.0000 0.20930  0.69050  0.14110  Biso   1.000  C
  C30      1.0000 0.79070  0.30950  0.85890  Biso   1.000  C
  H17      1.0000 0.26000  0.67200  0.09300  Biso   1.000  H
  H18      1.0000 0.74000  0.32800  0.90700  Biso   1.000  H
  H19      1.0000 0.24000  0.77100  0.17400  Biso   1.000  H
  H20      1.0000 0.76000  0.22900  0.82600  Biso   1.000  H
  H21      1.0000 0.11200  0.66600  0.10200  Biso   1.000  H
  H22      1.0000 0.88800  0.33400  0.89800  Biso   1.000  H
  C31      1.0000 0.13710  0.64310  0.29670  Biso   1.000  C
  C32      1.0000 0.86290  0.35690  0.70330  Biso   1.000  C
  H23      1.0000 0.14400  0.59900  0.35000  Biso   1.000  H
  H24      1.0000 0.85600  0.40100  0.65000  Biso   1.000  H
  H25      1.0000 0.03900  0.61300  0.25200  Biso   1.000  H
  H26      1.0000 0.96100  0.38700  0.74800  Biso   1.000  H
  H27      1.0000 0.15600  0.71800  0.33300  Biso   1.000  H
  H28      1.0000 0.84400  0.28200  0.66700  Biso   1.000  H
  N3       1.0000 0.18720  0.50882  0.17477  Biso   1.000  N
  N4       1.0000 0.81280  0.49118  0.82523  Biso   1.000  N
  O11      1.0000 0.07840  0.46083  0.10122  Biso   1.000  O
  O12      1.0000 0.92160  0.53917  0.89878  Biso   1.000  O
  C33      1.0000 0.27090  0.45871  0.22492  Biso   1.000  C
  C34      1.0000 0.72910  0.54129  0.77508  Biso   1.000  C
  C35      1.0000 0.24830  0.34295  0.20081  Biso   1.000  C
  C36      1.0000 0.75170  0.65705  0.79919  Biso   1.000  C
  C37      1.0000 0.13490  0.26040  0.12920  Biso   1.000  C
  C38      1.0000 0.86510  0.73960  0.87080  Biso   1.000  C
  H29      1.0000 0.06300  0.26900  0.09100  Biso   1.000  H
  H30      1.0000 0.93700  0.73100  0.90900  Biso   1.000  H
  N5       1.0000 0.15060  0.16284  0.12773  Biso   1.000  N
  N6       1.0000 0.84940  0.83716  0.87227  Biso   1.000  N
  N7       1.0000 0.27380  0.18134  0.19865  Biso   1.000  N
  N8       1.0000 0.72620  0.81866  0.80135  Biso   1.000  N
  C39      1.0000 0.31840  0.08730  0.21880  Biso   1.000  C
  C40      1.0000 0.68160  0.91270  0.78120  Biso   1.000  C
  H31      1.0000 0.24900  0.04000  0.23400  Biso   1.000  H
  H32      1.0000 0.75100  0.96000  0.76600  Biso   1.000  H
  H33      1.0000 0.33900  0.04800  0.15700  Biso   1.000  H
  H34      1.0000 0.66100  0.95200  0.84300  Biso   1.000  H
  C41      1.0000 0.44380  0.11790  0.31090  Biso   1.000  C
  C42      1.0000 0.55620  0.88210  0.68910  Biso   1.000  C
  H35      1.0000 0.42300  0.15200  0.37100  Biso   1.000  H
  H36      1.0000 0.57700  0.84800  0.62900  Biso   1.000  H
  H37      1.0000 0.51400  0.16500  0.29300  Biso   1.000  H
  H38      1.0000 0.48600  0.83500  0.70700  Biso   1.000  H
  C43      1.0000 0.48550  0.01670  0.32590  Biso   1.000  C
  C44      1.0000 0.51450  0.98330  0.67410  Biso   1.000  C
  H39      1.0000 0.40400  0.96700  0.33700  Biso   1.000  H
  H40      1.0000 0.59600  0.03300  0.66300  Biso   1.000  H
  H41      1.0000 0.49200  0.97900  0.25900  Biso   1.000  H
  H42      1.0000 0.50800  0.02100  0.74100  Biso   1.000  H
  C45      1.0000 0.61770  0.04160  0.40980  Biso   1.000  C
  C46      1.0000 0.38230  0.95840  0.59020  Biso   1.000  C
  H43      1.0000 0.64100  0.97200  0.42200  Biso   1.000  H
  H44      1.0000 0.35900  0.02800  0.57800  Biso   1.000  H
  H45      1.0000 0.62300  0.08100  0.47900  Biso   1.000  H
  H46      1.0000 0.37700  0.91900  0.52100  Biso   1.000  H
  H47      1.0000 0.70200  0.09400  0.40100  Biso   1.000  H
  H48      1.0000 0.29800  0.90600  0.59900  Biso   1.000  H
  C47      1.0000 0.33510  0.28766  0.24320  Biso   1.000  C
  C48      1.0000 0.66490  0.71234  0.75680  Biso   1.000  C
  H49      1.0000 0.41000  0.30700  0.28400  Biso   1.000  H
  H50      1.0000 0.59000  0.69300  0.71600  Biso   1.000  H
  C49      1.0000 0.61360  0.58240  0.00140  Biso   1.000  C
  C50      1.0000 0.38640  0.41760  0.99860  Biso   1.000  C
  H51      1.0000 0.68600  0.63700  0.99900  Biso   1.000  H
  H52      1.0000 0.31400  0.36300  0.00100  Biso   1.000  H
  C51      1.0000 0.63300  0.50750  0.05940  Biso   1.000  C
  C52      1.0000 0.36700  0.49250  0.94060  Biso   1.000  C
  C53      1.0000 0.77500  0.51720  0.12330  Biso   1.000  C
  C54      1.0000 0.22500  0.48280  0.87670  Biso   1.000  C
  H53      1.0000 0.78100  0.45300  0.12600  Biso   1.000  H
  H54      1.0000 0.21900  0.54700  0.87400  Biso   1.000  H
  H55      1.0000 0.80100  0.56000  0.19900  Biso   1.000  H
  H56      1.0000 0.19900  0.44000  0.80100  Biso   1.000  H
  H57      1.0000 0.84800  0.55600  0.09500  Biso   1.000  H
  H58      1.0000 0.15200  0.44400  0.90500  Biso   1.000  H
  C55      1.0000 0.48320  0.57540  0.94330  Biso   1.000  C
  C56      1.0000 0.51680  0.42460  0.05670  Biso   1.000  C
  H59      1.0000 0.48300  0.63100  0.91000  Biso   1.000  H
  H60      1.0000 0.51700  0.36900  0.09000  Biso   1.000  H
  F25      1.0000 0.84000  0.78940  0.22820  Biso   1.000  F
  F26      1.0000 0.16000  0.21060  0.77180  Biso   1.000  F
  F27      1.0000 0.96710  0.09810  0.69680  Biso   1.000  F
  F28      1.0000 0.03290  0.90190  0.30320  Biso   1.000  F
  F29      1.0000 0.86270  0.94030  0.33570  Biso   1.000  F
  F30      1.0000 0.13730  0.05970  0.66430  Biso   1.000  F
  F31      1.0000 0.19250  0.14000  0.47880  Biso   1.000  F
  F32      1.0000 0.80750  0.86000  0.52120  Biso   1.000  F
  F33      1.0000 0.03800  0.19700  0.50330  Biso   1.000  F
  F34      1.0000 0.96200  0.80300  0.49670  Biso   1.000  F
  F35      1.0000 0.06700  0.18700  0.35510  Biso   1.000  F
  F36      1.0000 0.93300  0.81300  0.64490  Biso   1.000  F
