data_image0
_cell_length_a       10.397
_cell_length_b       13.051
_cell_length_c       13.592
_cell_angle_alpha    100.557
_cell_angle_beta     102.376
_cell_angle_gamma    104.552

_symmetry_space_group_name_H-M    "P 1"
_symmetry_int_tables_number       1

loop_
  _symmetry_equiv_pos_as_xyz
  'x, y, z'

loop_
  _atom_site_label
  _atom_site_occupancy
  _atom_site_fract_x
  _atom_site_fract_y
  _atom_site_fract_z
  _atom_site_thermal_displace_type
  _atom_site_B_iso_or_equiv
  _atom_site_type_symbol
  Cu1      1.0000 0.50000  0.50000  0.50000  Biso   1.000  Cu
  O1       1.0000 0.32660  0.33956  0.45228  Biso   1.000  O
  O2       1.0000 0.67340  0.66044  0.54772  Biso   1.000  O
  C1       1.0000 0.12720  0.21320  0.45770  Biso   1.000  C
  C2       1.0000 0.87280  0.78680  0.54230  Biso   1.000  C
  F1       1.0000 0.04820  0.17780  0.36210  Biso   1.000  F
  F2       1.0000 0.95180  0.82220  0.63790  Biso   1.000  F
  F3       1.0000 0.19780  0.14570  0.46580  Biso   1.000  F
  F4       1.0000 0.80220  0.85430  0.53420  Biso   1.000  F
  F5       1.0000 0.04630  0.20120  0.50360  Biso   1.000  F
  F6       1.0000 0.95370  0.79880  0.49640  Biso   1.000  F
  C3       1.0000 0.22320  0.33060  0.48458  Biso   1.000  C
  C4       1.0000 0.77680  0.66940  0.51542  Biso   1.000  C
  C5       1.0000 0.18320  0.41360  0.53942  Biso   1.000  C
  C6       1.0000 0.81680  0.58640  0.46058  Biso   1.000  C
  H1       1.0000 0.10600  0.39500  0.56300  Biso   1.000  H
  H2       1.0000 0.89400  0.60500  0.43700  Biso   1.000  H
  C7       1.0000 0.25310  0.52201  0.55700  Biso   1.000  C
  C8       1.0000 0.74690  0.47799  0.44300  Biso   1.000  C
  C9       1.0000 0.20130  0.60530  0.61740  Biso   1.000  C
  C10      1.0000 0.79870  0.39470  0.38260  Biso   1.000  C
  F7       1.0000 0.29466  0.65843  0.70798  Biso   1.000  F
  F8       1.0000 0.70534  0.34157  0.29202  Biso   1.000  F
  F9       1.0000 0.08344  0.56292  0.63910  Biso   1.000  F
  F10      1.0000 0.91656  0.43708  0.36090  Biso   1.000  F
  F11      1.0000 0.18149  0.67977  0.56575  Biso   1.000  F
  F12      1.0000 0.81851  0.32023  0.43425  Biso   1.000  F
  O3       1.0000 0.35847  0.56655  0.53039  Biso   1.000  O
  O4       1.0000 0.64153  0.43345  0.46961  Biso   1.000  O
  Cu2      1.0000 0.00000  0.00000  0.00000  Biso   1.000  Cu
  O5       1.0000 0.14609  0.93304  0.99124  Biso   1.000  O
  O6       1.0000 0.85391  0.06696  0.00876  Biso   1.000  O
  C11      1.0000 0.30690  0.86650  0.92900  Biso   1.000  C
  C12      1.0000 0.69310  0.13350  0.07100  Biso   1.000  C
  F13      1.0000 0.39230  0.89353  0.02402  Biso   1.000  F
  F14      1.0000 0.60770  0.10647  0.97598  Biso   1.000  F
  F15      1.0000 0.38360  0.87556  0.86284  Biso   1.000  F
  F16      1.0000 0.61640  0.12444  0.13716  Biso   1.000  F
  F17      1.0000 0.23790  0.76214  0.91018  Biso   1.000  F
  F18      1.0000 0.76210  0.23786  0.08982  Biso   1.000  F
  C13      1.0000 0.20820  0.93572  0.92204  Biso   1.000  C
  C14      1.0000 0.79180  0.06428  0.07796  Biso   1.000  C
  C15      1.0000 0.19540  0.98920  0.84370  Biso   1.000  C
  C16      1.0000 0.80460  0.01080  0.15630  Biso   1.000  C
  H3       1.0000 0.24400  0.99000  0.80400  Biso   1.000  H
  H4       1.0000 0.75600  0.01000  0.19600  Biso   1.000  H
  C17      1.0000 0.10550  0.05127  0.83187  Biso   1.000  C
  C18      1.0000 0.89450  0.94873  0.16813  Biso   1.000  C
  C19      1.0000 0.09760  0.10860  0.74300  Biso   1.000  C
  C20      1.0000 0.90240  0.89140  0.25700  Biso   1.000  C
  F19      1.0000 0.97570  0.08180  0.68490  Biso   1.000  F
  F20      1.0000 0.02430  0.91820  0.31510  Biso   1.000  F
  F21      1.0000 0.13270  0.21470  0.77950  Biso   1.000  F
  F22      1.0000 0.86730  0.78530  0.22050  Biso   1.000  F
  F23      1.0000 0.18830  0.09990  0.69050  Biso   1.000  F
  F24      1.0000 0.81170  0.90010  0.30950  Biso   1.000  F
  O7       1.0000 0.02723  0.06912  0.88659  Biso   1.000  O
  O8       1.0000 0.97277  0.93088  0.11341  Biso   1.000  O
  O9       1.0000 0.47847  0.51478  0.35361  Biso   1.000  O
  O10      1.0000 0.52153  0.48522  0.64639  Biso   1.000  O
  N1       1.0000 0.37437  0.53433  0.29600  Biso   1.000  N
  N2       1.0000 0.62563  0.46567  0.70400  Biso   1.000  N
  C21      1.0000 0.38030  0.64734  0.28391  Biso   1.000  C
  C22      1.0000 0.61970  0.35266  0.71609  Biso   1.000  C
  C23      1.0000 0.48290  0.67500  0.22070  Biso   1.000  C
  C24      1.0000 0.51710  0.32500  0.77930  Biso   1.000  C
  H5       1.0000 0.45200  0.62500  0.15200  Biso   1.000  H
  H6       1.0000 0.54800  0.37500  0.84800  Biso   1.000  H
  H7       1.0000 0.57400  0.67200  0.25700  Biso   1.000  H
  H8       1.0000 0.42600  0.32800  0.74300  Biso   1.000  H
  H9       1.0000 0.49500  0.74700  0.21300  Biso   1.000  H
  H10      1.0000 0.50500  0.25300  0.78700  Biso   1.000  H
  C25      1.0000 0.43040  0.72898  0.38878  Biso   1.000  C
  C26      1.0000 0.56960  0.27102  0.61122  Biso   1.000  C
  H11      1.0000 0.37700  0.70900  0.43400  Biso   1.000  H
  H12      1.0000 0.62300  0.29100  0.56600  Biso   1.000  H
  H13      1.0000 0.42500  0.79700  0.37600  Biso   1.000  H
  H14      1.0000 0.57500  0.20300  0.62400  Biso   1.000  H
  H15      1.0000 0.52600  0.73500  0.42230  Biso   1.000  H
  H16      1.0000 0.47400  0.26500  0.57770  Biso   1.000  H
  C27      1.0000 0.22790  0.62790  0.22459  Biso   1.000  C
  C28      1.0000 0.77210  0.37210  0.77541  Biso   1.000  C
  C29      1.0000 0.20550  0.68910  0.14110  Biso   1.000  C
  C30      1.0000 0.79450  0.31090  0.85890  Biso   1.000  C
  H17      1.0000 0.25500  0.67500  0.09400  Biso   1.000  H
  H18      1.0000 0.74500  0.32500  0.90600  Biso   1.000  H
  H19      1.0000 0.23500  0.76400  0.17000  Biso   1.000  H
  H20      1.0000 0.76500  0.23600  0.83000  Biso   1.000  H
  H21      1.0000 0.11000  0.66400  0.10500  Biso   1.000  H
  H22      1.0000 0.89000  0.33600  0.89500  Biso   1.000  H
  C31      1.0000 0.13620  0.64110  0.29660  Biso   1.000  C
  C32      1.0000 0.86380  0.35890  0.70340  Biso   1.000  C
  H23      1.0000 0.14500  0.59700  0.35100  Biso   1.000  H
  H24      1.0000 0.85500  0.40300  0.64900  Biso   1.000  H
  H25      1.0000 0.04300  0.61000  0.25460  Biso   1.000  H
  H26      1.0000 0.95700  0.39000  0.74540  Biso   1.000  H
  H27      1.0000 0.15700  0.71900  0.33100  Biso   1.000  H
  H28      1.0000 0.84300  0.28100  0.66900  Biso   1.000  H
  N3       1.0000 0.18630  0.50799  0.17448  Biso   1.000  N
  N4       1.0000 0.81370  0.49201  0.82552  Biso   1.000  N
  O11      1.0000 0.07769  0.45982  0.10099  Biso   1.000  O
  O12      1.0000 0.92231  0.54018  0.89901  Biso   1.000  O
  C33      1.0000 0.27000  0.45800  0.22389  Biso   1.000  C
  C34      1.0000 0.73000  0.54200  0.77611  Biso   1.000  C
  C35      1.0000 0.24880  0.34290  0.20006  Biso   1.000  C
  C36      1.0000 0.75120  0.65710  0.79994  Biso   1.000  C
  C37      1.0000 0.13620  0.26029  0.12831  Biso   1.000  C
  C38      1.0000 0.86380  0.73971  0.87169  Biso   1.000  C
  H29      1.0000 0.06000  0.26690  0.08640  Biso   1.000  H
  H30      1.0000 0.94000  0.73310  0.91360  Biso   1.000  H
  N5       1.0000 0.15180  0.16299  0.12668  Biso   1.000  N
  N6       1.0000 0.84820  0.83701  0.87332  Biso   1.000  N
  N7       1.0000 0.27489  0.18162  0.19781  Biso   1.000  N
  N8       1.0000 0.72511  0.81838  0.80219  Biso   1.000  N
  C39      1.0000 0.32020  0.08820  0.21810  Biso   1.000  C
  C40      1.0000 0.67980  0.91180  0.78190  Biso   1.000  C
  H31      1.0000 0.24600  0.03900  0.23100  Biso   1.000  H
  H32      1.0000 0.75400  0.96100  0.76900  Biso   1.000  H
  H33      1.0000 0.34200  0.05100  0.15600  Biso   1.000  H
  H34      1.0000 0.65800  0.94900  0.84400  Biso   1.000  H
  C41      1.0000 0.44420  0.11745  0.30921  Biso   1.000  C
  C42      1.0000 0.55580  0.88255  0.69079  Biso   1.000  C
  H35      1.0000 0.42500  0.15000  0.37100  Biso   1.000  H
  H36      1.0000 0.57500  0.85000  0.62900  Biso   1.000  H
  H37      1.0000 0.51900  0.16700  0.29400  Biso   1.000  H
  H38      1.0000 0.48100  0.83300  0.70600  Biso   1.000  H
  C43      1.0000 0.48540  0.01650  0.32420  Biso   1.000  C
  C44      1.0000 0.51460  0.98350  0.67580  Biso   1.000  C
  H39      1.0000 0.41100  0.96800  0.33900  Biso   1.000  H
  H40      1.0000 0.58900  0.03200  0.66100  Biso   1.000  H
  H41      1.0000 0.49100  0.97400  0.25400  Biso   1.000  H
  H42      1.0000 0.50900  0.02600  0.74600  Biso   1.000  H
  C45      1.0000 0.61770  0.04140  0.40850  Biso   1.000  C
  C46      1.0000 0.38230  0.95860  0.59150  Biso   1.000  C
  H43      1.0000 0.64400  0.97500  0.41900  Biso   1.000  H
  H44      1.0000 0.35600  0.02500  0.58100  Biso   1.000  H
  H45      1.0000 0.61700  0.07800  0.47400  Biso   1.000  H
  H46      1.0000 0.38300  0.92200  0.52600  Biso   1.000  H
  H47      1.0000 0.69700  0.09300  0.39600  Biso   1.000  H
  H48      1.0000 0.30300  0.90700  0.60400  Biso   1.000  H
  C47      1.0000 0.33520  0.28764  0.24234  Biso   1.000  C
  C48      1.0000 0.66480  0.71236  0.75766  Biso   1.000  C
  H49      1.0000 0.41900  0.31070  0.28770  Biso   1.000  H
  H50      1.0000 0.58100  0.68930  0.71230  Biso   1.000  H
  C49      1.0000 0.61150  0.58270  0.00163  Biso   1.000  C
  C50      1.0000 0.38850  0.41730  0.99837  Biso   1.000  C
  H51      1.0000 0.68300  0.63700  0.00170  Biso   1.000  H
  H52      1.0000 0.31700  0.36300  0.99830  Biso   1.000  H
  C51      1.0000 0.63250  0.50860  0.05934  Biso   1.000  C
  C52      1.0000 0.36750  0.49140  0.94066  Biso   1.000  C
  C53      1.0000 0.77470  0.51960  0.12370  Biso   1.000  C
  C54      1.0000 0.22530  0.48040  0.87630  Biso   1.000  C
  H53      1.0000 0.78500  0.44900  0.12700  Biso   1.000  H
  H54      1.0000 0.21500  0.55100  0.87300  Biso   1.000  H
  H55      1.0000 0.79900  0.56400  0.19300  Biso   1.000  H
  H56      1.0000 0.20100  0.43600  0.80700  Biso   1.000  H
  H57      1.0000 0.83800  0.54600  0.08500  Biso   1.000  H
  H58      1.0000 0.16200  0.45400  0.91500  Biso   1.000  H
  C55      1.0000 0.48110  0.57470  0.94340  Biso   1.000  C
  C56      1.0000 0.51890  0.42530  0.05660  Biso   1.000  C
  H59      1.0000 0.47300  0.62900  0.90700  Biso   1.000  H
  H60      1.0000 0.52700  0.37100  0.09300  Biso   1.000  H
  F25      1.0000 0.83170  0.79390  0.22720  Biso   1.000  F
  F26      1.0000 0.16830  0.20610  0.77280  Biso   1.000  F
  F27      1.0000 0.96940  0.10360  0.69960  Biso   1.000  F
  F28      1.0000 0.03060  0.89640  0.30040  Biso   1.000  F
  F29      1.0000 0.87400  0.94710  0.33810  Biso   1.000  F
  F30      1.0000 0.12600  0.05290  0.66190  Biso   1.000  F
  F31      1.0000 0.19660  0.14350  0.48380  Biso   1.000  F
  F32      1.0000 0.80340  0.85650  0.51620  Biso   1.000  F
  F33      1.0000 0.02360  0.19760  0.51460  Biso   1.000  F
  F34      1.0000 0.97640  0.80240  0.48540  Biso   1.000  F
  F35      1.0000 0.07400  0.18710  0.35460  Biso   1.000  F
  F36      1.0000 0.92600  0.81290  0.64540  Biso   1.000  F
