data_image0
_cell_length_a       10.479
_cell_length_b       13.082
_cell_length_c       13.754
_cell_angle_alpha    100.494
_cell_angle_beta     102.617
_cell_angle_gamma    104.481

_symmetry_space_group_name_H-M    "P 1"
_symmetry_int_tables_number       1

loop_
  _symmetry_equiv_pos_as_xyz
  'x, y, z'

loop_
  _atom_site_label
  _atom_site_occupancy
  _atom_site_fract_x
  _atom_site_fract_y
  _atom_site_fract_z
  _atom_site_thermal_displace_type
  _atom_site_B_iso_or_equiv
  _atom_site_type_symbol
  Cu1      1.0000 0.50000  0.50000  0.50000  Biso   1.000  Cu
  O1       1.0000 0.33780  0.34807  0.45631  Biso   1.000  O
  O2       1.0000 0.66220  0.65193  0.54369  Biso   1.000  O
  C1       1.0000 0.14180  0.21870  0.45850  Biso   1.000  C
  C2       1.0000 0.85820  0.78130  0.54150  Biso   1.000  C
  F1       1.0000 0.05630  0.18810  0.36720  Biso   1.000  F
  F2       1.0000 0.94370  0.81190  0.63280  Biso   1.000  F
  F3       1.0000 0.21100  0.15330  0.46400  Biso   1.000  F
  F4       1.0000 0.78900  0.84670  0.53600  Biso   1.000  F
  F5       1.0000 0.03450  0.19900  0.51360  Biso   1.000  F
  F6       1.0000 0.96550  0.80100  0.48640  Biso   1.000  F
  C3       1.0000 0.23310  0.33580  0.48600  Biso   1.000  C
  C4       1.0000 0.76690  0.66420  0.51400  Biso   1.000  C
  C5       1.0000 0.18970  0.41700  0.53880  Biso   1.000  C
  C6       1.0000 0.81030  0.58300  0.46120  Biso   1.000  C
  H1       1.0000 0.10980  0.39590  0.56140  Biso   1.000  H
  H2       1.0000 0.89020  0.60410  0.43860  Biso   1.000  H
  C7       1.0000 0.25850  0.52550  0.55890  Biso   1.000  C
  C8       1.0000 0.74150  0.47450  0.44110  Biso   1.000  C
  C9       1.0000 0.20260  0.60720  0.61590  Biso   1.000  C
  C10      1.0000 0.79740  0.39280  0.38410  Biso   1.000  C
  F7       1.0000 0.29290  0.66084  0.70635  Biso   1.000  F
  F8       1.0000 0.70710  0.33916  0.29365  Biso   1.000  F
  F9       1.0000 0.08560  0.56305  0.63532  Biso   1.000  F
  F10      1.0000 0.91440  0.43695  0.36468  Biso   1.000  F
  F11      1.0000 0.18200  0.67928  0.56362  Biso   1.000  F
  F12      1.0000 0.81800  0.32072  0.43638  Biso   1.000  F
  O3       1.0000 0.36549  0.57150  0.53673  Biso   1.000  O
  O4       1.0000 0.63451  0.42850  0.46327  Biso   1.000  O
  Cu2      1.0000 0.00000  0.00000  0.00000  Biso   1.000  Cu
  O5       1.0000 0.14470  0.93302  0.99145  Biso   1.000  O
  O6       1.0000 0.85530  0.06698  0.00855  Biso   1.000  O
  C11      1.0000 0.30440  0.86590  0.93060  Biso   1.000  C
  C12      1.0000 0.69560  0.13410  0.06940  Biso   1.000  C
  F13      1.0000 0.38720  0.89100  0.02525  Biso   1.000  F
  F14      1.0000 0.61280  0.10900  0.97475  Biso   1.000  F
  F15      1.0000 0.38150  0.87552  0.86698  Biso   1.000  F
  F16      1.0000 0.61850  0.12448  0.13302  Biso   1.000  F
  F17      1.0000 0.23690  0.76204  0.91114  Biso   1.000  F
  F18      1.0000 0.76310  0.23796  0.08886  Biso   1.000  F
  C13      1.0000 0.20580  0.93470  0.92290  Biso   1.000  C
  C14      1.0000 0.79420  0.06530  0.07710  Biso   1.000  C
  C15      1.0000 0.19270  0.98760  0.84510  Biso   1.000  C
  C16      1.0000 0.80730  0.01240  0.15490  Biso   1.000  C
  H3       1.0000 0.24640  0.98100  0.79820  Biso   1.000  H
  H4       1.0000 0.75360  0.01900  0.20180  Biso   1.000  H
  C17      1.0000 0.10430  0.04990  0.83280  Biso   1.000  C
  C18      1.0000 0.89570  0.95010  0.16720  Biso   1.000  C
  C19      1.0000 0.09750  0.10630  0.74460  Biso   1.000  C
  C20      1.0000 0.90250  0.89370  0.25540  Biso   1.000  C
  F19      1.0000 0.97870  0.07670  0.68450  Biso   1.000  F
  F20      1.0000 0.02130  0.92330  0.31550  Biso   1.000  F
  F21      1.0000 0.12300  0.21020  0.78000  Biso   1.000  F
  F22      1.0000 0.87700  0.78980  0.22000  Biso   1.000  F
  F23      1.0000 0.19170  0.10140  0.69690  Biso   1.000  F
  F24      1.0000 0.80830  0.89860  0.30310  Biso   1.000  F
  O7       1.0000 0.02630  0.06833  0.88639  Biso   1.000  O
  O8       1.0000 0.97370  0.93167  0.11361  Biso   1.000  O
  O9       1.0000 0.47345  0.51523  0.34849  Biso   1.000  O
  O10      1.0000 0.52655  0.48477  0.65151  Biso   1.000  O
  N1       1.0000 0.36980  0.53380  0.29125  Biso   1.000  N
  N2       1.0000 0.63020  0.46620  0.70875  Biso   1.000  N
  C21      1.0000 0.37220  0.64640  0.28000  Biso   1.000  C
  C22      1.0000 0.62780  0.35360  0.72000  Biso   1.000  C
  C23      1.0000 0.47310  0.67640  0.21760  Biso   1.000  C
  C24      1.0000 0.52690  0.32360  0.78240  Biso   1.000  C
  H5       1.0000 0.56660  0.68840  0.25960  Biso   1.000  H
  H6       1.0000 0.43340  0.31160  0.74040  Biso   1.000  H
  H7       1.0000 0.46640  0.74310  0.19690  Biso   1.000  H
  H8       1.0000 0.53360  0.25690  0.80310  Biso   1.000  H
  H9       1.0000 0.45120  0.61690  0.15610  Biso   1.000  H
  H10      1.0000 0.54880  0.38310  0.84390  Biso   1.000  H
  C25      1.0000 0.42170  0.72690  0.38450  Biso   1.000  C
  C26      1.0000 0.57830  0.27310  0.61550  Biso   1.000  C
  H11      1.0000 0.51840  0.73510  0.41550  Biso   1.000  H
  H12      1.0000 0.48160  0.26490  0.58450  Biso   1.000  H
  H13      1.0000 0.36690  0.70010  0.42900  Biso   1.000  H
  H14      1.0000 0.63310  0.29990  0.57100  Biso   1.000  H
  H15      1.0000 0.41190  0.79770  0.37650  Biso   1.000  H
  H16      1.0000 0.58810  0.20230  0.62350  Biso   1.000  H
  C27      1.0000 0.22180  0.62550  0.22190  Biso   1.000  C
  C28      1.0000 0.77820  0.37450  0.77810  Biso   1.000  C
  C29      1.0000 0.19500  0.68610  0.13930  Biso   1.000  C
  C30      1.0000 0.80500  0.31390  0.86070  Biso   1.000  C
  H17      1.0000 0.25400  0.67740  0.09400  Biso   1.000  H
  H18      1.0000 0.74600  0.32260  0.90600  Biso   1.000  H
  H19      1.0000 0.21520  0.76370  0.17160  Biso   1.000  H
  H20      1.0000 0.78480  0.23630  0.82840  Biso   1.000  H
  H21      1.0000 0.09860  0.65640  0.09880  Biso   1.000  H
  H22      1.0000 0.90140  0.34360  0.90120  Biso   1.000  H
  C31      1.0000 0.12940  0.63670  0.29380  Biso   1.000  C
  C32      1.0000 0.87060  0.36330  0.70620  Biso   1.000  C
  H23      1.0000 0.03500  0.62240  0.25260  Biso   1.000  H
  H24      1.0000 0.96500  0.37760  0.74740  Biso   1.000  H
  H25      1.0000 0.16250  0.71070  0.33870  Biso   1.000  H
  H26      1.0000 0.83750  0.28930  0.66130  Biso   1.000  H
  H27      1.0000 0.13210  0.58390  0.33600  Biso   1.000  H
  H28      1.0000 0.86790  0.41610  0.66400  Biso   1.000  H
  N3       1.0000 0.18150  0.50588  0.17220  Biso   1.000  N
  N4       1.0000 0.81850  0.49412  0.82780  Biso   1.000  N
  O11      1.0000 0.07230  0.45731  0.10030  Biso   1.000  O
  O12      1.0000 0.92770  0.54269  0.89970  Biso   1.000  O
  C33      1.0000 0.26640  0.45760  0.22070  Biso   1.000  C
  C34      1.0000 0.73360  0.54240  0.77930  Biso   1.000  C
  C35      1.0000 0.24590  0.34160  0.19660  Biso   1.000  C
  C36      1.0000 0.75410  0.65840  0.80340  Biso   1.000  C
  C37      1.0000 0.13560  0.25910  0.12460  Biso   1.000  C
  C38      1.0000 0.86440  0.74090  0.87540  Biso   1.000  C
  H29      1.0000 0.05920  0.27130  0.08220  Biso   1.000  H
  H30      1.0000 0.94080  0.72870  0.91780  Biso   1.000  H
  N5       1.0000 0.15220  0.16258  0.12375  Biso   1.000  N
  N6       1.0000 0.84780  0.83742  0.87625  Biso   1.000  N
  N7       1.0000 0.27350  0.18181  0.19554  Biso   1.000  N
  N8       1.0000 0.72650  0.81819  0.80446  Biso   1.000  N
  C39      1.0000 0.31870  0.08900  0.21730  Biso   1.000  C
  C40      1.0000 0.68130  0.91100  0.78270  Biso   1.000  C
  H31      1.0000 0.33760  0.05160  0.15520  Biso   1.000  H
  H32      1.0000 0.66240  0.94840  0.84480  Biso   1.000  H
  H33      1.0000 0.24280  0.03670  0.23120  Biso   1.000  H
  H34      1.0000 0.75720  0.96330  0.76880  Biso   1.000  H
  C41      1.0000 0.44230  0.11800  0.30530  Biso   1.000  C
  C42      1.0000 0.55770  0.88200  0.69470  Biso   1.000  C
  H35      1.0000 0.42400  0.15430  0.36820  Biso   1.000  H
  H36      1.0000 0.57600  0.84570  0.63180  Biso   1.000  H
  H37      1.0000 0.51910  0.17010  0.29210  Biso   1.000  H
  H38      1.0000 0.48090  0.82990  0.70790  Biso   1.000  H
  C43      1.0000 0.48300  0.01770  0.32250  Biso   1.000  C
  C44      1.0000 0.51700  0.98230  0.67750  Biso   1.000  C
  H39      1.0000 0.40830  0.96850  0.34060  Biso   1.000  H
  H40      1.0000 0.59170  0.03150  0.65940  Biso   1.000  H
  H41      1.0000 0.49280  0.97820  0.25720  Biso   1.000  H
  H42      1.0000 0.50720  0.02180  0.74280  Biso   1.000  H
  C45      1.0000 0.61530  0.04280  0.40610  Biso   1.000  C
  C46      1.0000 0.38470  0.95720  0.59390  Biso   1.000  C
  H43      1.0000 0.63530  0.97470  0.41280  Biso   1.000  H
  H44      1.0000 0.36470  0.02530  0.58720  Biso   1.000  H
  H45      1.0000 0.60580  0.08000  0.47160  Biso   1.000  H
  H46      1.0000 0.39420  0.92000  0.52840  Biso   1.000  H
  H47      1.0000 0.69050  0.09010  0.38820  Biso   1.000  H
  H48      1.0000 0.30950  0.90990  0.61180  Biso   1.000  H
  C47      1.0000 0.33200  0.28760  0.24020  Biso   1.000  C
  C48      1.0000 0.66800  0.71240  0.75980  Biso   1.000  C
  H49      1.0000 0.41670  0.31990  0.29210  Biso   1.000  H
  H50      1.0000 0.58330  0.68010  0.70790  Biso   1.000  H
  C49      1.0000 0.61050  0.58230  0.00450  Biso   1.000  C
  C50      1.0000 0.38950  0.41770  0.99550  Biso   1.000  C
  H51      1.0000 0.68760  0.64060  0.00730  Biso   1.000  H
  H52      1.0000 0.31240  0.35940  0.99270  Biso   1.000  H
  C51      1.0000 0.62850  0.50800  0.06020  Biso   1.000  C
  C52      1.0000 0.37150  0.49200  0.93980  Biso   1.000  C
  C53      1.0000 0.77090  0.52170  0.12870  Biso   1.000  C
  C54      1.0000 0.22910  0.47830  0.87130  Biso   1.000  C
  H53      1.0000 0.76600  0.46200  0.16310  Biso   1.000  H
  H54      1.0000 0.23400  0.53800  0.83690  Biso   1.000  H
  H55      1.0000 0.80290  0.59150  0.18060  Biso   1.000  H
  H56      1.0000 0.19710  0.40850  0.81940  Biso   1.000  H
  H57      1.0000 0.83490  0.52030  0.08650  Biso   1.000  H
  H58      1.0000 0.16510  0.47970  0.91350  Biso   1.000  H
  C55      1.0000 0.48350  0.57450  0.94480  Biso   1.000  C
  C56      1.0000 0.51650  0.42550  0.05520  Biso   1.000  C
  H59      1.0000 0.47360  0.62710  0.90670  Biso   1.000  H
  H60      1.0000 0.52640  0.37290  0.09330  Biso   1.000  H
  F25      1.0000 0.81700  0.80150  0.23020  Biso   1.000  F
  F26      1.0000 0.18300  0.19850  0.76980  Biso   1.000  F
  F27      1.0000 0.97580  0.11310  0.70690  Biso   1.000  F
  F28      1.0000 0.02420  0.88690  0.29310  Biso   1.000  F
  F29      1.0000 0.88900  0.95440  0.33810  Biso   1.000  F
  F30      1.0000 0.11100  0.04560  0.66190  Biso   1.000  F
  F31      1.0000 0.20800  0.15260  0.49140  Biso   1.000  F
  F32      1.0000 0.79200  0.84740  0.50860  Biso   1.000  F
  F33      1.0000 0.05890  0.20740  0.49780  Biso   1.000  F
  F34      1.0000 0.94110  0.79260  0.50220  Biso   1.000  F
  F35      1.0000 0.10170  0.18710  0.35500  Biso   1.000  F
  F36      1.0000 0.89830  0.81290  0.64500  Biso   1.000  F
