data_image0
_cell_length_a       10.527
_cell_length_b       13.119
_cell_length_c       13.907
_cell_angle_alpha    100.497
_cell_angle_beta     102.83
_cell_angle_gamma    104.479

_symmetry_space_group_name_H-M    "P 1"
_symmetry_int_tables_number       1

loop_
  _symmetry_equiv_pos_as_xyz
  'x, y, z'

loop_
  _atom_site_label
  _atom_site_occupancy
  _atom_site_fract_x
  _atom_site_fract_y
  _atom_site_fract_z
  _atom_site_thermal_displace_type
  _atom_site_B_iso_or_equiv
  _atom_site_type_symbol
  Cu1      1.0000 0.50000  0.50000  0.50000  Biso   1.000  Cu
  O1       1.0000 0.34610  0.35400  0.46030  Biso   1.000  O
  O2       1.0000 0.65390  0.64600  0.53970  Biso   1.000  O
  C1       1.0000 0.15100  0.22240  0.45870  Biso   1.000  C
  C2       1.0000 0.84900  0.77760  0.54130  Biso   1.000  C
  F1       1.0000 0.07000  0.20260  0.37080  Biso   1.000  F
  F2       1.0000 0.93000  0.79740  0.62920  Biso   1.000  F
  F3       1.0000 0.22300  0.15930  0.46490  Biso   1.000  F
  F4       1.0000 0.77700  0.84070  0.53510  Biso   1.000  F
  F5       1.0000 0.06800  0.19900  0.51000  Biso   1.000  F
  F6       1.0000 0.93200  0.80100  0.49000  Biso   1.000  F
  C3       1.0000 0.24010  0.34070  0.48760  Biso   1.000  C
  C4       1.0000 0.75990  0.65930  0.51240  Biso   1.000  C
  C5       1.0000 0.19450  0.41960  0.53870  Biso   1.000  C
  C6       1.0000 0.80550  0.58040  0.46130  Biso   1.000  C
  H1       1.0000 0.11390  0.39780  0.55820  Biso   1.000  H
  H2       1.0000 0.88610  0.60220  0.44180  Biso   1.000  H
  C7       1.0000 0.26480  0.52920  0.56150  Biso   1.000  C
  C8       1.0000 0.73520  0.47080  0.43850  Biso   1.000  C
  C9       1.0000 0.20630  0.60860  0.61630  Biso   1.000  C
  C10      1.0000 0.79370  0.39140  0.38370  Biso   1.000  C
  F7       1.0000 0.30800  0.66800  0.71630  Biso   1.000  F
  F8       1.0000 0.69200  0.33200  0.28370  Biso   1.000  F
  F9       1.0000 0.08900  0.56410  0.63340  Biso   1.000  F
  F10      1.0000 0.91100  0.43590  0.36660  Biso   1.000  F
  F11      1.0000 0.19800  0.68500  0.58150  Biso   1.000  F
  F12      1.0000 0.80200  0.31500  0.41850  Biso   1.000  F
  O3       1.0000 0.37080  0.57430  0.54070  Biso   1.000  O
  O4       1.0000 0.62920  0.42570  0.45930  Biso   1.000  O
  Cu2      1.0000 0.00000  0.00000  0.00000  Biso   1.000  Cu
  O5       1.0000 0.14470  0.93340  0.99200  Biso   1.000  O
  O6       1.0000 0.85530  0.06660  0.00800  Biso   1.000  O
  C11      1.0000 0.30400  0.86660  0.93260  Biso   1.000  C
  C12      1.0000 0.69600  0.13340  0.06740  Biso   1.000  C
  F13      1.0000 0.38380  0.88970  0.02510  Biso   1.000  F
  F14      1.0000 0.61620  0.11030  0.97490  Biso   1.000  F
  F15      1.0000 0.38050  0.87630  0.87060  Biso   1.000  F
  F16      1.0000 0.61950  0.12370  0.12940  Biso   1.000  F
  F17      1.0000 0.23400  0.76200  0.91020  Biso   1.000  F
  F18      1.0000 0.76600  0.23800  0.08980  Biso   1.000  F
  C13      1.0000 0.20550  0.93510  0.92480  Biso   1.000  C
  C14      1.0000 0.79450  0.06490  0.07520  Biso   1.000  C
  C15      1.0000 0.19200  0.98710  0.84760  Biso   1.000  C
  C16      1.0000 0.80800  0.01290  0.15240  Biso   1.000  C
  H3       1.0000 0.24520  0.98050  0.80210  Biso   1.000  H
  H4       1.0000 0.75480  0.01950  0.19790  Biso   1.000  H
  C17      1.0000 0.10280  0.04940  0.83370  Biso   1.000  C
  C18      1.0000 0.89720  0.95060  0.16630  Biso   1.000  C
  C19      1.0000 0.09590  0.10390  0.74590  Biso   1.000  C
  C20      1.0000 0.90410  0.89610  0.25410  Biso   1.000  C
  F19      1.0000 0.97500  0.07700  0.68670  Biso   1.000  F
  F20      1.0000 0.02500  0.92300  0.31330  Biso   1.000  F
  F21      1.0000 0.11800  0.20780  0.77830  Biso   1.000  F
  F22      1.0000 0.88200  0.79220  0.22170  Biso   1.000  F
  F23      1.0000 0.18400  0.09400  0.69600  Biso   1.000  F
  F24      1.0000 0.81600  0.90600  0.30400  Biso   1.000  F
  O7       1.0000 0.02500  0.06770  0.88640  Biso   1.000  O
  O8       1.0000 0.97500  0.93230  0.11360  Biso   1.000  O
  O9       1.0000 0.46840  0.51540  0.34460  Biso   1.000  O
  O10      1.0000 0.53160  0.48460  0.65540  Biso   1.000  O
  N1       1.0000 0.36440  0.53250  0.28710  Biso   1.000  N
  N2       1.0000 0.63560  0.46750  0.71290  Biso   1.000  N
  C21      1.0000 0.36540  0.64480  0.27560  Biso   1.000  C
  C22      1.0000 0.63460  0.35520  0.72440  Biso   1.000  C
  C23      1.0000 0.46540  0.67660  0.21490  Biso   1.000  C
  C24      1.0000 0.53460  0.32340  0.78510  Biso   1.000  C
  H5       1.0000 0.43370  0.62620  0.14810  Biso   1.000  H
  H6       1.0000 0.56630  0.37380  0.85190  Biso   1.000  H
  H7       1.0000 0.55470  0.67430  0.25030  Biso   1.000  H
  H8       1.0000 0.44530  0.32570  0.74970  Biso   1.000  H
  H9       1.0000 0.47180  0.74970  0.20750  Biso   1.000  H
  H10      1.0000 0.52820  0.25030  0.79250  Biso   1.000  H
  C25      1.0000 0.41430  0.72420  0.38080  Biso   1.000  C
  C26      1.0000 0.58570  0.27580  0.61920  Biso   1.000  C
  H11      1.0000 0.51010  0.73340  0.41100  Biso   1.000  H
  H12      1.0000 0.48990  0.26660  0.58900  Biso   1.000  H
  H13      1.0000 0.36100  0.69570  0.42390  Biso   1.000  H
  H14      1.0000 0.63900  0.30430  0.57610  Biso   1.000  H
  H15      1.0000 0.40280  0.79390  0.37420  Biso   1.000  H
  H16      1.0000 0.59720  0.20610  0.62580  Biso   1.000  H
  C27      1.0000 0.21610  0.62320  0.21920  Biso   1.000  C
  C28      1.0000 0.78390  0.37680  0.78080  Biso   1.000  C
  C29      1.0000 0.19030  0.68400  0.13820  Biso   1.000  C
  C30      1.0000 0.80970  0.31600  0.86180  Biso   1.000  C
  H17      1.0000 0.24740  0.67440  0.09340  Biso   1.000  H
  H18      1.0000 0.75260  0.32560  0.90660  Biso   1.000  H
  H19      1.0000 0.21210  0.76080  0.17020  Biso   1.000  H
  H20      1.0000 0.78790  0.23920  0.82980  Biso   1.000  H
  H21      1.0000 0.09490  0.65590  0.09890  Biso   1.000  H
  H22      1.0000 0.90510  0.34410  0.90110  Biso   1.000  H
  C31      1.0000 0.12420  0.63270  0.29110  Biso   1.000  C
  C32      1.0000 0.87580  0.36730  0.70890  Biso   1.000  C
  H23      1.0000 0.14250  0.59210  0.34140  Biso   1.000  H
  H24      1.0000 0.85750  0.40790  0.65860  Biso   1.000  H
  H25      1.0000 0.02890  0.60350  0.25160  Biso   1.000  H
  H26      1.0000 0.97110  0.39650  0.74840  Biso   1.000  H
  H27      1.0000 0.14360  0.70860  0.32520  Biso   1.000  H
  H28      1.0000 0.85640  0.29140  0.67480  Biso   1.000  H
  N3       1.0000 0.17610  0.50320  0.16820  Biso   1.000  N
  N4       1.0000 0.82390  0.49680  0.83180  Biso   1.000  N
  O11      1.0000 0.06660  0.45420  0.09780  Biso   1.000  O
  O12      1.0000 0.93340  0.54580  0.90220  Biso   1.000  O
  C33      1.0000 0.26330  0.45670  0.21700  Biso   1.000  C
  C34      1.0000 0.73670  0.54330  0.78300  Biso   1.000  C
  C35      1.0000 0.24390  0.34040  0.19400  Biso   1.000  C
  C36      1.0000 0.75610  0.65960  0.80600  Biso   1.000  C
  C37      1.0000 0.13360  0.25780  0.12080  Biso   1.000  C
  C38      1.0000 0.86640  0.74220  0.87920  Biso   1.000  C
  H29      1.0000 0.05870  0.26970  0.07820  Biso   1.000  H
  H30      1.0000 0.94130  0.73030  0.92180  Biso   1.000  H
  N5       1.0000 0.15140  0.16150  0.12100  Biso   1.000  N
  N6       1.0000 0.84860  0.83850  0.87900  Biso   1.000  N
  N7       1.0000 0.27230  0.18190  0.19370  Biso   1.000  N
  N8       1.0000 0.72770  0.81810  0.80630  Biso   1.000  N
  C39      1.0000 0.31920  0.09070  0.21800  Biso   1.000  C
  C40      1.0000 0.68080  0.90930  0.78200  Biso   1.000  C
  H31      1.0000 0.24410  0.03950  0.23180  Biso   1.000  H
  H32      1.0000 0.75590  0.96050  0.76820  Biso   1.000  H
  H33      1.0000 0.33710  0.05280  0.15730  Biso   1.000  H
  H34      1.0000 0.66290  0.94720  0.84270  Biso   1.000  H
  C41      1.0000 0.43800  0.11660  0.30180  Biso   1.000  C
  C42      1.0000 0.56200  0.88340  0.69820  Biso   1.000  C
  H35      1.0000 0.42100  0.15330  0.36350  Biso   1.000  H
  H36      1.0000 0.57900  0.84670  0.63650  Biso   1.000  H
  H37      1.0000 0.51430  0.16720  0.28880  Biso   1.000  H
  H38      1.0000 0.48570  0.83280  0.71120  Biso   1.000  H
  C43      1.0000 0.47800  0.01790  0.32020  Biso   1.000  C
  C44      1.0000 0.52200  0.98210  0.67980  Biso   1.000  C
  H39      1.0000 0.40450  0.97030  0.33860  Biso   1.000  H
  H40      1.0000 0.59550  0.02970  0.66140  Biso   1.000  H
  H41      1.0000 0.48680  0.97780  0.25650  Biso   1.000  H
  H42      1.0000 0.51320  0.02220  0.74350  Biso   1.000  H
  C45      1.0000 0.61030  0.04360  0.40300  Biso   1.000  C
  C46      1.0000 0.38970  0.95640  0.59700  Biso   1.000  C
  H43      1.0000 0.62970  0.97650  0.41040  Biso   1.000  H
  H44      1.0000 0.37030  0.02350  0.58960  Biso   1.000  H
  H45      1.0000 0.60180  0.08150  0.46690  Biso   1.000  H
  H46      1.0000 0.39820  0.91850  0.53310  Biso   1.000  H
  H47      1.0000 0.68430  0.08940  0.38470  Biso   1.000  H
  H48      1.0000 0.31570  0.91060  0.61530  Biso   1.000  H
  C47      1.0000 0.32830  0.28730  0.23790  Biso   1.000  C
  C48      1.0000 0.67170  0.71270  0.76210  Biso   1.000  C
  H49      1.0000 0.41080  0.31970  0.28990  Biso   1.000  H
  H50      1.0000 0.58920  0.68030  0.71010  Biso   1.000  H
  C49      1.0000 0.61170  0.58200  0.00920  Biso   1.000  C
  C50      1.0000 0.38830  0.41800  0.99080  Biso   1.000  C
  H51      1.0000 0.68890  0.63990  0.01500  Biso   1.000  H
  H52      1.0000 0.31110  0.36010  0.98500  Biso   1.000  H
  C51      1.0000 0.62550  0.50560  0.06170  Biso   1.000  C
  C52      1.0000 0.37450  0.49440  0.93830  Biso   1.000  C
  C53      1.0000 0.76650  0.52190  0.13480  Biso   1.000  C
  C54      1.0000 0.23350  0.47810  0.86520  Biso   1.000  C
  H53      1.0000 0.76160  0.46170  0.16680  Biso   1.000  H
  H54      1.0000 0.23840  0.53830  0.83320  Biso   1.000  H
  H55      1.0000 0.79280  0.58950  0.18680  Biso   1.000  H
  H56      1.0000 0.20720  0.41050  0.81320  Biso   1.000  H
  H57      1.0000 0.83370  0.52460  0.09690  Biso   1.000  H
  H58      1.0000 0.16630  0.47540  0.90310  Biso   1.000  H
  C55      1.0000 0.48890  0.57600  0.94870  Biso   1.000  C
  C56      1.0000 0.51110  0.42400  0.05130  Biso   1.000  C
  H59      1.0000 0.48270  0.62960  0.91290  Biso   1.000  H
  H60      1.0000 0.51730  0.37040  0.08710  Biso   1.000  H
  F25      1.0000 0.80200  0.80870  0.22830  Biso   1.000  F
  F26      1.0000 0.19800  0.19130  0.77170  Biso   1.000  F
  F27      1.0000 0.98400  0.12400  0.71600  Biso   1.000  F
  F28      1.0000 0.01600  0.87600  0.28400  Biso   1.000  F
  F29      1.0000 0.90400  0.96040  0.33780  Biso   1.000  F
  F30      1.0000 0.09600  0.03960  0.66220  Biso   1.000  F
  F31      1.0000 0.21200  0.15700  0.50100  Biso   1.000  F
  F32      1.0000 0.78800  0.84300  0.49900  Biso   1.000  F
  F33      1.0000 0.04300  0.21300  0.50100  Biso   1.000  F
  F34      1.0000 0.95700  0.78700  0.49900  Biso   1.000  F
  F35      1.0000 0.11400  0.18020  0.36120  Biso   1.000  F
  F36      1.0000 0.88600  0.81980  0.63880  Biso   1.000  F
  F37      1.0000 0.17100  0.67300  0.54550  Biso   1.000  F
  F38      1.0000 0.82900  0.32700  0.45450  Biso   1.000  F
  F39      1.0000 0.27500  0.66100  0.68940  Biso   1.000  F
  F40      1.0000 0.72500  0.33900  0.31060  Biso   1.000  F
