data_image0
_cell_length_a       10.82
_cell_length_b       13.513
_cell_length_c       14.073
_cell_angle_alpha    76.63
_cell_angle_beta     67.51
_cell_angle_gamma    85.26

_symmetry_space_group_name_H-M    "P 1"
_symmetry_int_tables_number       1

loop_
  _symmetry_equiv_pos_as_xyz
  'x, y, z'

loop_
  _atom_site_label
  _atom_site_occupancy
  _atom_site_fract_x
  _atom_site_fract_y
  _atom_site_fract_z
  _atom_site_thermal_displace_type
  _atom_site_B_iso_or_equiv
  _atom_site_type_symbol
  Cu1      1.0000 0.00000  0.50000  0.00000  Biso   1.000  Cu
  O1       1.0000 0.16690  0.58320  0.94640  Biso   1.000  O
  O2       1.0000 0.83310  0.41680  0.05360  Biso   1.000  O
  C1       1.0000 0.39550  0.62880  0.87080  Biso   1.000  C
  C2       1.0000 0.60450  0.37120  0.12920  Biso   1.000  C
  F1       1.0000 0.37610  0.69090  0.77990  Biso   1.000  F
  F2       1.0000 0.62390  0.30910  0.22010  Biso   1.000  F
  F3       1.0000 0.51420  0.59740  0.81950  Biso   1.000  F
  F4       1.0000 0.48580  0.40260  0.18050  Biso   1.000  F
  F5       1.0000 0.39140  0.69050  0.93010  Biso   1.000  F
  F6       1.0000 0.60860  0.30950  0.06990  Biso   1.000  F
  C3       1.0000 0.28500  0.54730  0.92450  Biso   1.000  C
  C4       1.0000 0.71500  0.45270  0.07550  Biso   1.000  C
  C5       1.0000 0.32210  0.44610  0.94480  Biso   1.000  C
  C6       1.0000 0.67790  0.55390  0.05520  Biso   1.000  C
  H1       1.0000 0.41250  0.43050  0.92460  Biso   1.000  H
  H2       1.0000 0.58750  0.56950  0.07540  Biso   1.000  H
  C7       1.0000 0.22880  0.36720  0.99410  Biso   1.000  C
  C8       1.0000 0.77120  0.63280  0.00590  Biso   1.000  C
  C9       1.0000 0.27790  0.25780  0.01920  Biso   1.000  C
  C10      1.0000 0.72210  0.74220  0.98080  Biso   1.000  C
  F7       1.0000 0.40870  0.24720  0.97580  Biso   1.000  F
  F8       1.0000 0.59130  0.75280  0.02420  Biso   1.000  F
  F9       1.0000 0.23130  0.19730  0.98140  Biso   1.000  F
  F10      1.0000 0.76870  0.80270  0.01860  Biso   1.000  F
  F11      1.0000 0.26170  0.22920  0.12100  Biso   1.000  F
  F12      1.0000 0.73830  0.77080  0.87900  Biso   1.000  F
  O3       1.0000 0.10120  0.37290  0.02560  Biso   1.000  O
  O4       1.0000 0.89880  0.62710  0.97440  Biso   1.000  O
  Cu2      1.0000 0.00000  0.00000  0.50000  Biso   1.000  Cu
  O5       1.0000 0.84960  0.93400  0.49350  Biso   1.000  O
  O6       1.0000 0.15040  0.06600  0.50650  Biso   1.000  O
  C11      1.0000 0.63860  0.86070  0.54230  Biso   1.000  C
  C12      1.0000 0.36140  0.13930  0.45770  Biso   1.000  C
  F13      1.0000 0.65760  0.76280  0.56710  Biso   1.000  F
  F14      1.0000 0.34240  0.23720  0.43290  Biso   1.000  F
  F15      1.0000 0.65270  0.87810  0.44210  Biso   1.000  F
  F16      1.0000 0.34730  0.12190  0.55790  Biso   1.000  F
  F17      1.0000 0.51260  0.87310  0.59450  Biso   1.000  F
  F18      1.0000 0.48740  0.12690  0.40550  Biso   1.000  F
  C13      1.0000 0.73180  0.92200  0.56340  Biso   1.000  C
  C14      1.0000 0.26820  0.07800  0.43660  Biso   1.000  C
  C15      1.0000 0.68460  0.95760  0.65760  Biso   1.000  C
  C16      1.0000 0.31540  0.04240  0.34240  Biso   1.000  C
  H3       1.0000 0.59790  0.94080  0.70520  Biso   1.000  H
  H4       1.0000 0.40210  0.05920  0.29480  Biso   1.000  H
  C17      1.0000 0.76080  0.01570  0.68190  Biso   1.000  C
  C18      1.0000 0.23920  0.98430  0.31810  Biso   1.000  C
  C19      1.0000 0.69570  0.05360  0.78930  Biso   1.000  C
  C20      1.0000 0.30430  0.94640  0.21070  Biso   1.000  C
  F19      1.0000 0.62000  0.98460  0.86380  Biso   1.000  F
  F20      1.0000 0.38000  0.01540  0.13620  Biso   1.000  F
  F21      1.0000 0.60910  0.14010  0.78050  Biso   1.000  F
  F22      1.0000 0.39090  0.85990  0.21950  Biso   1.000  F
  F23      1.0000 0.77030  0.09980  0.81200  Biso   1.000  F
  F24      1.0000 0.22970  0.90020  0.18800  Biso   1.000  F
  O7       1.0000 0.88240  0.04610  0.63060  Biso   1.000  O
  O8       1.0000 0.11760  0.95390  0.36940  Biso   1.000  O
  O9       1.0000 0.08030  0.48450  0.82230  Biso   1.000  O
  O10      1.0000 0.91970  0.51550  0.17770  Biso   1.000  O
  N1       1.0000 0.00910  0.47720  0.76850  Biso   1.000  N
  N2       1.0000 0.99090  0.52280  0.23150  Biso   1.000  N
  C21      1.0000 0.98100  0.37600  0.75030  Biso   1.000  C
  C22      1.0000 0.01900  0.62400  0.24970  Biso   1.000  C
  C23      1.0000 0.94580  0.29360  0.85320  Biso   1.000  C
  C24      1.0000 0.05420  0.70640  0.14680  Biso   1.000  C
  H5       1.0000 0.86420  0.31140  0.90500  Biso   1.000  H
  H6       1.0000 0.13580  0.68860  0.09500  Biso   1.000  H
  H7       1.0000 0.93440  0.22920  0.83950  Biso   1.000  H
  H8       1.0000 0.06560  0.77080  0.16050  Biso   1.000  H
  H9       1.0000 0.01680  0.28880  0.87910  Biso   1.000  H
  H10      1.0000 0.98320  0.71120  0.12090  Biso   1.000  H
  C25      1.0000 0.11570  0.34760  0.66690  Biso   1.000  C
  C26      1.0000 0.88430  0.65240  0.33310  Biso   1.000  C
  H11      1.0000 0.18080  0.32940  0.69890  Biso   1.000  H
  H12      1.0000 0.81920  0.67060  0.30110  Biso   1.000  H
  H13      1.0000 0.10090  0.29110  0.64170  Biso   1.000  H
  H14      1.0000 0.89910  0.70890  0.35830  Biso   1.000  H
  H15      1.0000 0.14790  0.40490  0.60890  Biso   1.000  H
  H16      1.0000 0.85210  0.59510  0.39110  Biso   1.000  H
  C27      1.0000 0.86780  0.40690  0.70810  Biso   1.000  C
  C28      1.0000 0.13220  0.59310  0.29190  Biso   1.000  C
  C29      1.0000 0.87010  0.35700  0.61850  Biso   1.000  C
  C30      1.0000 0.12990  0.64300  0.38150  Biso   1.000  C
  H17      1.0000 0.95860  0.36230  0.56520  Biso   1.000  H
  H18      1.0000 0.04140  0.63770  0.43480  Biso   1.000  H
  H19      1.0000 0.84500  0.28670  0.64680  Biso   1.000  H
  H20      1.0000 0.15500  0.71330  0.35320  Biso   1.000  H
  H21      1.0000 0.80820  0.39130  0.58820  Biso   1.000  H
  H22      1.0000 0.19180  0.60870  0.41180  Biso   1.000  H
  C31      1.0000 0.72470  0.39820  0.79480  Biso   1.000  C
  C32      1.0000 0.27530  0.60180  0.20520  Biso   1.000  C
  H23      1.0000 0.72360  0.42870  0.85030  Biso   1.000  H
  H24      1.0000 0.27640  0.57130  0.14970  Biso   1.000  H
  H25      1.0000 0.66250  0.43260  0.76490  Biso   1.000  H
  H26      1.0000 0.33750  0.56740  0.23510  Biso   1.000  H
  H27      1.0000 0.69970  0.32770  0.82280  Biso   1.000  H
  H28      1.0000 0.30030  0.67230  0.17720  Biso   1.000  H
  N3       1.0000 0.89450  0.51990  0.66310  Biso   1.000  N
  N4       1.0000 0.10550  0.48010  0.33690  Biso   1.000  N
  O11      1.0000 0.83820  0.57440  0.60280  Biso   1.000  O
  O12      1.0000 0.16180  0.42560  0.39720  Biso   1.000  O
  C33      1.0000 0.96870  0.55670  0.70680  Biso   1.000  C
  C34      1.0000 0.03130  0.44330  0.29320  Biso   1.000  C
  C35      1.0000 0.00290  0.66220  0.68790  Biso   1.000  C
  C36      1.0000 0.99710  0.33780  0.31210  Biso   1.000  C
  C37      1.0000 0.97240  0.74780  0.61860  Biso   1.000  C
  C38      1.0000 0.02760  0.25220  0.38140  Biso   1.000  C
  H29      1.0000 0.92200  0.74360  0.57900  Biso   1.000  H
  H30      1.0000 0.07800  0.25640  0.42100  Biso   1.000  H
  N5       1.0000 0.02530  0.83450  0.61780  Biso   1.000  N
  N6       1.0000 0.97470  0.16550  0.38220  Biso   1.000  N
  N7       1.0000 0.08800  0.80580  0.68920  Biso   1.000  N
  N8       1.0000 0.91200  0.19420  0.31080  Biso   1.000  N
  C39      1.0000 0.15000  0.88900  0.70780  Biso   1.000  C
  C40      1.0000 0.85000  0.11100  0.29220  Biso   1.000  C
  H31      1.0000 0.24530  0.89020  0.66750  Biso   1.000  H
  H32      1.0000 0.75470  0.10980  0.33250  Biso   1.000  H
  H33      1.0000 0.11340  0.95340  0.68310  Biso   1.000  H
  H34      1.0000 0.88660  0.04660  0.31690  Biso   1.000  H
  C41      1.0000 0.12510  0.87680  0.82400  Biso   1.000  C
  C42      1.0000 0.87490  0.12320  0.17600  Biso   1.000  C
  H35      1.0000 0.03730  0.84800  0.86880  Biso   1.000  H
  H36      1.0000 0.96270  0.15200  0.13120  Biso   1.000  H
  H37      1.0000 0.19270  0.83470  0.84290  Biso   1.000  H
  H38      1.0000 0.80730  0.16530  0.15710  Biso   1.000  H
  C43      1.0000 0.13700  0.01200  0.83200  Biso   1.000  C
  C44      1.0000 0.86300  0.98800  0.16800  Biso   1.000  C
  H39      1.0000 0.05430  0.04290  0.87050  Biso   1.000  H
  H40      1.0000 0.94570  0.95710  0.12950  Biso   1.000  H
  H41      1.0000 0.19030  0.05780  0.76660  Biso   1.000  H
  H42      1.0000 0.80970  0.94220  0.23340  Biso   1.000  H
  C45      1.0000 0.21700  0.95220  0.89900  Biso   1.000  C
  C46      1.0000 0.78300  0.04780  0.10100  Biso   1.000  C
  H43      1.0000 0.26150  0.99920  0.91740  Biso   1.000  H
  H44      1.0000 0.73850  0.00080  0.08260  Biso   1.000  H
  H45      1.0000 0.15570  0.91080  0.96280  Biso   1.000  H
  H46      1.0000 0.84430  0.08920  0.03720  Biso   1.000  H
  H47      1.0000 0.28160  0.90950  0.85960  Biso   1.000  H
  H48      1.0000 0.71840  0.09050  0.14040  Biso   1.000  H
  C47      1.0000 0.16500  0.87400  0.71300  Biso   1.000  C
  C48      1.0000 0.83500  0.12600  0.28700  Biso   1.000  C
  H49      1.0000 0.23600  0.83590  0.73130  Biso   1.000  H
  H50      1.0000 0.76400  0.16410  0.26870  Biso   1.000  H
  H51      1.0000 0.20620  0.92700  0.65120  Biso   1.000  H
  H52      1.0000 0.79380  0.07300  0.34880  Biso   1.000  H
  C49      1.0000 0.08000  0.92190  0.80300  Biso   1.000  C
  C50      1.0000 0.92000  0.07810  0.19700  Biso   1.000  C
  H53      1.0000 0.02600  0.97720  0.78160  Biso   1.000  H
  H54      1.0000 0.97400  0.02280  0.21840  Biso   1.000  H
  H55      1.0000 0.02270  0.87280  0.86260  Biso   1.000  H
  H56      1.0000 0.97730  0.12720  0.13740  Biso   1.000  H
  C51      1.0000 0.21200  0.96500  0.82630  Biso   1.000  C
  C52      1.0000 0.78800  0.03500  0.17370  Biso   1.000  C
  H57      1.0000 0.28510  0.97270  0.75820  Biso   1.000  H
  H58      1.0000 0.71490  0.02730  0.24180  Biso   1.000  H
  H59      1.0000 0.23420  0.90520  0.87010  Biso   1.000  H
  H60      1.0000 0.76580  0.09480  0.12990  Biso   1.000  H
  C53      1.0000 0.22700  0.01600  0.85200  Biso   1.000  C
  C54      1.0000 0.77300  0.98400  0.14800  Biso   1.000  C
  H61      1.0000 0.25460  0.98810  0.90950  Biso   1.000  H
  H62      1.0000 0.74540  0.01190  0.09050  Biso   1.000  H
  H63      1.0000 0.29590  0.05950  0.79710  Biso   1.000  H
  H64      1.0000 0.70410  0.94050  0.20290  Biso   1.000  H
  H65      1.0000 0.14620  0.05370  0.87520  Biso   1.000  H
  H66      1.0000 0.85380  0.94630  0.12480  Biso   1.000  H
  C55      1.0000 0.07600  0.70540  0.73170  Biso   1.000  C
  C56      1.0000 0.92400  0.29460  0.26830  Biso   1.000  C
  H67      1.0000 0.11020  0.67070  0.78150  Biso   1.000  H
  H68      1.0000 0.88980  0.32930  0.21850  Biso   1.000  H
  C57      1.0000 0.49320  0.50620  0.50870  Biso   1.000  C
  C58      1.0000 0.50680  0.49380  0.49130  Biso   1.000  C
  C59      1.0000 0.43950  0.45630  0.61400  Biso   1.000  C
  C60      1.0000 0.56050  0.54370  0.38600  Biso   1.000  C
  H69      1.0000 0.38030  0.49160  0.66580  Biso   1.000  H
  H70      1.0000 0.61970  0.50840  0.33420  Biso   1.000  H
  C61      1.0000 0.47160  0.35520  0.64440  Biso   1.000  C
  C62      1.0000 0.52840  0.64480  0.35560  Biso   1.000  C
  H71      1.0000 0.43460  0.32080  0.71710  Biso   1.000  H
  H72      1.0000 0.56540  0.67920  0.28290  Biso   1.000  H
  C63      1.0000 0.55740  0.30420  0.56950  Biso   1.000  C
  C64      1.0000 0.44260  0.69580  0.43050  Biso   1.000  C
  H73      1.0000 0.57960  0.23440  0.59040  Biso   1.000  H
  H74      1.0000 0.42040  0.76560  0.40960  Biso   1.000  H
  C65      1.0000 0.61110  0.35410  0.46420  Biso   1.000  C
  C66      1.0000 0.38890  0.64590  0.53580  Biso   1.000  C
  H75      1.0000 0.67030  0.31880  0.41240  Biso   1.000  H
  H76      1.0000 0.32970  0.68120  0.58760  Biso   1.000  H
  C67      1.0000 0.57900  0.45510  0.43380  Biso   1.000  C
  C68      1.0000 0.42100  0.54490  0.56620  Biso   1.000  C
  H77      1.0000 0.61600  0.48960  0.36110  Biso   1.000  H
  H78      1.0000 0.38400  0.51040  0.63890  Biso   1.000  H
  C69      1.0000 0.44960  0.60920  0.47920  Biso   1.000  C
  C70      1.0000 0.55040  0.39080  0.52080  Biso   1.000  C
  H79      1.0000 0.39810  0.64480  0.53330  Biso   1.000  H
  H80      1.0000 0.60190  0.35520  0.46670  Biso   1.000  H
  C71      1.0000 0.48160  0.65770  0.37300  Biso   1.000  C
  C72      1.0000 0.51840  0.34230  0.62700  Biso   1.000  C
  H81      1.0000 0.52990  0.62490  0.32180  Biso   1.000  H
  H82      1.0000 0.47010  0.37510  0.67820  Biso   1.000  H
  H83      1.0000 0.45380  0.72160  0.35610  Biso   1.000  H
  H84      1.0000 0.54620  0.27840  0.64390  Biso   1.000  H
  F25      1.0000 0.78510  0.03920  0.83590  Biso   1.000  F
  F26      1.0000 0.21490  0.96080  0.16410  Biso   1.000  F
  F27      1.0000 0.58590  0.01060  0.85290  Biso   1.000  F
  F28      1.0000 0.41410  0.98940  0.14710  Biso   1.000  F
  F29      1.0000 0.67000  0.14210  0.76790  Biso   1.000  F
  F30      1.0000 0.33000  0.85790  0.23210  Biso   1.000  F
  F31      1.0000 0.63770  0.28970  0.09910  Biso   1.000  F
  F32      1.0000 0.36230  0.71030  0.90090  Biso   1.000  F
  F33      1.0000 0.57230  0.35500  0.22490  Biso   1.000  F
  F34      1.0000 0.42770  0.64500  0.77510  Biso   1.000  F
  F35      1.0000 0.49040  0.40380  0.11420  Biso   1.000  F
  F36      1.0000 0.50960  0.59620  0.88580  Biso   1.000  F
  F37      1.0000 0.78120  0.79310  0.89590  Biso   1.000  F
  F38      1.0000 0.21880  0.20690  0.10410  Biso   1.000  F
  F39      1.0000 0.52100  0.84130  0.61690  Biso   1.000  F
  F40      1.0000 0.47900  0.15870  0.38310  Biso   1.000  F
  F41      1.0000 0.69300  0.77860  0.51890  Biso   1.000  F
  F42      1.0000 0.30700  0.22140  0.48110  Biso   1.000  F
  F43      1.0000 0.61000  0.91950  0.46330  Biso   1.000  F
  F44      1.0000 0.39000  0.08050  0.53670  Biso   1.000  F
