data_image0
_cell_length_a       10.5838
_cell_length_b       13.2821
_cell_length_c       13.5988
_cell_angle_alpha    76.707
_cell_angle_beta     67.24
_cell_angle_gamma    84.933

_symmetry_space_group_name_H-M    "P 1"
_symmetry_int_tables_number       1

loop_
  _symmetry_equiv_pos_as_xyz
  'x, y, z'

loop_
  _atom_site_label
  _atom_site_occupancy
  _atom_site_fract_x
  _atom_site_fract_y
  _atom_site_fract_z
  _atom_site_thermal_displace_type
  _atom_site_B_iso_or_equiv
  _atom_site_type_symbol
  Cu1      1.0000 0.00000  0.00000  0.00000  Biso   1.000  Cu
  O1       1.0000 0.10326  0.87482  0.02852  Biso   1.000  O
  O2       1.0000 0.89674  0.12518  0.97148  Biso   1.000  O
  C1       1.0000 0.28160  0.75800  0.02140  Biso   1.000  C
  C2       1.0000 0.71840  0.24200  0.97860  Biso   1.000  C
  F1       1.0000 0.23791  0.71951  0.12738  Biso   1.000  F
  F2       1.0000 0.76209  0.28049  0.87262  Biso   1.000  F
  F3       1.0000 0.41718  0.74936  0.98148  Biso   1.000  F
  F4       1.0000 0.58282  0.25064  0.01852  Biso   1.000  F
  F5       1.0000 0.23439  0.69623  0.97992  Biso   1.000  F
  F6       1.0000 0.76561  0.30377  0.02008  Biso   1.000  F
  C3       1.0000 0.23150  0.86803  0.99727  Biso   1.000  C
  C4       1.0000 0.76850  0.13197  0.00273  Biso   1.000  C
  C5       1.0000 0.32680  0.94761  0.94560  Biso   1.000  C
  C6       1.0000 0.67320  0.05239  0.05440  Biso   1.000  C
  H1       1.0000 0.42150  0.93140  0.92570  Biso   1.000  H
  H2       1.0000 0.57850  0.06860  0.07430  Biso   1.000  H
  C7       1.0000 0.28810  0.05028  0.92203  Biso   1.000  C
  C8       1.0000 0.71190  0.94972  0.07797  Biso   1.000  C
  C9       1.0000 0.39920  0.13240  0.86330  Biso   1.000  C
  C10      1.0000 0.60080  0.86760  0.13670  Biso   1.000  C
  F7       1.0000 0.51350  0.10270  0.87350  Biso   1.000  F
  F8       1.0000 0.48650  0.89730  0.12650  Biso   1.000  F
  F9       1.0000 0.38800  0.18810  0.77320  Biso   1.000  F
  F10      1.0000 0.61200  0.81190  0.22680  Biso   1.000  F
  F11      1.0000 0.52460  0.09850  0.83900  Biso   1.000  F
  F12      1.0000 0.47540  0.90150  0.16100  Biso   1.000  F
  F13      1.0000 0.38310  0.20330  0.92490  Biso   1.000  F
  F14      1.0000 0.61690  0.79670  0.07510  Biso   1.000  F
  F15      1.0000 0.42230  0.15440  0.76210  Biso   1.000  F
  F16      1.0000 0.57770  0.84560  0.23790  Biso   1.000  F
  F17      1.0000 0.37200  0.21420  0.89880  Biso   1.000  F
  F18      1.0000 0.62800  0.78580  0.10120  Biso   1.000  F
  O3       1.0000 0.16880  0.08598  0.94270  Biso   1.000  O
  O4       1.0000 0.83120  0.91402  0.05730  Biso   1.000  O
  Cu2      1.0000 0.00000  0.50000  0.50000  Biso   1.000  Cu
  O5       1.0000 0.84592  0.43683  0.49276  Biso   1.000  O
  O6       1.0000 0.15408  0.56317  0.50724  Biso   1.000  O
  C11      1.0000 0.63140  0.36600  0.54150  Biso   1.000  C
  C12      1.0000 0.36860  0.63400  0.45850  Biso   1.000  C
  F19      1.0000 0.62720  0.40961  0.44538  Biso   1.000  F
  F20      1.0000 0.37280  0.59039  0.55462  Biso   1.000  F
  F21      1.0000 0.67130  0.27011  0.53827  Biso   1.000  F
  F22      1.0000 0.32870  0.72989  0.46173  Biso   1.000  F
  F23      1.0000 0.50400  0.36214  0.61273  Biso   1.000  F
  F24      1.0000 0.49600  0.63786  0.38727  Biso   1.000  F
  C13      1.0000 0.72850  0.42476  0.56790  Biso   1.000  C
  C14      1.0000 0.27150  0.57524  0.43210  Biso   1.000  C
  C15      1.0000 0.68170  0.45521  0.66570  Biso   1.000  C
  C16      1.0000 0.31830  0.54479  0.33430  Biso   1.000  C
  H3       1.0000 0.59140  0.43670  0.71630  Biso   1.000  H
  H4       1.0000 0.40860  0.56330  0.28370  Biso   1.000  H
  C17      1.0000 0.76310  0.51274  0.69290  Biso   1.000  C
  C18      1.0000 0.23690  0.48726  0.30710  Biso   1.000  C
  C19      1.0000 0.70230  0.54460  0.80280  Biso   1.000  C
  C20      1.0000 0.29770  0.45540  0.19720  Biso   1.000  C
  F25      1.0000 0.60480  0.48430  0.87640  Biso   1.000  F
  F26      1.0000 0.39520  0.51570  0.12360  Biso   1.000  F
  F27      1.0000 0.63890  0.64130  0.78140  Biso   1.000  F
  F28      1.0000 0.36110  0.35870  0.21860  Biso   1.000  F
  F29      1.0000 0.78940  0.55630  0.84120  Biso   1.000  F
  F30      1.0000 0.21060  0.44370  0.15880  Biso   1.000  F
  F31      1.0000 0.58610  0.49820  0.86880  Biso   1.000  F
  F32      1.0000 0.41390  0.50180  0.13120  Biso   1.000  F
  F33      1.0000 0.68670  0.63970  0.80010  Biso   1.000  F
  F34      1.0000 0.31330  0.36030  0.19990  Biso   1.000  F
  F35      1.0000 0.78850  0.51730  0.85810  Biso   1.000  F
  F36      1.0000 0.21150  0.48270  0.14190  Biso   1.000  F
  O7       1.0000 0.88366  0.54404  0.63641  Biso   1.000  O
  O8       1.0000 0.11634  0.45596  0.36359  Biso   1.000  O
  O9       1.0000 0.91784  0.02088  0.17800  Biso   1.000  O
  O10      1.0000 0.08216  0.97912  0.82200  Biso   1.000  O
  N1       1.0000 0.99321  0.02747  0.23245  Biso   1.000  N
  N2       1.0000 0.00679  0.97253  0.76755  Biso   1.000  N
  C21      1.0000 0.02270  0.12950  0.25001  Biso   1.000  C
  C22      1.0000 0.97730  0.87050  0.74999  Biso   1.000  C
  C23      1.0000 0.89050  0.16050  0.33540  Biso   1.000  C
  C24      1.0000 0.10950  0.83950  0.66460  Biso   1.000  C
  H5       1.0000 0.82100  0.17940  0.30320  Biso   1.000  H
  H6       1.0000 0.17900  0.82060  0.69680  Biso   1.000  H
  H7       1.0000 0.90840  0.21970  0.35970  Biso   1.000  H
  H8       1.0000 0.09160  0.78030  0.64030  Biso   1.000  H
  H9       1.0000 0.85720  0.10220  0.39790  Biso   1.000  H
  H10      1.0000 0.14280  0.89780  0.60210  Biso   1.000  H
  C25      1.0000 0.06080  0.21046  0.14390  Biso   1.000  C
  C26      1.0000 0.93920  0.78954  0.85610  Biso   1.000  C
  H11      1.0000 0.98060  0.22610  0.12370  Biso   1.000  H
  H12      1.0000 0.01940  0.77390  0.87630  Biso   1.000  H
  H13      1.0000 0.13470  0.18380  0.08590  Biso   1.000  H
  H14      1.0000 0.86530  0.81620  0.91410  Biso   1.000  H
  H15      1.0000 0.09160  0.27360  0.15360  Biso   1.000  H
  H16      1.0000 0.90840  0.72640  0.84640  Biso   1.000  H
  C27      1.0000 0.13990  0.09680  0.29283  Biso   1.000  C
  C28      1.0000 0.86010  0.90320  0.70717  Biso   1.000  C
  C29      1.0000 0.28350  0.10350  0.20310  Biso   1.000  C
  C30      1.0000 0.71650  0.89650  0.79690  Biso   1.000  C
  H17      1.0000 0.35150  0.08210  0.23640  Biso   1.000  H
  H18      1.0000 0.64850  0.91790  0.76360  Biso   1.000  H
  H19      1.0000 0.30190  0.17480  0.16110  Biso   1.000  H
  H20      1.0000 0.69810  0.82520  0.83890  Biso   1.000  H
  H21      1.0000 0.28890  0.05770  0.15450  Biso   1.000  H
  H22      1.0000 0.71110  0.94230  0.84550  Biso   1.000  H
  C31      1.0000 0.13660  0.14620  0.38300  Biso   1.000  C
  C32      1.0000 0.86340  0.85380  0.61700  Biso   1.000  C
  H23      1.0000 0.21480  0.12180  0.40370  Biso   1.000  H
  H24      1.0000 0.78520  0.87820  0.59630  Biso   1.000  H
  H25      1.0000 0.05120  0.12750  0.44630  Biso   1.000  H
  H26      1.0000 0.94880  0.87250  0.55370  Biso   1.000  H
  H27      1.0000 0.14160  0.22160  0.35760  Biso   1.000  H
  H28      1.0000 0.85840  0.77840  0.64240  Biso   1.000  H
  N3       1.0000 0.11012  0.98344  0.33705  Biso   1.000  N
  N4       1.0000 0.88988  0.01656  0.66295  Biso   1.000  N
  O11      1.0000 0.16697  0.92756  0.39801  Biso   1.000  O
  O12      1.0000 0.83303  0.07244  0.60199  Biso   1.000  O
  C33      1.0000 0.03280  0.94667  0.29361  Biso   1.000  C
  C34      1.0000 0.96720  0.05333  0.70639  Biso   1.000  C
  C35      1.0000 0.99780  0.84044  0.31275  Biso   1.000  C
  C36      1.0000 0.00220  0.15956  0.68725  Biso   1.000  C
  C37      1.0000 0.03150  0.75424  0.38115  Biso   1.000  C
  C38      1.0000 0.96850  0.24576  0.61885  Biso   1.000  C
  H29      1.0000 0.08440  0.75810  0.42290  Biso   1.000  H
  H30      1.0000 0.91560  0.24190  0.57710  Biso   1.000  H
  N5       1.0000 0.98009  0.66737  0.37978  Biso   1.000  N
  N6       1.0000 0.01991  0.33263  0.62022  Biso   1.000  N
  N7       1.0000 0.91240  0.69674  0.31022  Biso   1.000  N
  N8       1.0000 0.08760  0.30326  0.68978  Biso   1.000  N
  C39      1.0000 0.83800  0.62290  0.27930  Biso   1.000  C
  C40      1.0000 0.16200  0.37710  0.72070  Biso   1.000  C
  H31      1.0000 0.80550  0.56180  0.34000  Biso   1.000  H
  H32      1.0000 0.19450  0.43820  0.66000  Biso   1.000  H
  H33      1.0000 0.75770  0.65810  0.26690  Biso   1.000  H
  H34      1.0000 0.24230  0.34190  0.73310  Biso   1.000  H
  C41      1.0000 0.92710  0.59050  0.18380  Biso   1.000  C
  C42      1.0000 0.07290  0.40950  0.81620  Biso   1.000  C
  H35      1.0000 0.01210  0.56260  0.19400  Biso   1.000  H
  H36      1.0000 0.98790  0.43740  0.80600  Biso   1.000  H
  H37      1.0000 0.95240  0.65110  0.12200  Biso   1.000  H
  H38      1.0000 0.04760  0.34890  0.87800  Biso   1.000  H
  C43      1.0000 0.86290  0.50730  0.15500  Biso   1.000  C
  C44      1.0000 0.13710  0.49270  0.84500  Biso   1.000  C
  H39      1.0000 0.92950  0.49200  0.08540  Biso   1.000  H
  H40      1.0000 0.07050  0.50800  0.91460  Biso   1.000  H
  H41      1.0000 0.85300  0.44340  0.21190  Biso   1.000  H
  H42      1.0000 0.14700  0.55660  0.78810  Biso   1.000  H
  C45      1.0000 0.72990  0.52780  0.14350  Biso   1.000  C
  C46      1.0000 0.27010  0.47220  0.85650  Biso   1.000  C
  H43      1.0000 0.70190  0.46720  0.12710  Biso   1.000  H
  H44      1.0000 0.29810  0.53280  0.87290  Biso   1.000  H
  H45      1.0000 0.73820  0.58790  0.08400  Biso   1.000  H
  H46      1.0000 0.26180  0.41210  0.91600  Biso   1.000  H
  H47      1.0000 0.66110  0.54190  0.21180  Biso   1.000  H
  H48      1.0000 0.33890  0.45810  0.78820  Biso   1.000  H
  C47      1.0000 0.85300  0.61510  0.29020  Biso   1.000  C
  C48      1.0000 0.14700  0.38490  0.70980  Biso   1.000  C
  H49      1.0000 0.75320  0.61280  0.33310  Biso   1.000  H
  H50      1.0000 0.24680  0.38720  0.66690  Biso   1.000  H
  H51      1.0000 0.89260  0.54820  0.31470  Biso   1.000  H
  H52      1.0000 0.10740  0.45180  0.68530  Biso   1.000  H
  C49      1.0000 0.87980  0.63030  0.16480  Biso   1.000  C
  C50      1.0000 0.12020  0.36970  0.83520  Biso   1.000  C
  H53      1.0000 0.85520  0.70210  0.13810  Biso   1.000  H
  H54      1.0000 0.14480  0.29790  0.86190  Biso   1.000  H
  H55      1.0000 0.97900  0.62160  0.12420  Biso   1.000  H
  H56      1.0000 0.02100  0.37840  0.87580  Biso   1.000  H
  C51      1.0000 0.79840  0.55410  0.13790  Biso   1.000  C
  C52      1.0000 0.20160  0.44590  0.86210  Biso   1.000  C
  H57      1.0000 0.69860  0.56010  0.17830  Biso   1.000  H
  H58      1.0000 0.30140  0.43990  0.82170  Biso   1.000  H
  H59      1.0000 0.81720  0.56950  0.05870  Biso   1.000  H
  H60      1.0000 0.18280  0.43050  0.94130  Biso   1.000  H
  C53      1.0000 0.84640  0.45150  0.17170  Biso   1.000  C
  C54      1.0000 0.15360  0.54850  0.82830  Biso   1.000  C
  H61      1.0000 0.79840  0.40010  0.15730  Biso   1.000  H
  H62      1.0000 0.20160  0.59990  0.84270  Biso   1.000  H
  H63      1.0000 0.82800  0.43800  0.24990  Biso   1.000  H
  H64      1.0000 0.17200  0.56200  0.75010  Biso   1.000  H
  H65      1.0000 0.94510  0.44690  0.13070  Biso   1.000  H
  H66      1.0000 0.05490  0.55310  0.86930  Biso   1.000  H
  C55      1.0000 0.92090  0.79824  0.26982  Biso   1.000  C
  C56      1.0000 0.07910  0.20176  0.73018  Biso   1.000  C
  H67      1.0000 0.88130  0.83520  0.22020  Biso   1.000  H
  H68      1.0000 0.11870  0.16480  0.77980  Biso   1.000  H
  C57      1.0000 0.41000  0.23560  0.44720  Biso   1.000  C
  C58      1.0000 0.59000  0.76440  0.55280  Biso   1.000  C
  H69      1.0000 0.36400  0.30270  0.45120  Biso   1.000  H
  H70      1.0000 0.63600  0.69730  0.54880  Biso   1.000  H
  H71      1.0000 0.46220  0.22230  0.49470  Biso   1.000  H
  H72      1.0000 0.53780  0.77770  0.50530  Biso   1.000  H
  H73      1.0000 0.34120  0.18100  0.47120  Biso   1.000  H
  H74      1.0000 0.65880  0.81900  0.52880  Biso   1.000  H
  C59      1.0000 0.48740  0.23640  0.35350  Biso   1.000  C
  C60      1.0000 0.51260  0.76360  0.64650  Biso   1.000  C
  H75      1.0000 0.51920  0.27960  0.28250  Biso   1.000  H
  H76      1.0000 0.48080  0.72040  0.71750  Biso   1.000  H
  C61      1.0000 0.50900  0.09550  0.43460  Biso   1.000  C
  C62      1.0000 0.49100  0.90450  0.56540  Biso   1.000  C
  C63      1.0000 0.42160  0.08770  0.54310  Biso   1.000  C
  C64      1.0000 0.57840  0.91230  0.45690  Biso   1.000  C
  H77      1.0000 0.36790  0.14550  0.56570  Biso   1.000  H
  H78      1.0000 0.63210  0.85450  0.43430  Biso   1.000  H
  C65      1.0000 0.41290  0.99540  0.61850  Biso   1.000  C
  C66      1.0000 0.58710  0.00460  0.38150  Biso   1.000  C
  H79      1.0000 0.36410  0.98840  0.69480  Biso   1.000  H
  H80      1.0000 0.63590  0.01160  0.30520  Biso   1.000  H
  C67      1.0000 0.49150  0.91080  0.58540  Biso   1.000  C
  C68      1.0000 0.50850  0.08920  0.41460  Biso   1.000  C
  C69      1.0000 0.57880  0.91870  0.47690  Biso   1.000  C
  C70      1.0000 0.42120  0.08130  0.52310  Biso   1.000  C
  H81      1.0000 0.63250  0.86090  0.45430  Biso   1.000  H
  H82      1.0000 0.36750  0.13910  0.54570  Biso   1.000  H
  C71      1.0000 0.58760  0.01100  0.40160  Biso   1.000  C
  C72      1.0000 0.41240  0.98900  0.59840  Biso   1.000  C
  H83      1.0000 0.66070  0.01650  0.33250  Biso   1.000  H
  H84      1.0000 0.33930  0.98350  0.66750  Biso   1.000  H
  C73      1.0000 0.45860  0.80700  0.67250  Biso   1.000  C
  C74      1.0000 0.54140  0.19300  0.32750  Biso   1.000  C
  H85      1.0000 0.39500  0.82020  0.74300  Biso   1.000  H
  H86      1.0000 0.60500  0.17980  0.25700  Biso   1.000  H
  H87      1.0000 0.54360  0.77720  0.67960  Biso   1.000  H
  H88      1.0000 0.45640  0.22280  0.32040  Biso   1.000  H
  H89      1.0000 0.41680  0.75840  0.64950  Biso   1.000  H
  H90      1.0000 0.58320  0.24160  0.35050  Biso   1.000  H
