data_image0
_cell_length_a       10.334
_cell_length_b       12.978
_cell_length_c       13.539
_cell_angle_alpha    97.995
_cell_angle_beta     107.28
_cell_angle_gamma    101.479

_symmetry_space_group_name_H-M    "P 1"
_symmetry_int_tables_number       1

loop_
  _symmetry_equiv_pos_as_xyz
  'x, y, z'

loop_
  _atom_site_label
  _atom_site_occupancy
  _atom_site_fract_x
  _atom_site_fract_y
  _atom_site_fract_z
  _atom_site_thermal_displace_type
  _atom_site_B_iso_or_equiv
  _atom_site_type_symbol
  Cu1      1.0000 0.50000  0.00000  0.50000  Biso   1.000  Cu
  O1       1.0000 0.66460  0.12910  0.54130  Biso   1.000  O
  O2       1.0000 0.33540  0.87090  0.45870  Biso   1.000  O
  C1       1.0000 0.84850  0.25980  0.53550  Biso   1.000  C
  C2       1.0000 0.15150  0.74020  0.46450  Biso   1.000  C
  F1       1.0000 0.76690  0.32410  0.50550  Biso   1.000  F
  F2       1.0000 0.23310  0.67590  0.49450  Biso   1.000  F
  F3       1.0000 0.91600  0.30670  0.64700  Biso   1.000  F
  F4       1.0000 0.08400  0.69330  0.35300  Biso   1.000  F
  F5       1.0000 0.94670  0.27880  0.48800  Biso   1.000  F
  F6       1.0000 0.05330  0.72120  0.51200  Biso   1.000  F
  C3       1.0000 0.76410  0.14260  0.50650  Biso   1.000  C
  C4       1.0000 0.23590  0.85740  0.49350  Biso   1.000  C
  C5       1.0000 0.80340  0.06620  0.44750  Biso   1.000  C
  C6       1.0000 0.19660  0.93380  0.55250  Biso   1.000  C
  H1       1.0000 0.87800  0.09070  0.42220  Biso   1.000  H
  H2       1.0000 0.12200  0.90930  0.57780  Biso   1.000  H
  C7       1.0000 0.74140  0.95620  0.42270  Biso   1.000  C
  C8       1.0000 0.25860  0.04380  0.57730  Biso   1.000  C
  C9       1.0000 0.78920  0.88070  0.35330  Biso   1.000  C
  C10      1.0000 0.21080  0.11930  0.64670  Biso   1.000  C
  F7       1.0000 0.89970  0.92570  0.33110  Biso   1.000  F
  F8       1.0000 0.10030  0.07430  0.66890  Biso   1.000  F
  F9       1.0000 0.68400  0.83640  0.26070  Biso   1.000  F
  F10      1.0000 0.31600  0.16360  0.73930  Biso   1.000  F
  F11      1.0000 0.81990  0.79900  0.39910  Biso   1.000  F
  F12      1.0000 0.18010  0.20100  0.60090  Biso   1.000  F
  O3       1.0000 0.64250  0.91050  0.44960  Biso   1.000  O
  O4       1.0000 0.35750  0.08950  0.55040  Biso   1.000  O
  Cu2      1.0000 0.00000  0.50000  0.00000  Biso   1.000  Cu
  O5       1.0000 0.84250  0.56280  0.99820  Biso   1.000  O
  O6       1.0000 0.15750  0.43720  0.00180  Biso   1.000  O
  C11      1.0000 0.68320  0.63580  0.05550  Biso   1.000  C
  C12      1.0000 0.31680  0.36420  0.94450  Biso   1.000  C
  F13      1.0000 0.73970  0.73760  0.06260  Biso   1.000  F
  F14      1.0000 0.26030  0.26240  0.93740  Biso   1.000  F
  F15      1.0000 0.58660  0.60000  0.95780  Biso   1.000  F
  F16      1.0000 0.41340  0.40000  0.04220  Biso   1.000  F
  F17      1.0000 0.61270  0.63080  0.12410  Biso   1.000  F
  F18      1.0000 0.38730  0.36920  0.87590  Biso   1.000  F
  C13      1.0000 0.79310  0.56970  0.07330  Biso   1.000  C
  C14      1.0000 0.20690  0.43030  0.92670  Biso   1.000  C
  C15      1.0000 0.82300  0.52940  0.16080  Biso   1.000  C
  C16      1.0000 0.17700  0.47060  0.83920  Biso   1.000  C
  H3       1.0000 0.77410  0.54170  0.20880  Biso   1.000  H
  H4       1.0000 0.22590  0.45830  0.79120  Biso   1.000  H
  C17      1.0000 0.92570  0.46840  0.18530  Biso   1.000  C
  C18      1.0000 0.07430  0.53160  0.81470  Biso   1.000  C
  C19      1.0000 0.95310  0.42370  0.28320  Biso   1.000  C
  C20      1.0000 0.04690  0.57630  0.71680  Biso   1.000  C
  F19      1.0000 0.09010  0.43340  0.33190  Biso   1.000  F
  F20      1.0000 0.90990  0.56660  0.66810  Biso   1.000  F
  F21      1.0000 0.88700  0.32080  0.26940  Biso   1.000  F
  F22      1.0000 0.11300  0.67920  0.73060  Biso   1.000  F
  F23      1.0000 0.91600  0.47720  0.36440  Biso   1.000  F
  F24      1.0000 0.08400  0.52280  0.63560  Biso   1.000  F
  O7       1.0000 0.99130  0.44020  0.12560  Biso   1.000  O
  O8       1.0000 0.00870  0.55980  0.87440  Biso   1.000  O
  O9       1.0000 0.54260  0.98280  0.65150  Biso   1.000  O
  O10      1.0000 0.45740  0.01720  0.34850  Biso   1.000  O
  N1       1.0000 0.65980  0.96560  0.70680  Biso   1.000  N
  N2       1.0000 0.34020  0.03440  0.29320  Biso   1.000  N
  C21      1.0000 0.66960  0.85440  0.72480  Biso   1.000  C
  C22      1.0000 0.33040  0.14560  0.27520  Biso   1.000  C
  C23      1.0000 0.58880  0.83230  0.80120  Biso   1.000  C
  C24      1.0000 0.41120  0.16770  0.19880  Biso   1.000  C
  H5       1.0000 0.48810  0.81850  0.76340  Biso   1.000  H
  H6       1.0000 0.51190  0.18150  0.23660  Biso   1.000  H
  H7       1.0000 0.60820  0.76930  0.82930  Biso   1.000  H
  H8       1.0000 0.39180  0.23070  0.17070  Biso   1.000  H
  H9       1.0000 0.61830  0.89500  0.85970  Biso   1.000  H
  H10      1.0000 0.38170  0.10500  0.14030  Biso   1.000  H
  C25      1.0000 0.60170  0.77170  0.62020  Biso   1.000  C
  C26      1.0000 0.39830  0.22830  0.37980  Biso   1.000  C
  H11      1.0000 0.65880  0.78370  0.57460  Biso   1.000  H
  H12      1.0000 0.34120  0.21630  0.42540  Biso   1.000  H
  H13      1.0000 0.59520  0.69910  0.63410  Biso   1.000  H
  H14      1.0000 0.40480  0.30090  0.36590  Biso   1.000  H
  H15      1.0000 0.50760  0.77940  0.58480  Biso   1.000  H
  H16      1.0000 0.49240  0.22060  0.41520  Biso   1.000  H
  C27      1.0000 0.82890  0.87350  0.77440  Biso   1.000  C
  C28      1.0000 0.17110  0.12650  0.22560  Biso   1.000  C
  C29      1.0000 0.87870  0.81500  0.86070  Biso   1.000  C
  C30      1.0000 0.12130  0.18500  0.13930  Biso   1.000  C
  H17      1.0000 0.85490  0.73780  0.83050  Biso   1.000  H
  H18      1.0000 0.14510  0.26220  0.16950  Biso   1.000  H
  H19      1.0000 0.98050  0.84170  0.89430  Biso   1.000  H
  H20      1.0000 0.01950  0.15830  0.10570  Biso   1.000  H
  H21      1.0000 0.83310  0.82740  0.91370  Biso   1.000  H
  H22      1.0000 0.16690  0.17260  0.08630  Biso   1.000  H
  C31      1.0000 0.90350  0.85980  0.69160  Biso   1.000  C
  C32      1.0000 0.09650  0.14020  0.30840  Biso   1.000  C
  H23      1.0000 0.88140  0.78340  0.65860  Biso   1.000  H
  H24      1.0000 0.11860  0.21660  0.34140  Biso   1.000  H
  H25      1.0000 0.87130  0.90020  0.63720  Biso   1.000  H
  H26      1.0000 0.12870  0.09980  0.36280  Biso   1.000  H
  H27      1.0000 0.00500  0.88710  0.72650  Biso   1.000  H
  H28      1.0000 0.99500  0.11290  0.27350  Biso   1.000  H
  N3       1.0000 0.87140  0.99280  0.82040  Biso   1.000  N
  N4       1.0000 0.12860  0.00720  0.17960  Biso   1.000  N
  O11      1.0000 0.99360  0.04020  0.88630  Biso   1.000  O
  O12      1.0000 0.00640  0.95980  0.11370  Biso   1.000  O
  C33      1.0000 0.77070  0.04070  0.77420  Biso   1.000  C
  C34      1.0000 0.22930  0.95930  0.22580  Biso   1.000  C
  C35      1.0000 0.78060  0.15440  0.79950  Biso   1.000  C
  C36      1.0000 0.21940  0.84560  0.20050  Biso   1.000  C
  C37      1.0000 0.89170  0.23640  0.87250  Biso   1.000  C
  C38      1.0000 0.10830  0.76360  0.12750  Biso   1.000  C
  H29      1.0000 0.97770  0.22530  0.91380  Biso   1.000  H
  H30      1.0000 0.02230  0.77470  0.08620  Biso   1.000  H
  N5       1.0000 0.86160  0.33180  0.87650  Biso   1.000  N
  N6       1.0000 0.13840  0.66820  0.12350  Biso   1.000  N
  N7       1.0000 0.72910  0.31060  0.80390  Biso   1.000  N
  N8       1.0000 0.27090  0.68940  0.19610  Biso   1.000  N
  C39      1.0000 0.66230  0.40070  0.78520  Biso   1.000  C
  C40      1.0000 0.33770  0.59930  0.21480  Biso   1.000  C
  H31      1.0000 0.62490  0.41820  0.84310  Biso   1.000  H
  H32      1.0000 0.37510  0.58180  0.15690  Biso   1.000  H
  H33      1.0000 0.73530  0.46480  0.78890  Biso   1.000  H
  H34      1.0000 0.26470  0.53520  0.21110  Biso   1.000  H
  C41      1.0000 0.54500  0.37900  0.68080  Biso   1.000  C
  C42      1.0000 0.45500  0.62100  0.31920  Biso   1.000  C
  H35      1.0000 0.47160  0.31450  0.67560  Biso   1.000  H
  H36      1.0000 0.52840  0.68550  0.32440  Biso   1.000  H
  H37      1.0000 0.58170  0.36420  0.62200  Biso   1.000  H
  H38      1.0000 0.41830  0.63580  0.37800  Biso   1.000  H
  C43      1.0000 0.48180  0.47390  0.67060  Biso   1.000  C
  C44      1.0000 0.51820  0.52610  0.32940  Biso   1.000  C
  H39      1.0000 0.55540  0.53730  0.67360  Biso   1.000  H
  H40      1.0000 0.44460  0.46270  0.32640  Biso   1.000  H
  H41      1.0000 0.45020  0.49040  0.73190  Biso   1.000  H
  H42      1.0000 0.54980  0.50960  0.26810  Biso   1.000  H
  C45      1.0000 0.36150  0.45700  0.57170  Biso   1.000  C
  C46      1.0000 0.63850  0.54300  0.42830  Biso   1.000  C
  H43      1.0000 0.34000  0.52600  0.56260  Biso   1.000  H
  H44      1.0000 0.66000  0.47400  0.43740  Biso   1.000  H
  H45      1.0000 0.38560  0.42650  0.51120  Biso   1.000  H
  H46      1.0000 0.61440  0.57350  0.48880  Biso   1.000  H
  H47      1.0000 0.27960  0.40730  0.57610  Biso   1.000  H
  H48      1.0000 0.72040  0.59270  0.42390  Biso   1.000  H
  C47      1.0000 0.67600  0.20530  0.75510  Biso   1.000  C
  C48      1.0000 0.32400  0.79470  0.24490  Biso   1.000  C
  H49      1.0000 0.58720  0.17300  0.70230  Biso   1.000  H
  H50      1.0000 0.41280  0.82700  0.29770  Biso   1.000  H
  C49      1.0000 0.45870  0.96690  0.99300  Biso   1.000  C
  C50      1.0000 0.54130  0.03310  0.00700  Biso   1.000  C
  C51      1.0000 0.42890  0.04990  0.94270  Biso   1.000  C
  C52      1.0000 0.57110  0.95010  0.05730  Biso   1.000  C
  H51      1.0000 0.33520  0.04410  0.89780  Biso   1.000  H
  H52      1.0000 0.66480  0.95590  0.10220  Biso   1.000  H
  C53      1.0000 0.53470  0.14140  0.95750  Biso   1.000  C
  C54      1.0000 0.46530  0.85860  0.04250  Biso   1.000  C
  H53      1.0000 0.51410  0.19870  0.92270  Biso   1.000  H
  H54      1.0000 0.48590  0.80130  0.07730  Biso   1.000  H
  C55      1.0000 0.67040  0.14980  0.02250  Biso   1.000  C
  C56      1.0000 0.32960  0.85020  0.97750  Biso   1.000  C
  H55      1.0000 0.74340  0.21300  0.03280  Biso   1.000  H
  H56      1.0000 0.25660  0.78700  0.96720  Biso   1.000  H
  C57      1.0000 0.70020  0.06680  0.07280  Biso   1.000  C
  C58      1.0000 0.29980  0.93320  0.92720  Biso   1.000  C
  H57      1.0000 0.79390  0.07260  0.11780  Biso   1.000  H
  H58      1.0000 0.20610  0.92740  0.88220  Biso   1.000  H
  C59      1.0000 0.59440  0.97530  0.05810  Biso   1.000  C
  C60      1.0000 0.40560  0.02470  0.94190  Biso   1.000  C
  H59      1.0000 0.61490  0.91800  0.09280  Biso   1.000  H
  H60      1.0000 0.38510  0.08200  0.90720  Biso   1.000  H
  C61      1.0000 0.33820  0.87500  0.96040  Biso   1.000  C
  C62      1.0000 0.66180  0.12500  0.03960  Biso   1.000  C
  H61      1.0000 0.24760  0.88080  0.91930  Biso   1.000  H
  H62      1.0000 0.75240  0.11920  0.08070  Biso   1.000  H
  C63      1.0000 0.35470  0.78090  0.98850  Biso   1.000  C
  C64      1.0000 0.64530  0.21910  0.01150  Biso   1.000  C
  H63      1.0000 0.43980  0.77590  0.02700  Biso   1.000  H
  H64      1.0000 0.56020  0.22410  0.97300  Biso   1.000  H
  H65      1.0000 0.28050  0.72350  0.96860  Biso   1.000  H
  H66      1.0000 0.71950  0.27650  0.03140  Biso   1.000  H
  F25      1.0000 0.90400  0.31600  0.25000  Biso   1.000  F
  F26      1.0000 0.09600  0.68400  0.75000  Biso   1.000  F
  F27      1.0000 0.89300  0.46300  0.34500  Biso   1.000  F
  F28      1.0000 0.10700  0.53700  0.65500  Biso   1.000  F
  F29      1.0000 0.08300  0.71980  0.36600  Biso   1.000  F
  F30      1.0000 0.91700  0.28020  0.63400  Biso   1.000  F
