data_image0
_cell_length_a       10.7377
_cell_length_b       13.436
_cell_length_c       13.8076
_cell_angle_alpha    99.344
_cell_angle_beta     112.339
_cell_angle_gamma    95.328

_symmetry_space_group_name_H-M    "P 1"
_symmetry_int_tables_number       1

loop_
  _symmetry_equiv_pos_as_xyz
  'x, y, z'

loop_
  _atom_site_label
  _atom_site_occupancy
  _atom_site_fract_x
  _atom_site_fract_y
  _atom_site_fract_z
  _atom_site_thermal_displace_type
  _atom_site_B_iso_or_equiv
  _atom_site_type_symbol
  Cu1      1.0000 0.00000  0.00000  0.00000  Biso   1.000  Cu
  O1       1.0000 0.87510  0.87450  0.97581  Biso   1.000  O
  O2       1.0000 0.12490  0.12550  0.02419  Biso   1.000  O
  C1       1.0000 0.70670  0.75820  0.98430  Biso   1.000  C
  C2       1.0000 0.29330  0.24180  0.01570  Biso   1.000  C
  F1       1.0000 0.61970  0.73260  0.88090  Biso   1.000  F
  F2       1.0000 0.38030  0.26740  0.11910  Biso   1.000  F
  F3       1.0000 0.79020  0.69440  0.00770  Biso   1.000  F
  F4       1.0000 0.20980  0.30560  0.99230  Biso   1.000  F
  F5       1.0000 0.63400  0.74500  0.03700  Biso   1.000  F
  F6       1.0000 0.36600  0.25500  0.96300  Biso   1.000  F
  F7       1.0000 0.60300  0.75200  0.01000  Biso   1.000  F
  F8       1.0000 0.39700  0.24800  0.99000  Biso   1.000  F
  F9       1.0000 0.68300  0.70580  0.89520  Biso   1.000  F
  F10      1.0000 0.31700  0.29420  0.10480  Biso   1.000  F
  F11      1.0000 0.78700  0.70940  0.05000  Biso   1.000  F
  F12      1.0000 0.21300  0.29060  0.95000  Biso   1.000  F
  C3       1.0000 0.77970  0.86770  0.00670  Biso   1.000  C
  C4       1.0000 0.22030  0.13230  0.99330  Biso   1.000  C
  C5       1.0000 0.73480  0.94560  0.05580  Biso   1.000  C
  C6       1.0000 0.26520  0.05440  0.94420  Biso   1.000  C
  H1       1.0000 0.66330  0.92970  0.07600  Biso   1.000  H
  H2       1.0000 0.33670  0.07030  0.92400  Biso   1.000  H
  C7       1.0000 0.79370  0.04730  0.07560  Biso   1.000  C
  C8       1.0000 0.20630  0.95270  0.92440  Biso   1.000  C
  C9       1.0000 0.73600  0.12770  0.13060  Biso   1.000  C
  C10      1.0000 0.26400  0.87230  0.86940  Biso   1.000  C
  F13      1.0000 0.84350  0.18710  0.21770  Biso   1.000  F
  F14      1.0000 0.15650  0.81290  0.78230  Biso   1.000  F
  F15      1.0000 0.60190  0.09950  0.10190  Biso   1.000  F
  F16      1.0000 0.39810  0.90050  0.89810  Biso   1.000  F
  F17      1.0000 0.74000  0.20960  0.10260  Biso   1.000  F
  F18      1.0000 0.26000  0.79040  0.89740  Biso   1.000  F
  F19      1.0000 0.78800  0.14110  0.22730  Biso   1.000  F
  F20      1.0000 0.21200  0.85890  0.77270  Biso   1.000  F
  F21      1.0000 0.65920  0.09490  0.17330  Biso   1.000  F
  F22      1.0000 0.34080  0.90510  0.82670  Biso   1.000  F
  F23      1.0000 0.68600  0.19050  0.06970  Biso   1.000  F
  F24      1.0000 0.31400  0.80950  0.93030  Biso   1.000  F
  O3       1.0000 0.88880  0.08259  0.05429  Biso   1.000  O
  O4       1.0000 0.11120  0.91741  0.94571  Biso   1.000  O
  Cu2      1.0000 0.50000  0.50000  0.50000  Biso   1.000  Cu
  O5       1.0000 0.51920  0.45490  0.63286  Biso   1.000  O
  O6       1.0000 0.48080  0.54510  0.36714  Biso   1.000  O
  C11      1.0000 0.50120  0.44910  0.79550  Biso   1.000  C
  C12      1.0000 0.49880  0.55090  0.20450  Biso   1.000  C
  F25      1.0000 0.48800  0.35670  0.78680  Biso   1.000  F
  F26      1.0000 0.51200  0.64330  0.21320  Biso   1.000  F
  F27      1.0000 0.63640  0.48300  0.85150  Biso   1.000  F
  F28      1.0000 0.36360  0.51700  0.14850  Biso   1.000  F
  F29      1.0000 0.43600  0.48710  0.85420  Biso   1.000  F
  F30      1.0000 0.56400  0.51290  0.14580  Biso   1.000  F
  F31      1.0000 0.49850  0.51110  0.87380  Biso   1.000  F
  F32      1.0000 0.50150  0.48890  0.12620  Biso   1.000  F
  F33      1.0000 0.61900  0.42000  0.82540  Biso   1.000  F
  F34      1.0000 0.38100  0.58000  0.17460  Biso   1.000  F
  F35      1.0000 0.41400  0.36420  0.78230  Biso   1.000  F
  F36      1.0000 0.58600  0.63580  0.21770  Biso   1.000  F
  C13      1.0000 0.45660  0.48430  0.68920  Biso   1.000  C
  C14      1.0000 0.54340  0.51570  0.31080  Biso   1.000  C
  C15      1.0000 0.35440  0.54330  0.66690  Biso   1.000  C
  C16      1.0000 0.64560  0.45670  0.33310  Biso   1.000  C
  H3       1.0000 0.31820  0.56130  0.71750  Biso   1.000  H
  H4       1.0000 0.68180  0.43870  0.28250  Biso   1.000  H
  C17      1.0000 0.30460  0.57620  0.57200  Biso   1.000  C
  C18      1.0000 0.69540  0.42380  0.42800  Biso   1.000  C
  C19      1.0000 0.18720  0.63670  0.55030  Biso   1.000  C
  C20      1.0000 0.81280  0.36330  0.44970  Biso   1.000  C
  F37      1.0000 0.14480  0.65960  0.62510  Biso   1.000  F
  F38      1.0000 0.85520  0.34040  0.37490  Biso   1.000  F
  F39      1.0000 0.07450  0.58130  0.47430  Biso   1.000  F
  F40      1.0000 0.92550  0.41870  0.52570  Biso   1.000  F
  F41      1.0000 0.21400  0.71780  0.52370  Biso   1.000  F
  F42      1.0000 0.78600  0.28220  0.47630  Biso   1.000  F
  F43      1.0000 0.12350  0.61980  0.60950  Biso   1.000  F
  F44      1.0000 0.87650  0.38020  0.39050  Biso   1.000  F
  F45      1.0000 0.10370  0.61360  0.45250  Biso   1.000  F
  F46      1.0000 0.89630  0.38640  0.54750  Biso   1.000  F
  F47      1.0000 0.23100  0.73240  0.57560  Biso   1.000  F
  F48      1.0000 0.76900  0.26760  0.42440  Biso   1.000  F
  O7       1.0000 0.34570  0.56461  0.49759  Biso   1.000  O
  O8       1.0000 0.65430  0.43539  0.50241  Biso   1.000  O
  O9       1.0000 0.90230  0.01426  0.82095  Biso   1.000  O
  O10      1.0000 0.09770  0.98574  0.17905  Biso   1.000  O
  N1       1.0000 0.77580  0.02172  0.76710  Biso   1.000  N
  N2       1.0000 0.22420  0.97828  0.23290  Biso   1.000  N
  C21      1.0000 0.73140  0.12200  0.74860  Biso   1.000  C
  C22      1.0000 0.26860  0.87800  0.25140  Biso   1.000  C
  C23      1.0000 0.77940  0.15050  0.66410  Biso   1.000  C
  C24      1.0000 0.22060  0.84950  0.33590  Biso   1.000  C
  H5       1.0000 0.73650  0.09900  0.59910  Biso   1.000  H
  H6       1.0000 0.26350  0.90100  0.40090  Biso   1.000  H
  H7       1.0000 0.87680  0.15510  0.69000  Biso   1.000  H
  H8       1.0000 0.12320  0.84490  0.31000  Biso   1.000  H
  H9       1.0000 0.75510  0.21530  0.65020  Biso   1.000  H
  H10      1.0000 0.24490  0.78470  0.34980  Biso   1.000  H
  C25      1.0000 0.80000  0.20360  0.85280  Biso   1.000  C
  C26      1.0000 0.20000  0.79640  0.14720  Biso   1.000  C
  H11      1.0000 0.76840  0.18600  0.90510  Biso   1.000  H
  H12      1.0000 0.23160  0.81400  0.09490  Biso   1.000  H
  H13      1.0000 0.77740  0.26890  0.83910  Biso   1.000  H
  H14      1.0000 0.22260  0.73110  0.16090  Biso   1.000  H
  H15      1.0000 0.89730  0.20720  0.87940  Biso   1.000  H
  H16      1.0000 0.10270  0.79280  0.12060  Biso   1.000  H
  C27      1.0000 0.57560  0.09100  0.70830  Biso   1.000  C
  C28      1.0000 0.42440  0.90900  0.29170  Biso   1.000  C
  C29      1.0000 0.52140  0.09970  0.79610  Biso   1.000  C
  C30      1.0000 0.47860  0.90030  0.20390  Biso   1.000  C
  H17      1.0000 0.57630  0.06900  0.85230  Biso   1.000  H
  H18      1.0000 0.42370  0.93100  0.14770  Biso   1.000  H
  H19      1.0000 0.42850  0.06500  0.76660  Biso   1.000  H
  H20      1.0000 0.57150  0.93500  0.23340  Biso   1.000  H
  H21      1.0000 0.52530  0.17060  0.82460  Biso   1.000  H
  H22      1.0000 0.47470  0.82940  0.17540  Biso   1.000  H
  C31      1.0000 0.48840  0.14020  0.61740  Biso   1.000  C
  C32      1.0000 0.51160  0.85980  0.38260  Biso   1.000  C
  H23      1.0000 0.52300  0.13430  0.56240  Biso   1.000  H
  H24      1.0000 0.47700  0.86570  0.43760  Biso   1.000  H
  H25      1.0000 0.49250  0.21120  0.64550  Biso   1.000  H
  H26      1.0000 0.50750  0.78880  0.35450  Biso   1.000  H
  H27      1.0000 0.39530  0.10580  0.58760  Biso   1.000  H
  H28      1.0000 0.60470  0.89420  0.41240  Biso   1.000  H
  N3       1.0000 0.55820  0.97820  0.66350  Biso   1.000  N
  N4       1.0000 0.44180  0.02180  0.33650  Biso   1.000  N
  O11      1.0000 0.44320  0.92380  0.60480  Biso   1.000  O
  O12      1.0000 0.55680  0.07620  0.39520  Biso   1.000  O
  C33      1.0000 0.67650  0.94190  0.70640  Biso   1.000  C
  C34      1.0000 0.32350  0.05810  0.29360  Biso   1.000  C
  C35      1.0000 0.69090  0.83650  0.68750  Biso   1.000  C
  C36      1.0000 0.30910  0.16350  0.31250  Biso   1.000  C
  C37      1.0000 0.59230  0.75280  0.61810  Biso   1.000  C
  C38      1.0000 0.40770  0.24720  0.38190  Biso   1.000  C
  H29      1.0000 0.50200  0.75660  0.57700  Biso   1.000  H
  H30      1.0000 0.49800  0.24340  0.42300  Biso   1.000  H
  N5       1.0000 0.64440  0.66850  0.61910  Biso   1.000  N
  N6       1.0000 0.35560  0.33150  0.38090  Biso   1.000  N
  H31      1.0000 0.60260  0.60810  0.58280  Biso   1.000  H
  H32      1.0000 0.39740  0.39190  0.41720  Biso   1.000  H
  N7       1.0000 0.77580  0.69470  0.68810  Biso   1.000  N
  N8       1.0000 0.22420  0.30530  0.31190  Biso   1.000  N
  C39      1.0000 0.86530  0.61830  0.70910  Biso   1.000  C
  C40      1.0000 0.13470  0.38170  0.29090  Biso   1.000  C
  H33      1.0000 0.81230  0.55190  0.66750  Biso   1.000  H
  H34      1.0000 0.18770  0.44810  0.33250  Biso   1.000  H
  H35      1.0000 0.93600  0.63360  0.68360  Biso   1.000  H
  H36      1.0000 0.06400  0.36640  0.31640  Biso   1.000  H
  C41      1.0000 0.92870  0.61140  0.81750  Biso   1.000  C
  C42      1.0000 0.07130  0.38860  0.18250  Biso   1.000  C
  H37      1.0000 0.86170  0.60930  0.84880  Biso   1.000  H
  H38      1.0000 0.13830  0.39070  0.15120  Biso   1.000  H
  H39      1.0000 0.99880  0.67100  0.85760  Biso   1.000  H
  H40      1.0000 0.00120  0.32900  0.14240  Biso   1.000  H
  C43      1.0000 0.00050  0.50230  0.82410  Biso   1.000  C
  C44      1.0000 0.99950  0.49770  0.17590  Biso   1.000  C
  H41      1.0000 0.96520  0.43370  0.79190  Biso   1.000  H
  H42      1.0000 0.03480  0.56630  0.20810  Biso   1.000  H
  C45      1.0000 0.09710  0.54030  0.87670  Biso   1.000  C
  C46      1.0000 0.90290  0.45970  0.12330  Biso   1.000  C
  H43      1.0000 0.15900  0.49210  0.89080  Biso   1.000  H
  H44      1.0000 0.84100  0.50790  0.10920  Biso   1.000  H
  H45      1.0000 0.09370  0.57310  0.94260  Biso   1.000  H
  H46      1.0000 0.90630  0.42690  0.05740  Biso   1.000  H
  H47      1.0000 0.12810  0.59080  0.84540  Biso   1.000  H
  H48      1.0000 0.87190  0.40920  0.15460  Biso   1.000  H
  C47      1.0000 0.80740  0.79440  0.72970  Biso   1.000  C
  C48      1.0000 0.19260  0.20560  0.27030  Biso   1.000  C
  H49      1.0000 0.89270  0.82970  0.77860  Biso   1.000  H
  H50      1.0000 0.10730  0.17030  0.22140  Biso   1.000  H
  C49      1.0000 0.90970  0.86150  0.45690  Biso   1.000  C
  C50      1.0000 0.09030  0.13850  0.54310  Biso   1.000  C
  C51      1.0000 0.91400  0.91340  0.37870  Biso   1.000  C
  C52      1.0000 0.08600  0.08660  0.62130  Biso   1.000  C
  H51      1.0000 0.87240  0.87930  0.30450  Biso   1.000  H
  H52      1.0000 0.12760  0.12070  0.69550  Biso   1.000  H
  C53      1.0000 0.97860  0.01480  0.40800  Biso   1.000  C
  C54      1.0000 0.02140  0.98520  0.59200  Biso   1.000  C
  H53      1.0000 0.98160  0.05070  0.35390  Biso   1.000  H
  H54      1.0000 0.01840  0.94930  0.64610  Biso   1.000  H
  C55      1.0000 0.03890  0.06420  0.51540  Biso   1.000  C
  C56      1.0000 0.96110  0.93580  0.48460  Biso   1.000  C
  C57      1.0000 0.03460  0.01230  0.59360  Biso   1.000  C
  C58      1.0000 0.96540  0.98770  0.40640  Biso   1.000  C
  H55      1.0000 0.07620  0.04640  0.66790  Biso   1.000  H
  H56      1.0000 0.92380  0.95360  0.33210  Biso   1.000  H
  C59      1.0000 0.97000  0.91090  0.56440  Biso   1.000  C
  C60      1.0000 0.03000  0.08910  0.43560  Biso   1.000  C
  H57      1.0000 0.96700  0.87500  0.61840  Biso   1.000  H
  H58      1.0000 0.03300  0.12500  0.38160  Biso   1.000  H
  C61      1.0000 0.84510  0.75160  0.44850  Biso   1.000  C
  C62      1.0000 0.15490  0.24840  0.55150  Biso   1.000  C
  H59      1.0000 0.80300  0.71650  0.37460  Biso   1.000  H
  H60      1.0000 0.19700  0.28350  0.62540  Biso   1.000  H
  H61      1.0000 0.91460  0.71600  0.48770  Biso   1.000  H
  H62      1.0000 0.08540  0.28400  0.51230  Biso   1.000  H
  H63      1.0000 0.77730  0.75360  0.47800  Biso   1.000  H
  H64      1.0000 0.22270  0.24640  0.52200  Biso   1.000  H
  C63      1.0000 0.14450  0.21360  0.64610  Biso   1.000  C
  C64      1.0000 0.85550  0.78640  0.35390  Biso   1.000  C
  H65      1.0000 0.12410  0.17350  0.68610  Biso   1.000  H
  H66      1.0000 0.87590  0.82650  0.31390  Biso   1.000  H
  H67      1.0000 0.18770  0.27850  0.67630  Biso   1.000  H
  H68      1.0000 0.81230  0.72150  0.32370  Biso   1.000  H
  C65      1.0000 0.10850  0.17410  0.53460  Biso   1.000  C
  C66      1.0000 0.89150  0.82590  0.46540  Biso   1.000  C
  H69      1.0000 0.12330  0.20660  0.48690  Biso   1.000  H
  H70      1.0000 0.87670  0.79340  0.51310  Biso   1.000  H
