data_image0
_cell_length_a       10.419
_cell_length_b       13.175
_cell_length_c       14.122
_cell_angle_alpha    99.786
_cell_angle_beta     102.676
_cell_angle_gamma    105.022

_symmetry_space_group_name_H-M    "P 1"
_symmetry_int_tables_number       1

loop_
  _symmetry_equiv_pos_as_xyz
  'x, y, z'

loop_
  _atom_site_label
  _atom_site_occupancy
  _atom_site_fract_x
  _atom_site_fract_y
  _atom_site_fract_z
  _atom_site_thermal_displace_type
  _atom_site_B_iso_or_equiv
  _atom_site_type_symbol
  Cu1      1.0000 0.50000  0.00000  0.50000  Biso   1.000  Cu
  O1       1.0000 0.65370  0.14720  0.53800  Biso   1.000  O
  O2       1.0000 0.34630  0.85280  0.46200  Biso   1.000  O
  C1       1.0000 0.85170  0.28170  0.53860  Biso   1.000  C
  C2       1.0000 0.14830  0.71830  0.46140  Biso   1.000  C
  F1       1.0000 0.77100  0.35700  0.51600  Biso   1.000  F
  F2       1.0000 0.22900  0.64300  0.48400  Biso   1.000  F
  F3       1.0000 0.95320  0.30170  0.49250  Biso   1.000  F
  F4       1.0000 0.04680  0.69830  0.50750  Biso   1.000  F
  F5       1.0000 0.92600  0.32200  0.62200  Biso   1.000  F
  F6       1.0000 0.07400  0.67800  0.37800  Biso   1.000  F
  C3       1.0000 0.76230  0.16200  0.50960  Biso   1.000  C
  C4       1.0000 0.23770  0.83800  0.49040  Biso   1.000  C
  C5       1.0000 0.80950  0.08500  0.45950  Biso   1.000  C
  C6       1.0000 0.19050  0.91500  0.54050  Biso   1.000  C
  H1       1.0000 0.89130  0.10870  0.43950  Biso   1.000  H
  H2       1.0000 0.10870  0.89130  0.56050  Biso   1.000  H
  C7       1.0000 0.74190  0.97600  0.43810  Biso   1.000  C
  C8       1.0000 0.25810  0.02400  0.56190  Biso   1.000  C
  C9       1.0000 0.80090  0.89630  0.38520  Biso   1.000  C
  C10      1.0000 0.19910  0.10370  0.61480  Biso   1.000  C
  F7       1.0000 0.92180  0.94060  0.36900  Biso   1.000  F
  F8       1.0000 0.07820  0.05940  0.63100  Biso   1.000  F
  F9       1.0000 0.71320  0.83810  0.29590  Biso   1.000  F
  F10      1.0000 0.28680  0.16190  0.70410  Biso   1.000  F
  F11      1.0000 0.82080  0.82300  0.43830  Biso   1.000  F
  F12      1.0000 0.17920  0.17700  0.56170  Biso   1.000  F
  O3       1.0000 0.62870  0.92660  0.45760  Biso   1.000  O
  O4       1.0000 0.37130  0.07340  0.54240  Biso   1.000  O
  Cu2      1.0000 0.00000  0.50000  0.00000  Biso   1.000  Cu
  O5       1.0000 0.84800  0.56130  0.00520  Biso   1.000  O
  O6       1.0000 0.15200  0.43870  0.99480  Biso   1.000  O
  C11      1.0000 0.68920  0.63050  0.06910  Biso   1.000  C
  C12      1.0000 0.31080  0.36950  0.93090  Biso   1.000  C
  F13      1.0000 0.76370  0.73460  0.09280  Biso   1.000  F
  F14      1.0000 0.23630  0.26540  0.90720  Biso   1.000  F
  F15      1.0000 0.60830  0.61040  0.97600  Biso   1.000  F
  F16      1.0000 0.39170  0.38960  0.02400  Biso   1.000  F
  F17      1.0000 0.60900  0.61790  0.13040  Biso   1.000  F
  F18      1.0000 0.39100  0.38210  0.86960  Biso   1.000  F
  C13      1.0000 0.78740  0.55990  0.07490  Biso   1.000  C
  C14      1.0000 0.21260  0.44010  0.92510  Biso   1.000  C
  C15      1.0000 0.80110  0.50520  0.15240  Biso   1.000  C
  C16      1.0000 0.19890  0.49480  0.84760  Biso   1.000  C
  H3       1.0000 0.74740  0.51080  0.19820  Biso   1.000  H
  H4       1.0000 0.25260  0.48920  0.80180  Biso   1.000  H
  C17      1.0000 0.89070  0.44360  0.16380  Biso   1.000  C
  C18      1.0000 0.10930  0.55640  0.83620  Biso   1.000  C
  C19      1.0000 0.89890  0.38800  0.25060  Biso   1.000  C
  C20      1.0000 0.10110  0.61200  0.74940  Biso   1.000  C
  F19      1.0000 0.03500  0.40100  0.30100  Biso   1.000  F
  F20      1.0000 0.96500  0.59900  0.69900  Biso   1.000  F
  F21      1.0000 0.85190  0.27360  0.21390  Biso   1.000  F
  F22      1.0000 0.14810  0.72640  0.78610  Biso   1.000  F
  F23      1.0000 0.85800  0.43100  0.32500  Biso   1.000  F
  F24      1.0000 0.14200  0.56900  0.67500  Biso   1.000  F
  O7       1.0000 0.96950  0.42610  0.11010  Biso   1.000  O
  O8       1.0000 0.03050  0.57390  0.88990  Biso   1.000  O
  O9       1.0000 0.53440  0.97980  0.65870  Biso   1.000  O
  O10      1.0000 0.46560  0.02020  0.34130  Biso   1.000  O
  N1       1.0000 0.64130  0.96290  0.71510  Biso   1.000  N
  N2       1.0000 0.35870  0.03710  0.28490  Biso   1.000  N
  C21      1.0000 0.64100  0.85050  0.72520  Biso   1.000  C
  C22      1.0000 0.35900  0.14950  0.27480  Biso   1.000  C
  C23      1.0000 0.53700  0.81810  0.78700  Biso   1.000  C
  C24      1.0000 0.46300  0.18190  0.21300  Biso   1.000  C
  H5       1.0000 0.44270  0.80520  0.74590  Biso   1.000  H
  H6       1.0000 0.55730  0.19480  0.25410  Biso   1.000  H
  H7       1.0000 0.54450  0.75190  0.80740  Biso   1.000  H
  H8       1.0000 0.45550  0.24810  0.19260  Biso   1.000  H
  H9       1.0000 0.55830  0.87670  0.84650  Biso   1.000  H
  H10      1.0000 0.44170  0.12330  0.15350  Biso   1.000  H
  C25      1.0000 0.59200  0.77120  0.62150  Biso   1.000  C
  C26      1.0000 0.40800  0.22880  0.37850  Biso   1.000  C
  H11      1.0000 0.65870  0.79210  0.58360  Biso   1.000  H
  H12      1.0000 0.34130  0.20790  0.41640  Biso   1.000  H
  H13      1.0000 0.58480  0.69760  0.62950  Biso   1.000  H
  H14      1.0000 0.41520  0.30240  0.37050  Biso   1.000  H
  H15      1.0000 0.50130  0.77330  0.58540  Biso   1.000  H
  H16      1.0000 0.49870  0.22670  0.41460  Biso   1.000  H
  C27      1.0000 0.79640  0.87340  0.78240  Biso   1.000  C
  C28      1.0000 0.20360  0.12660  0.21760  Biso   1.000  C
  C29      1.0000 0.82470  0.81140  0.86410  Biso   1.000  C
  C30      1.0000 0.17530  0.18860  0.13590  Biso   1.000  C
  H17      1.0000 0.80020  0.73410  0.83300  Biso   1.000  H
  H18      1.0000 0.19980  0.26590  0.16700  Biso   1.000  H
  H19      1.0000 0.92300  0.83890  0.90100  Biso   1.000  H
  H20      1.0000 0.07700  0.16110  0.09900  Biso   1.000  H
  H21      1.0000 0.76900  0.82190  0.91040  Biso   1.000  H
  H22      1.0000 0.23100  0.17810  0.08960  Biso   1.000  H
  C31      1.0000 0.88920  0.86290  0.71130  Biso   1.000  C
  C32      1.0000 0.11080  0.13710  0.28870  Biso   1.000  C
  H23      1.0000 0.86700  0.78660  0.67750  Biso   1.000  H
  H24      1.0000 0.13300  0.21340  0.32250  Biso   1.000  H
  H25      1.0000 0.87250  0.90490  0.66140  Biso   1.000  H
  H26      1.0000 0.12750  0.09510  0.33860  Biso   1.000  H
  H27      1.0000 0.98660  0.89070  0.75020  Biso   1.000  H
  H28      1.0000 0.01340  0.10930  0.24980  Biso   1.000  H
  N3       1.0000 0.83650  0.99300  0.83050  Biso   1.000  N
  N4       1.0000 0.16350  0.00700  0.16950  Biso   1.000  N
  O11      1.0000 0.95080  0.04330  0.89750  Biso   1.000  O
  O12      1.0000 0.04920  0.95670  0.10250  Biso   1.000  O
  C33      1.0000 0.74800  0.04100  0.78420  Biso   1.000  C
  C34      1.0000 0.25200  0.95900  0.21580  Biso   1.000  C
  C35      1.0000 0.76460  0.15620  0.80500  Biso   1.000  C
  C36      1.0000 0.23540  0.84380  0.19500  Biso   1.000  C
  C37      1.0000 0.87620  0.24050  0.87840  Biso   1.000  C
  C38      1.0000 0.12380  0.75950  0.12160  Biso   1.000  C
  H29      1.0000 0.95250  0.22920  0.92150  Biso   1.000  H
  H30      1.0000 0.04750  0.77080  0.07850  Biso   1.000  H
  N5       1.0000 0.85720  0.33760  0.87740  Biso   1.000  N
  N6       1.0000 0.14280  0.66240  0.12260  Biso   1.000  N
  N7       1.0000 0.73460  0.31640  0.80430  Biso   1.000  N
  N8       1.0000 0.26540  0.68360  0.19570  Biso   1.000  N
  C39      1.0000 0.68980  0.40840  0.78080  Biso   1.000  C
  C40      1.0000 0.31020  0.59160  0.21920  Biso   1.000  C
  H31      1.0000 0.67350  0.44750  0.84110  Biso   1.000  H
  H32      1.0000 0.32650  0.55250  0.15890  Biso   1.000  H
  H33      1.0000 0.76570  0.45890  0.76450  Biso   1.000  H
  H34      1.0000 0.23430  0.54110  0.23550  Biso   1.000  H
  C41      1.0000 0.56110  0.37770  0.69540  Biso   1.000  C
  C42      1.0000 0.43890  0.62230  0.30460  Biso   1.000  C
  H35      1.0000 0.57620  0.33880  0.63450  Biso   1.000  H
  H36      1.0000 0.42380  0.66120  0.36550  Biso   1.000  H
  H37      1.0000 0.48380  0.32830  0.71140  Biso   1.000  H
  H38      1.0000 0.51620  0.67170  0.28860  Biso   1.000  H
  C43      1.0000 0.52280  0.47860  0.67580  Biso   1.000  C
  C44      1.0000 0.47720  0.52140  0.32420  Biso   1.000  C
  H39      1.0000 0.59730  0.52450  0.65450  Biso   1.000  H
  H40      1.0000 0.40270  0.47550  0.34550  Biso   1.000  H
  H41      1.0000 0.51740  0.52080  0.73900  Biso   1.000  H
  H42      1.0000 0.48260  0.47920  0.26100  Biso   1.000  H
  C45      1.0000 0.38720  0.45310  0.59700  Biso   1.000  C
  C46      1.0000 0.61280  0.54690  0.40300  Biso   1.000  C
  H43      1.0000 0.36900  0.52070  0.58820  Biso   1.000  H
  H44      1.0000 0.63100  0.47930  0.41180  Biso   1.000  H
  H45      1.0000 0.39240  0.41290  0.53360  Biso   1.000  H
  H46      1.0000 0.60760  0.58710  0.46640  Biso   1.000  H
  H47      1.0000 0.31240  0.40910  0.61820  Biso   1.000  H
  H48      1.0000 0.68760  0.59090  0.38180  Biso   1.000  H
  C47      1.0000 0.67950  0.21030  0.76060  Biso   1.000  C
  C48      1.0000 0.32050  0.78970  0.23940  Biso   1.000  C
  H49      1.0000 0.59630  0.17770  0.70810  Biso   1.000  H
  H50      1.0000 0.40370  0.82230  0.29190  Biso   1.000  H
  C49      1.0000 0.47030  0.01830  0.97970  Biso   1.000  C
  C50      1.0000 0.52970  0.98170  0.02030  Biso   1.000  C
  C51      1.0000 0.60670  0.08130  0.99740  Biso   1.000  C
  C52      1.0000 0.39330  0.91870  0.00260  Biso   1.000  C
  H51      1.0000 0.62680  0.14580  0.97320  Biso   1.000  H
  H52      1.0000 0.37320  0.85420  0.02680  Biso   1.000  H
  C53      1.0000 0.71380  0.05090  0.05030  Biso   1.000  C
  C54      1.0000 0.28620  0.94910  0.94970  Biso   1.000  C
  H53      1.0000 0.80800  0.09440  0.06260  Biso   1.000  H
  H54      1.0000 0.19200  0.90560  0.93740  Biso   1.000  H
  C55      1.0000 0.68460  0.95750  0.08540  Biso   1.000  C
  C56      1.0000 0.31540  0.04250  0.91460  Biso   1.000  C
  H55      1.0000 0.75860  0.93650  0.12190  Biso   1.000  H
  H56      1.0000 0.24140  0.06350  0.87810  Biso   1.000  H
  C57      1.0000 0.54820  0.89450  0.06770  Biso   1.000  C
  C58      1.0000 0.45180  0.10550  0.93230  Biso   1.000  C
  H57      1.0000 0.52800  0.83000  0.09190  Biso   1.000  H
  H58      1.0000 0.47200  0.17000  0.90810  Biso   1.000  H
  C59      1.0000 0.44110  0.92490  0.01480  Biso   1.000  C
  C60      1.0000 0.55890  0.07510  0.98520  Biso   1.000  C
  H59      1.0000 0.34690  0.88140  0.00250  Biso   1.000  H
  H60      1.0000 0.65310  0.11860  0.99750  Biso   1.000  H
  C61      1.0000 0.38820  0.06870  0.91600  Biso   1.000  C
  C62      1.0000 0.61180  0.93130  0.08400  Biso   1.000  C
  H61      1.0000 0.43650  0.12440  0.89030  Biso   1.000  H
  H62      1.0000 0.56350  0.87560  0.10970  Biso   1.000  H
  C63      1.0000 0.26200  0.04430  0.89330  Biso   1.000  C
  C64      1.0000 0.73800  0.95570  0.10670  Biso   1.000  C
  H63      1.0000 0.21020  0.98890  0.91750  Biso   1.000  H
  H64      1.0000 0.78980  0.01110  0.08250  Biso   1.000  H
  H65      1.0000 0.21580  0.08070  0.85150  Biso   1.000  H
  H66      1.0000 0.78420  0.91930  0.14850  Biso   1.000  H
  F25      1.0000 0.86400  0.29300  0.22300  Biso   1.000  F
  F26      1.0000 0.13600  0.70700  0.77700  Biso   1.000  F
  F27      1.0000 0.79600  0.39300  0.29700  Biso   1.000  F
  F28      1.0000 0.20400  0.60700  0.70300  Biso   1.000  F
  F29      1.0000 0.98200  0.58210  0.69080  Biso   1.000  F
  F30      1.0000 0.01800  0.41790  0.30920  Biso   1.000  F
  F31      1.0000 0.21200  0.66000  0.47400  Biso   1.000  F
  F32      1.0000 0.78800  0.34000  0.52600  Biso   1.000  F
  F33      1.0000 0.08800  0.69600  0.35410  Biso   1.000  F
  F34      1.0000 0.91200  0.30400  0.64590  Biso   1.000  F
