data_image0
_cell_length_a       10.3435
_cell_length_b       13.1149
_cell_length_c       13.4227
_cell_angle_alpha    98.558
_cell_angle_beta     107.312
_cell_angle_gamma    100.499

_symmetry_space_group_name_H-M    "P 1"
_symmetry_int_tables_number       1

loop_
  _symmetry_equiv_pos_as_xyz
  'x, y, z'

loop_
  _atom_site_label
  _atom_site_occupancy
  _atom_site_fract_x
  _atom_site_fract_y
  _atom_site_fract_z
  _atom_site_thermal_displace_type
  _atom_site_B_iso_or_equiv
  _atom_site_type_symbol
  Cu1      1.0000 0.00000  0.00000  0.00000  Biso   1.000  Cu
  O1       1.0000 0.86050  0.08710  0.04910  Biso   1.000  O
  O2       1.0000 0.13950  0.91290  0.95090  Biso   1.000  O
  C1       1.0000 0.70720  0.12120  0.13820  Biso   1.000  C
  C2       1.0000 0.29280  0.87880  0.86180  Biso   1.000  C
  F1       1.0000 0.80770  0.17250  0.22990  Biso   1.000  F
  F2       1.0000 0.19230  0.82750  0.77010  Biso   1.000  F
  F3       1.0000 0.67050  0.19470  0.08500  Biso   1.000  F
  F4       1.0000 0.32950  0.80530  0.91500  Biso   1.000  F
  F5       1.0000 0.59740  0.07750  0.16310  Biso   1.000  F
  F6       1.0000 0.40260  0.92250  0.83690  Biso   1.000  F
  C3       1.0000 0.76200  0.04420  0.07560  Biso   1.000  C
  C4       1.0000 0.23800  0.95580  0.92440  Biso   1.000  C
  C5       1.0000 0.69670  0.93540  0.05380  Biso   1.000  C
  C6       1.0000 0.30330  0.06460  0.94620  Biso   1.000  C
  H1       1.0000 0.61990  0.91430  0.07730  Biso   1.000  H
  H2       1.0000 0.38010  0.08570  0.92270  Biso   1.000  H
  C7       1.0000 0.74160  0.85720  0.99820  Biso   1.000  C
  C8       1.0000 0.25840  0.14280  0.00180  Biso   1.000  C
  C9       1.0000 0.65950  0.74250  0.97400  Biso   1.000  C
  C10      1.0000 0.34050  0.25750  0.02600  Biso   1.000  C
  F7       1.0000 0.59560  0.70740  0.86730  Biso   1.000  F
  F8       1.0000 0.40440  0.29260  0.13270  Biso   1.000  F
  F9       1.0000 0.56030  0.72610  0.01770  Biso   1.000  F
  F10      1.0000 0.43970  0.27390  0.98230  Biso   1.000  F
  F11      1.0000 0.74340  0.67990  0.00590  Biso   1.000  F
  F12      1.0000 0.25660  0.32010  0.99410  Biso   1.000  F
  O3       1.0000 0.84250  0.86940  0.96380  Biso   1.000  O
  O4       1.0000 0.15750  0.13060  0.03620  Biso   1.000  O
  O5       1.0000 0.95210  0.01510  0.84670  Biso   1.000  O
  O6       1.0000 0.04790  0.98490  0.15330  Biso   1.000  O
  N1       1.0000 0.83260  0.03160  0.79180  Biso   1.000  N
  N2       1.0000 0.16740  0.96840  0.20820  Biso   1.000  N
  C11      1.0000 0.82090  0.13970  0.77280  Biso   1.000  C
  C12      1.0000 0.17910  0.86030  0.22720  Biso   1.000  C
  C13      1.0000 0.88870  0.22410  0.87550  Biso   1.000  C
  C14      1.0000 0.11130  0.77590  0.12450  Biso   1.000  C
  H3       1.0000 0.83940  0.21030  0.92600  Biso   1.000  H
  H4       1.0000 0.16060  0.78970  0.07400  Biso   1.000  H
  H5       1.0000 0.98650  0.22220  0.90700  Biso   1.000  H
  H6       1.0000 0.01350  0.77780  0.09300  Biso   1.000  H
  H7       1.0000 0.88390  0.29420  0.85990  Biso   1.000  H
  H8       1.0000 0.11610  0.70580  0.14010  Biso   1.000  H
  C15      1.0000 0.89650  0.16150  0.69350  Biso   1.000  C
  C16      1.0000 0.10350  0.83850  0.30650  Biso   1.000  C
  H9       1.0000 0.99720  0.17360  0.72910  Biso   1.000  H
  H10      1.0000 0.00280  0.82640  0.27090  Biso   1.000  H
  H11      1.0000 0.86470  0.10030  0.63320  Biso   1.000  H
  H12      1.0000 0.13530  0.89970  0.36680  Biso   1.000  H
  H13      1.0000 0.87600  0.22470  0.66740  Biso   1.000  H
  H14      1.0000 0.12400  0.77530  0.33260  Biso   1.000  H
  C17      1.0000 0.66030  0.11980  0.72490  Biso   1.000  C
  C18      1.0000 0.33970  0.88020  0.27510  Biso   1.000  C
  C19      1.0000 0.58890  0.13460  0.80800  Biso   1.000  C
  C20      1.0000 0.41110  0.86540  0.19200  Biso   1.000  C
  H15      1.0000 0.48790  0.12050  0.77220  Biso   1.000  H
  H16      1.0000 0.51210  0.87950  0.22780  Biso   1.000  H
  H17      1.0000 0.60890  0.08520  0.85540  Biso   1.000  H
  H18      1.0000 0.39110  0.91480  0.14460  Biso   1.000  H
  H19      1.0000 0.62370  0.20770  0.85020  Biso   1.000  H
  H20      1.0000 0.37630  0.79230  0.14980  Biso   1.000  H
  C21      1.0000 0.60840  0.17790  0.63720  Biso   1.000  C
  C22      1.0000 0.39160  0.82210  0.36280  Biso   1.000  C
  H21      1.0000 0.50620  0.16070  0.61190  Biso   1.000  H
  H22      1.0000 0.49380  0.83930  0.38810  Biso   1.000  H
  H23      1.0000 0.64440  0.25470  0.66520  Biso   1.000  H
  H24      1.0000 0.35560  0.74530  0.33480  Biso   1.000  H
  H25      1.0000 0.64100  0.15600  0.57770  Biso   1.000  H
  H26      1.0000 0.35900  0.84400  0.42230  Biso   1.000  H
  O7       1.0000 0.50080  0.95290  0.61420  Biso   1.000  O
  O8       1.0000 0.49920  0.04710  0.38580  Biso   1.000  O
  N3       1.0000 0.62170  0.00130  0.67820  Biso   1.000  N
  N4       1.0000 0.37830  0.99870  0.32180  Biso   1.000  N
  C23      1.0000 0.72390  0.95480  0.72410  Biso   1.000  C
  C24      1.0000 0.27610  0.04520  0.27590  Biso   1.000  C
  C25      1.0000 0.71570  0.84270  0.70060  Biso   1.000  C
  C26      1.0000 0.28430  0.15730  0.29940  Biso   1.000  C
  C27      1.0000 0.60490  0.76140  0.62880  Biso   1.000  C
  C28      1.0000 0.39510  0.23860  0.37120  Biso   1.000  C
  H27      1.0000 0.51830  0.77200  0.58730  Biso   1.000  H
  H28      1.0000 0.48170  0.22800  0.41270  Biso   1.000  H
  N5       1.0000 0.63700  0.66810  0.62660  Biso   1.000  N
  N6       1.0000 0.36300  0.33190  0.37340  Biso   1.000  N
  N7       1.0000 0.76830  0.68930  0.69800  Biso   1.000  N
  N8       1.0000 0.23170  0.31070  0.30200  Biso   1.000  N
  C29      1.0000 0.83710  0.60170  0.71430  Biso   1.000  C
  C30      1.0000 0.16290  0.39830  0.28570  Biso   1.000  C
  H29      1.0000 0.76610  0.53750  0.70910  Biso   1.000  H
  H30      1.0000 0.23390  0.46250  0.29090  Biso   1.000  H
  H31      1.0000 0.87540  0.58630  0.65590  Biso   1.000  H
  H32      1.0000 0.12460  0.41370  0.34410  Biso   1.000  H
  C31      1.0000 0.95330  0.62270  0.81990  Biso   1.000  C
  C32      1.0000 0.04670  0.37730  0.18010  Biso   1.000  C
  H33      1.0000 0.02630  0.68580  0.82570  Biso   1.000  H
  H34      1.0000 0.97370  0.31420  0.17430  Biso   1.000  H
  H35      1.0000 0.91640  0.63760  0.87930  Biso   1.000  H
  H36      1.0000 0.08360  0.36240  0.12070  Biso   1.000  H
  C33      1.0000 0.01670  0.52650  0.82900  Biso   1.000  C
  C34      1.0000 0.98330  0.47350  0.17100  Biso   1.000  C
  H37      1.0000 0.04710  0.50920  0.76650  Biso   1.000  H
  H38      1.0000 0.95290  0.49080  0.23350  Biso   1.000  H
  H39      1.0000 0.94390  0.46480  0.82660  Biso   1.000  H
  H40      1.0000 0.05610  0.53520  0.17340  Biso   1.000  H
  C35      1.0000 0.14060  0.54350  0.93070  Biso   1.000  C
  C36      1.0000 0.85940  0.45650  0.06930  Biso   1.000  C
  H41      1.0000 0.17610  0.47920  0.93150  Biso   1.000  H
  H42      1.0000 0.82390  0.52080  0.06850  Biso   1.000  H
  H43      1.0000 0.21430  0.60340  0.93290  Biso   1.000  H
  H44      1.0000 0.78570  0.39660  0.06710  Biso   1.000  H
  H45      1.0000 0.11100  0.55890  0.99310  Biso   1.000  H
  H46      1.0000 0.88900  0.44110  0.00690  Biso   1.000  H
  C37      1.0000 0.81900  0.79310  0.74290  Biso   1.000  C
  C38      1.0000 0.18100  0.20690  0.25710  Biso   1.000  C
  H47      1.0000 0.90860  0.82580  0.79390  Biso   1.000  H
  H48      1.0000 0.09140  0.17420  0.20610  Biso   1.000  H
  Cu2      1.0000 0.50000  0.50000  0.50000  Biso   1.000  Cu
  O9       1.0000 0.34110  0.55940  0.49950  Biso   1.000  O
  O10      1.0000 0.65890  0.44060  0.50050  Biso   1.000  O
  C39      1.0000 0.18260  0.63270  0.55830  Biso   1.000  C
  C40      1.0000 0.81740  0.36730  0.44170  Biso   1.000  C
  F13      1.0000 0.11700  0.63150  0.63100  Biso   1.000  F
  F14      1.0000 0.88300  0.36850  0.36900  Biso   1.000  F
  F15      1.0000 0.08370  0.59210  0.46190  Biso   1.000  F
  F16      1.0000 0.91630  0.40790  0.53810  Biso   1.000  F
  F17      1.0000 0.23600  0.73400  0.56170  Biso   1.000  F
  F18      1.0000 0.76400  0.26600  0.43830  Biso   1.000  F
  C41      1.0000 0.29610  0.57060  0.57660  Biso   1.000  C
  C42      1.0000 0.70390  0.42940  0.42340  Biso   1.000  C
  C43      1.0000 0.33650  0.53580  0.67100  Biso   1.000  C
  C44      1.0000 0.66350  0.46420  0.32900  Biso   1.000  C
  H49      1.0000 0.29610  0.55370  0.72420  Biso   1.000  H
  H50      1.0000 0.70390  0.44630  0.27580  Biso   1.000  H
  C45      1.0000 0.43460  0.47540  0.68990  Biso   1.000  C
  C46      1.0000 0.56540  0.52460  0.31010  Biso   1.000  C
  C47      1.0000 0.47280  0.43590  0.79350  Biso   1.000  C
  C48      1.0000 0.52720  0.56410  0.20650  Biso   1.000  C
  F19      1.0000 0.42690  0.48340  0.86680  Biso   1.000  F
  F20      1.0000 0.57310  0.51660  0.13320  Biso   1.000  F
  F21      1.0000 0.41180  0.33060  0.77270  Biso   1.000  F
  F22      1.0000 0.58820  0.66940  0.22730  Biso   1.000  F
  F23      1.0000 0.60800  0.44710  0.83660  Biso   1.000  F
  F24      1.0000 0.39200  0.55290  0.16340  Biso   1.000  F
  O11      1.0000 0.50010  0.44500  0.62850  Biso   1.000  O
  O12      1.0000 0.49990  0.55500  0.37150  Biso   1.000  O
  C49      1.0000 0.15030  0.25280  0.51550  Biso   1.000  C
  C50      1.0000 0.84970  0.74720  0.48450  Biso   1.000  C
  H51      1.0000 0.24370  0.27660  0.56540  Biso   1.000  H
  H52      1.0000 0.75630  0.72340  0.43460  Biso   1.000  H
  H53      1.0000 0.09290  0.29570  0.53640  Biso   1.000  H
  H54      1.0000 0.90710  0.70430  0.46360  Biso   1.000  H
  H55      1.0000 0.15100  0.25900  0.44530  Biso   1.000  H
  H56      1.0000 0.84900  0.74100  0.55470  Biso   1.000  H
  C51      1.0000 0.08990  0.13320  0.51460  Biso   1.000  C
  C52      1.0000 0.91010  0.86680  0.48540  Biso   1.000  C
  C53      1.0000 0.16530  0.07880  0.58320  Biso   1.000  C
  C54      1.0000 0.83470  0.92120  0.41680  Biso   1.000  C
  H57      1.0000 0.25850  0.11290  0.62980  Biso   1.000  H
  H58      1.0000 0.74150  0.88710  0.37020  Biso   1.000  H
  C55      1.0000 0.10570  0.97520  0.58410  Biso   1.000  C
  C56      1.0000 0.89430  0.02480  0.41590  Biso   1.000  C
  H59      1.0000 0.15770  0.93770  0.63140  Biso   1.000  H
  H60      1.0000 0.84230  0.06230  0.36860  Biso   1.000  H
  C57      1.0000 0.97070  0.92590  0.51660  Biso   1.000  C
  C58      1.0000 0.02930  0.07410  0.48340  Biso   1.000  C
  C59      1.0000 0.89530  0.98030  0.44810  Biso   1.000  C
  C60      1.0000 0.10470  0.01970  0.55190  Biso   1.000  C
  H61      1.0000 0.80210  0.94620  0.40150  Biso   1.000  H
  H62      1.0000 0.19790  0.05380  0.59850  Biso   1.000  H
  C61      1.0000 0.95490  0.08390  0.44710  Biso   1.000  C
  C62      1.0000 0.04510  0.91610  0.55290  Biso   1.000  C
  H63      1.0000 0.90290  0.12140  0.39980  Biso   1.000  H
  H64      1.0000 0.09710  0.87860  0.60020  Biso   1.000  H
  C63      1.0000 0.92130  0.80280  0.52400  Biso   1.000  C
  C64      1.0000 0.07870  0.19720  0.47600  Biso   1.000  C
  H65      1.0000 0.97870  0.77980  0.58260  Biso   1.000  H
  H66      1.0000 0.02130  0.22020  0.41740  Biso   1.000  H
  C65      1.0000 0.81310  0.73340  0.45900  Biso   1.000  C
  C66      1.0000 0.18690  0.26660  0.54100  Biso   1.000  C
  H67      1.0000 0.75620  0.75130  0.40280  Biso   1.000  H
  H68      1.0000 0.24380  0.24870  0.59720  Biso   1.000  H
  H69      1.0000 0.79440  0.66700  0.46970  Biso   1.000  H
  H70      1.0000 0.20560  0.33300  0.53030  Biso   1.000  H
