data_image0
_cell_length_a       10.49
_cell_length_b       13.148
_cell_length_c       14.091
_cell_angle_alpha    99.462
_cell_angle_beta     103.441
_cell_angle_gamma    105.565

_symmetry_space_group_name_H-M    "P 1"
_symmetry_int_tables_number       1

loop_
  _symmetry_equiv_pos_as_xyz
  'x, y, z'

loop_
  _atom_site_label
  _atom_site_occupancy
  _atom_site_fract_x
  _atom_site_fract_y
  _atom_site_fract_z
  _atom_site_thermal_displace_type
  _atom_site_B_iso_or_equiv
  _atom_site_type_symbol
  Cu1      1.0000 0.50000  0.00000  0.50000  Biso   1.000  Cu
  O1       1.0000 0.65140  0.14560  0.53860  Biso   1.000  O
  O2       1.0000 0.34860  0.85440  0.46140  Biso   1.000  O
  C1       1.0000 0.84770  0.28080  0.54190  Biso   1.000  C
  C2       1.0000 0.15230  0.71920  0.45810  Biso   1.000  C
  F1       1.0000 0.77100  0.35800  0.51600  Biso   1.000  F
  F2       1.0000 0.22900  0.64200  0.48400  Biso   1.000  F
  F3       1.0000 0.90700  0.31300  0.65060  Biso   1.000  F
  F4       1.0000 0.09300  0.68700  0.34940  Biso   1.000  F
  F5       1.0000 0.94940  0.30090  0.49980  Biso   1.000  F
  F6       1.0000 0.05060  0.69910  0.50020  Biso   1.000  F
  F7       1.0000 0.91200  0.31200  0.61960  Biso   1.000  F
  F8       1.0000 0.08800  0.68800  0.38040  Biso   1.000  F
  C3       1.0000 0.76010  0.16210  0.51170  Biso   1.000  C
  C4       1.0000 0.23990  0.83790  0.48830  Biso   1.000  C
  C5       1.0000 0.80460  0.08430  0.46060  Biso   1.000  C
  C6       1.0000 0.19540  0.91570  0.53940  Biso   1.000  C
  H1       1.0000 0.88470  0.10790  0.44030  Biso   1.000  H
  H2       1.0000 0.11530  0.89210  0.55970  Biso   1.000  H
  C7       1.0000 0.73620  0.97540  0.43910  Biso   1.000  C
  C8       1.0000 0.26380  0.02460  0.56090  Biso   1.000  C
  C9       1.0000 0.79650  0.89660  0.38700  Biso   1.000  C
  C10      1.0000 0.20350  0.10340  0.61300  Biso   1.000  C
  F9       1.0000 0.91460  0.94300  0.37040  Biso   1.000  F
  F10      1.0000 0.08540  0.05700  0.62960  Biso   1.000  F
  F11      1.0000 0.70760  0.83970  0.29800  Biso   1.000  F
  F12      1.0000 0.29240  0.16030  0.70200  Biso   1.000  F
  F13      1.0000 0.81690  0.82450  0.43770  Biso   1.000  F
  F14      1.0000 0.18310  0.17550  0.56230  Biso   1.000  F
  O3       1.0000 0.62580  0.92670  0.45610  Biso   1.000  O
  O4       1.0000 0.37420  0.07330  0.54390  Biso   1.000  O
  Cu2      1.0000 0.00000  0.50000  0.00000  Biso   1.000  Cu
  O5       1.0000 0.85190  0.56030  0.00770  Biso   1.000  O
  O6       1.0000 0.14810  0.43970  0.99230  Biso   1.000  O
  C11      1.0000 0.70040  0.63020  0.07120  Biso   1.000  C
  C12      1.0000 0.29960  0.36980  0.92880  Biso   1.000  C
  F15      1.0000 0.76950  0.73290  0.09660  Biso   1.000  F
  F16      1.0000 0.23050  0.26710  0.90340  Biso   1.000  F
  F17      1.0000 0.61850  0.61280  0.97900  Biso   1.000  F
  F18      1.0000 0.38150  0.38720  0.02100  Biso   1.000  F
  F19      1.0000 0.62030  0.61820  0.13130  Biso   1.000  F
  F20      1.0000 0.37970  0.38180  0.86870  Biso   1.000  F
  C13      1.0000 0.79550  0.55940  0.07750  Biso   1.000  C
  C14      1.0000 0.20450  0.44060  0.92250  Biso   1.000  C
  C15      1.0000 0.81020  0.50700  0.15400  Biso   1.000  C
  C16      1.0000 0.18980  0.49300  0.84600  Biso   1.000  C
  H3       1.0000 0.75970  0.51380  0.20050  Biso   1.000  H
  H4       1.0000 0.24030  0.48620  0.79950  Biso   1.000  H
  C17      1.0000 0.89790  0.44400  0.16450  Biso   1.000  C
  C18      1.0000 0.10210  0.55600  0.83550  Biso   1.000  C
  C19      1.0000 0.90890  0.39090  0.25190  Biso   1.000  C
  C20      1.0000 0.09110  0.60910  0.74810  Biso   1.000  C
  F21      1.0000 0.04100  0.39900  0.29900  Biso   1.000  F
  F22      1.0000 0.95900  0.60100  0.70100  Biso   1.000  F
  F23      1.0000 0.85700  0.27040  0.21400  Biso   1.000  F
  F24      1.0000 0.14300  0.72960  0.78600  Biso   1.000  F
  F25      1.0000 0.88100  0.44200  0.32990  Biso   1.000  F
  F26      1.0000 0.11900  0.55800  0.67010  Biso   1.000  F
  O7       1.0000 0.97260  0.42730  0.11110  Biso   1.000  O
  O8       1.0000 0.02740  0.57270  0.88890  Biso   1.000  O
  O9       1.0000 0.53800  0.98020  0.65840  Biso   1.000  O
  O10      1.0000 0.46200  0.01980  0.34160  Biso   1.000  O
  N1       1.0000 0.64380  0.96570  0.71620  Biso   1.000  N
  N2       1.0000 0.35620  0.03430  0.28380  Biso   1.000  N
  C21      1.0000 0.64420  0.85350  0.72540  Biso   1.000  C
  C22      1.0000 0.35580  0.14650  0.27460  Biso   1.000  C
  C23      1.0000 0.54230  0.81890  0.78540  Biso   1.000  C
  C24      1.0000 0.45770  0.18110  0.21460  Biso   1.000  C
  H5       1.0000 0.44880  0.80620  0.74420  Biso   1.000  H
  H6       1.0000 0.55120  0.19380  0.25580  Biso   1.000  H
  H7       1.0000 0.54940  0.75260  0.80440  Biso   1.000  H
  H8       1.0000 0.45060  0.24740  0.19560  Biso   1.000  H
  H9       1.0000 0.56410  0.87610  0.84540  Biso   1.000  H
  H10      1.0000 0.43590  0.12390  0.15460  Biso   1.000  H
  C25      1.0000 0.59800  0.77680  0.62290  Biso   1.000  C
  C26      1.0000 0.40200  0.22320  0.37710  Biso   1.000  C
  H11      1.0000 0.66520  0.79900  0.58700  Biso   1.000  H
  H12      1.0000 0.33480  0.20100  0.41300  Biso   1.000  H
  H13      1.0000 0.59030  0.70340  0.63020  Biso   1.000  H
  H14      1.0000 0.40970  0.29660  0.36980  Biso   1.000  H
  H15      1.0000 0.50870  0.77850  0.58540  Biso   1.000  H
  H16      1.0000 0.49130  0.22150  0.41460  Biso   1.000  H
  C27      1.0000 0.80020  0.87800  0.78350  Biso   1.000  C
  C28      1.0000 0.19980  0.12200  0.21650  Biso   1.000  C
  C29      1.0000 0.82660  0.81830  0.86610  Biso   1.000  C
  C30      1.0000 0.17340  0.18170  0.13390  Biso   1.000  C
  H17      1.0000 0.80260  0.74120  0.83620  Biso   1.000  H
  H18      1.0000 0.19740  0.25880  0.16380  Biso   1.000  H
  H19      1.0000 0.92360  0.84680  0.90450  Biso   1.000  H
  H20      1.0000 0.07640  0.15320  0.09550  Biso   1.000  H
  H21      1.0000 0.77040  0.82880  0.91030  Biso   1.000  H
  H22      1.0000 0.22960  0.17120  0.08970  Biso   1.000  H
  C31      1.0000 0.88970  0.86960  0.71340  Biso   1.000  C
  C32      1.0000 0.11030  0.13040  0.28660  Biso   1.000  C
  H23      1.0000 0.86800  0.79390  0.67960  Biso   1.000  H
  H24      1.0000 0.13200  0.20610  0.32040  Biso   1.000  H
  H25      1.0000 0.87150  0.91100  0.66380  Biso   1.000  H
  H26      1.0000 0.12850  0.08900  0.33620  Biso   1.000  H
  H27      1.0000 0.98650  0.89840  0.75210  Biso   1.000  H
  H28      1.0000 0.01350  0.10160  0.24790  Biso   1.000  H
  N3       1.0000 0.83560  0.99640  0.83170  Biso   1.000  N
  N4       1.0000 0.16440  0.00360  0.16830  Biso   1.000  N
  O11      1.0000 0.95040  0.04870  0.89960  Biso   1.000  O
  O12      1.0000 0.04960  0.95130  0.10040  Biso   1.000  O
  C33      1.0000 0.74680  0.04310  0.78520  Biso   1.000  C
  C34      1.0000 0.25320  0.95690  0.21480  Biso   1.000  C
  C35      1.0000 0.76350  0.15740  0.80820  Biso   1.000  C
  C36      1.0000 0.23650  0.84260  0.19180  Biso   1.000  C
  C37      1.0000 0.87250  0.24280  0.88230  Biso   1.000  C
  C38      1.0000 0.12750  0.75720  0.11770  Biso   1.000  C
  H29      1.0000 0.94820  0.23290  0.92610  Biso   1.000  H
  H30      1.0000 0.05180  0.76710  0.07390  Biso   1.000  H
  N5       1.0000 0.85300  0.33790  0.88120  Biso   1.000  N
  N6       1.0000 0.14700  0.66210  0.11880  Biso   1.000  N
  N7       1.0000 0.73090  0.31550  0.80660  Biso   1.000  N
  N8       1.0000 0.26910  0.68450  0.19340  Biso   1.000  N
  C39      1.0000 0.68690  0.40800  0.78320  Biso   1.000  C
  C40      1.0000 0.31310  0.59200  0.21680  Biso   1.000  C
  H31      1.0000 0.76350  0.45980  0.77010  Biso   1.000  H
  H32      1.0000 0.23650  0.54020  0.22990  Biso   1.000  H
  H33      1.0000 0.66920  0.44490  0.84270  Biso   1.000  H
  H34      1.0000 0.33080  0.55510  0.15730  Biso   1.000  H
  C41      1.0000 0.56500  0.38070  0.69840  Biso   1.000  C
  C42      1.0000 0.43500  0.61930  0.30160  Biso   1.000  C
  H35      1.0000 0.58270  0.34580  0.63800  Biso   1.000  H
  H36      1.0000 0.41730  0.65420  0.36200  Biso   1.000  H
  H37      1.0000 0.48800  0.32830  0.71050  Biso   1.000  H
  H38      1.0000 0.51200  0.67170  0.28950  Biso   1.000  H
  C43      1.0000 0.52350  0.47900  0.67970  Biso   1.000  C
  C44      1.0000 0.47650  0.52100  0.32030  Biso   1.000  C
  H39      1.0000 0.59660  0.52730  0.66030  Biso   1.000  H
  H40      1.0000 0.40340  0.47270  0.33970  Biso   1.000  H
  H41      1.0000 0.51730  0.51870  0.74280  Biso   1.000  H
  H42      1.0000 0.48270  0.48130  0.25720  Biso   1.000  H
  C45      1.0000 0.39100  0.45370  0.60140  Biso   1.000  C
  C46      1.0000 0.60900  0.54630  0.39860  Biso   1.000  C
  H43      1.0000 0.37330  0.52090  0.59290  Biso   1.000  H
  H44      1.0000 0.62670  0.47910  0.40710  Biso   1.000  H
  H45      1.0000 0.39580  0.41450  0.53840  Biso   1.000  H
  H46      1.0000 0.60420  0.58550  0.46160  Biso   1.000  H
  H47      1.0000 0.31680  0.40920  0.62150  Biso   1.000  H
  H48      1.0000 0.68320  0.59080  0.37850  Biso   1.000  H
  C47      1.0000 0.67680  0.20990  0.76260  Biso   1.000  C
  C48      1.0000 0.32320  0.79010  0.23740  Biso   1.000  C
  H49      1.0000 0.59430  0.17650  0.70990  Biso   1.000  H
  H50      1.0000 0.40570  0.82350  0.29010  Biso   1.000  H
  C49      1.0000 0.46950  0.01580  0.97750  Biso   1.000  C
  C50      1.0000 0.53050  0.98420  0.02250  Biso   1.000  C
  C51      1.0000 0.60590  0.07880  0.99520  Biso   1.000  C
  C52      1.0000 0.39410  0.92120  0.00480  Biso   1.000  C
  H51      1.0000 0.62610  0.14330  0.97100  Biso   1.000  H
  H52      1.0000 0.37390  0.85670  0.02900  Biso   1.000  H
  C53      1.0000 0.71310  0.04840  0.04810  Biso   1.000  C
  C54      1.0000 0.28690  0.95160  0.95190  Biso   1.000  C
  H53      1.0000 0.80720  0.09190  0.06040  Biso   1.000  H
  H54      1.0000 0.19280  0.90810  0.93960  Biso   1.000  H
  C55      1.0000 0.68380  0.95500  0.08320  Biso   1.000  C
  C56      1.0000 0.31620  0.04500  0.91680  Biso   1.000  C
  H55      1.0000 0.75780  0.93400  0.11970  Biso   1.000  H
  H56      1.0000 0.24220  0.06600  0.88030  Biso   1.000  H
  C57      1.0000 0.54740  0.89200  0.06550  Biso   1.000  C
  C58      1.0000 0.45260  0.10800  0.93450  Biso   1.000  C
  H57      1.0000 0.52730  0.82750  0.08970  Biso   1.000  H
  H58      1.0000 0.47270  0.17250  0.91030  Biso   1.000  H
  C59      1.0000 0.44030  0.92240  0.01260  Biso   1.000  C
  C60      1.0000 0.55970  0.07760  0.98740  Biso   1.000  C
  H59      1.0000 0.34610  0.87890  0.00030  Biso   1.000  H
  H60      1.0000 0.65390  0.12110  0.99970  Biso   1.000  H
  C61      1.0000 0.38740  0.06620  0.91380  Biso   1.000  C
  C62      1.0000 0.61260  0.93380  0.08620  Biso   1.000  C
  H61      1.0000 0.43570  0.12190  0.88810  Biso   1.000  H
  H62      1.0000 0.56430  0.87810  0.11190  Biso   1.000  H
  C63      1.0000 0.26130  0.04180  0.89110  Biso   1.000  C
  C64      1.0000 0.73870  0.95820  0.10890  Biso   1.000  C
  H63      1.0000 0.20940  0.98640  0.91530  Biso   1.000  H
  H64      1.0000 0.79060  0.01360  0.08470  Biso   1.000  H
  H65      1.0000 0.21510  0.07820  0.84930  Biso   1.000  H
  H66      1.0000 0.78490  0.92180  0.15070  Biso   1.000  H
  F27      1.0000 0.88000  0.31210  0.23200  Biso   1.000  F
  F28      1.0000 0.12000  0.68790  0.76800  Biso   1.000  F
  F29      1.0000 0.79900  0.38700  0.29100  Biso   1.000  F
  F30      1.0000 0.20100  0.61300  0.70900  Biso   1.000  F
  F31      1.0000 0.98100  0.58000  0.68800  Biso   1.000  F
  F32      1.0000 0.01900  0.42000  0.31200  Biso   1.000  F
  F33      1.0000 0.21300  0.66800  0.48200  Biso   1.000  F
  F34      1.0000 0.78700  0.33200  0.51800  Biso   1.000  F
