data_image0
_cell_length_a       10.3652
_cell_length_b       13.1372
_cell_length_c       13.44
_cell_angle_alpha    98.819
_cell_angle_beta     107.258
_cell_angle_gamma    99.278

_symmetry_space_group_name_H-M    "P 1"
_symmetry_int_tables_number       1

loop_
  _symmetry_equiv_pos_as_xyz
  'x, y, z'

loop_
  _atom_site_label
  _atom_site_occupancy
  _atom_site_fract_x
  _atom_site_fract_y
  _atom_site_fract_z
  _atom_site_thermal_displace_type
  _atom_site_B_iso_or_equiv
  _atom_site_type_symbol
  Cu1      1.0000 0.00000  0.00000  0.00000  Biso   1.000  Cu
  O1       1.0000 0.87040  0.08610  0.05100  Biso   1.000  O
  O2       1.0000 0.12960  0.91390  0.94900  Biso   1.000  O
  C1       1.0000 0.71000  0.12330  0.13320  Biso   1.000  C
  C2       1.0000 0.29000  0.87670  0.86680  Biso   1.000  C
  F1       1.0000 0.80330  0.17290  0.22620  Biso   1.000  F
  F2       1.0000 0.19670  0.82710  0.77380  Biso   1.000  F
  F3       1.0000 0.68200  0.19700  0.09500  Biso   1.000  F
  F4       1.0000 0.31800  0.80300  0.90500  Biso   1.000  F
  F5       1.0000 0.59690  0.08270  0.14990  Biso   1.000  F
  F6       1.0000 0.40310  0.91730  0.85010  Biso   1.000  F
  C3       1.0000 0.77100  0.04500  0.07470  Biso   1.000  C
  C4       1.0000 0.22900  0.95500  0.92530  Biso   1.000  C
  C5       1.0000 0.70580  0.93850  0.05410  Biso   1.000  C
  C6       1.0000 0.29420  0.06150  0.94590  Biso   1.000  C
  H1       1.0000 0.62780  0.91890  0.07600  Biso   1.000  H
  H2       1.0000 0.37220  0.08110  0.92400  Biso   1.000  H
  C7       1.0000 0.75470  0.86030  0.00150  Biso   1.000  C
  C8       1.0000 0.24530  0.13970  0.99850  Biso   1.000  C
  C9       1.0000 0.67410  0.74540  0.97710  Biso   1.000  C
  C10      1.0000 0.32590  0.25460  0.02290  Biso   1.000  C
  F7       1.0000 0.61690  0.70830  0.87150  Biso   1.000  F
  F8       1.0000 0.38310  0.29170  0.12850  Biso   1.000  F
  F9       1.0000 0.57240  0.73180  0.01740  Biso   1.000  F
  F10      1.0000 0.42760  0.26820  0.98260  Biso   1.000  F
  F11      1.0000 0.75590  0.68400  0.01340  Biso   1.000  F
  F12      1.0000 0.24410  0.31600  0.98660  Biso   1.000  F
  O3       1.0000 0.85660  0.87050  0.96920  Biso   1.000  O
  O4       1.0000 0.14340  0.12950  0.03080  Biso   1.000  O
  O5       1.0000 0.93970  0.01420  0.83420  Biso   1.000  O
  O6       1.0000 0.06030  0.98580  0.16580  Biso   1.000  O
  N1       1.0000 0.81880  0.02940  0.78060  Biso   1.000  N
  N2       1.0000 0.18120  0.97060  0.21940  Biso   1.000  N
  C11      1.0000 0.80170  0.13530  0.76300  Biso   1.000  C
  C12      1.0000 0.19830  0.86470  0.23700  Biso   1.000  C
  C13      1.0000 0.87040  0.21980  0.86510  Biso   1.000  C
  C14      1.0000 0.12960  0.78020  0.13490  Biso   1.000  C
  H3       1.0000 0.82280  0.20760  0.91660  Biso   1.000  H
  H4       1.0000 0.17720  0.79240  0.08340  Biso   1.000  H
  H5       1.0000 0.96770  0.21670  0.89530  Biso   1.000  H
  H6       1.0000 0.03230  0.78330  0.10470  Biso   1.000  H
  H7       1.0000 0.86480  0.28960  0.84900  Biso   1.000  H
  H8       1.0000 0.13520  0.71040  0.15100  Biso   1.000  H
  C15      1.0000 0.86930  0.15840  0.68030  Biso   1.000  C
  C16      1.0000 0.13070  0.84160  0.31970  Biso   1.000  C
  H9       1.0000 0.97020  0.17100  0.71240  Biso   1.000  H
  H10      1.0000 0.02980  0.82900  0.28760  Biso   1.000  H
  H11      1.0000 0.83720  0.09790  0.61980  Biso   1.000  H
  H12      1.0000 0.16280  0.90210  0.38020  Biso   1.000  H
  H13      1.0000 0.84430  0.22120  0.65550  Biso   1.000  H
  H14      1.0000 0.15570  0.77880  0.34450  Biso   1.000  H
  C17      1.0000 0.64110  0.11490  0.72090  Biso   1.000  C
  C18      1.0000 0.35890  0.88510  0.27910  Biso   1.000  C
  C19      1.0000 0.57510  0.12960  0.80740  Biso   1.000  C
  C20      1.0000 0.42490  0.87040  0.19260  Biso   1.000  C
  H15      1.0000 0.47430  0.11610  0.77460  Biso   1.000  H
  H16      1.0000 0.52570  0.88390  0.22540  Biso   1.000  H
  H17      1.0000 0.59870  0.08000  0.85400  Biso   1.000  H
  H18      1.0000 0.40130  0.92000  0.14600  Biso   1.000  H
  H19      1.0000 0.60970  0.20210  0.84960  Biso   1.000  H
  H20      1.0000 0.39030  0.79790  0.15040  Biso   1.000  H
  C21      1.0000 0.57890  0.17230  0.63310  Biso   1.000  C
  C22      1.0000 0.42110  0.82770  0.36690  Biso   1.000  C
  H21      1.0000 0.47760  0.15260  0.61080  Biso   1.000  H
  H22      1.0000 0.52240  0.84740  0.38920  Biso   1.000  H
  H23      1.0000 0.61000  0.24870  0.66060  Biso   1.000  H
  H24      1.0000 0.39000  0.75130  0.33940  Biso   1.000  H
  H25      1.0000 0.60930  0.15210  0.57190  Biso   1.000  H
  H26      1.0000 0.39070  0.84790  0.42810  Biso   1.000  H
  O7       1.0000 0.48480  0.94870  0.61500  Biso   1.000  O
  O8       1.0000 0.51520  0.05130  0.38500  Biso   1.000  O
  N3       1.0000 0.60670  0.99760  0.67410  Biso   1.000  N
  N4       1.0000 0.39330  0.00240  0.32590  Biso   1.000  N
  C23      1.0000 0.71090  0.95260  0.71760  Biso   1.000  C
  C24      1.0000 0.28910  0.04740  0.28240  Biso   1.000  C
  C25      1.0000 0.70640  0.83970  0.69570  Biso   1.000  C
  C26      1.0000 0.29360  0.16030  0.30430  Biso   1.000  C
  C27      1.0000 0.59910  0.75990  0.62570  Biso   1.000  C
  C28      1.0000 0.40090  0.24010  0.37430  Biso   1.000  C
  H27      1.0000 0.51220  0.77020  0.58450  Biso   1.000  H
  H28      1.0000 0.48780  0.22980  0.41550  Biso   1.000  H
  N5       1.0000 0.63450  0.66690  0.62420  Biso   1.000  N
  N6       1.0000 0.36550  0.33310  0.37580  Biso   1.000  N
  N7       1.0000 0.76690  0.68840  0.69480  Biso   1.000  N
  N8       1.0000 0.23310  0.31160  0.30520  Biso   1.000  N
  C29      1.0000 0.83750  0.60160  0.71250  Biso   1.000  C
  C30      1.0000 0.16250  0.39840  0.28750  Biso   1.000  C
  H29      1.0000 0.76820  0.53810  0.70780  Biso   1.000  H
  H30      1.0000 0.23180  0.46190  0.29220  Biso   1.000  H
  H31      1.0000 0.87640  0.58560  0.65440  Biso   1.000  H
  H32      1.0000 0.12360  0.41440  0.34560  Biso   1.000  H
  C31      1.0000 0.95240  0.62240  0.81770  Biso   1.000  C
  C32      1.0000 0.04760  0.37760  0.18230  Biso   1.000  C
  H33      1.0000 0.91530  0.63870  0.87680  Biso   1.000  H
  H34      1.0000 0.08470  0.36130  0.12320  Biso   1.000  H
  H35      1.0000 0.02440  0.68430  0.82270  Biso   1.000  H
  H36      1.0000 0.97560  0.31570  0.17730  Biso   1.000  H
  C33      1.0000 0.01550  0.52770  0.82810  Biso   1.000  C
  C34      1.0000 0.98450  0.47230  0.17190  Biso   1.000  C
  H37      1.0000 0.94370  0.46690  0.82590  Biso   1.000  H
  H38      1.0000 0.05630  0.53310  0.17410  Biso   1.000  H
  H39      1.0000 0.04760  0.50950  0.76660  Biso   1.000  H
  H40      1.0000 0.95240  0.49050  0.23340  Biso   1.000  H
  C35      1.0000 0.13720  0.54600  0.93120  Biso   1.000  C
  C36      1.0000 0.86280  0.45400  0.06880  Biso   1.000  C
  H41      1.0000 0.17490  0.48230  0.93390  Biso   1.000  H
  H42      1.0000 0.82510  0.51770  0.06610  Biso   1.000  H
  H43      1.0000 0.20930  0.60540  0.93340  Biso   1.000  H
  H44      1.0000 0.79070  0.39460  0.06660  Biso   1.000  H
  H45      1.0000 0.10550  0.56210  0.99250  Biso   1.000  H
  H46      1.0000 0.89450  0.43790  0.00750  Biso   1.000  H
  C37      1.0000 0.81150  0.79170  0.73760  Biso   1.000  C
  C38      1.0000 0.18850  0.20830  0.26240  Biso   1.000  C
  H47      1.0000 0.90000  0.82540  0.78780  Biso   1.000  H
  H48      1.0000 0.10000  0.17460  0.21220  Biso   1.000  H
  Cu2      1.0000 0.50000  0.50000  0.50000  Biso   1.000  Cu
  O9       1.0000 0.34180  0.56100  0.49940  Biso   1.000  O
  O10      1.0000 0.65820  0.43900  0.50060  Biso   1.000  O
  C39      1.0000 0.18140  0.63420  0.55890  Biso   1.000  C
  C40      1.0000 0.81860  0.36580  0.44110  Biso   1.000  C
  F13      1.0000 0.11690  0.63410  0.63020  Biso   1.000  F
  F14      1.0000 0.88310  0.36590  0.36980  Biso   1.000  F
  F15      1.0000 0.08410  0.59310  0.46230  Biso   1.000  F
  F16      1.0000 0.91590  0.40690  0.53770  Biso   1.000  F
  F17      1.0000 0.23120  0.73430  0.56050  Biso   1.000  F
  F18      1.0000 0.76880  0.26570  0.43950  Biso   1.000  F
  C41      1.0000 0.29460  0.57180  0.57620  Biso   1.000  C
  C42      1.0000 0.70540  0.42820  0.42380  Biso   1.000  C
  C43      1.0000 0.33800  0.53900  0.67130  Biso   1.000  C
  C44      1.0000 0.66200  0.46100  0.32870  Biso   1.000  C
  H49      1.0000 0.29820  0.55800  0.72470  Biso   1.000  H
  H50      1.0000 0.70180  0.44200  0.27530  Biso   1.000  H
  C45      1.0000 0.43800  0.47900  0.69130  Biso   1.000  C
  C46      1.0000 0.56200  0.52100  0.30870  Biso   1.000  C
  C47      1.0000 0.47530  0.44040  0.79550  Biso   1.000  C
  C48      1.0000 0.52470  0.55960  0.20450  Biso   1.000  C
  F19      1.0000 0.43450  0.49560  0.87320  Biso   1.000  F
  F20      1.0000 0.56550  0.50440  0.12680  Biso   1.000  F
  F21      1.0000 0.40600  0.34110  0.78200  Biso   1.000  F
  F22      1.0000 0.59400  0.65890  0.21800  Biso   1.000  F
  F23      1.0000 0.60970  0.44760  0.83620  Biso   1.000  F
  F24      1.0000 0.39030  0.55240  0.16380  Biso   1.000  F
  O11      1.0000 0.50240  0.44720  0.63060  Biso   1.000  O
  O12      1.0000 0.49760  0.55280  0.36940  Biso   1.000  O
  C49      1.0000 0.15220  0.25460  0.51640  Biso   1.000  C
  C50      1.0000 0.84780  0.74540  0.48360  Biso   1.000  C
  H51      1.0000 0.24560  0.27830  0.56620  Biso   1.000  H
  H52      1.0000 0.75440  0.72170  0.43380  Biso   1.000  H
  H53      1.0000 0.09480  0.29750  0.53730  Biso   1.000  H
  H54      1.0000 0.90520  0.70250  0.46270  Biso   1.000  H
  H55      1.0000 0.15290  0.26070  0.44620  Biso   1.000  H
  H56      1.0000 0.84710  0.73930  0.55380  Biso   1.000  H
  C51      1.0000 0.09180  0.13500  0.51550  Biso   1.000  C
  C52      1.0000 0.90820  0.86500  0.48450  Biso   1.000  C
  C53      1.0000 0.16710  0.08060  0.58400  Biso   1.000  C
  C54      1.0000 0.83290  0.91940  0.41600  Biso   1.000  C
  H57      1.0000 0.26040  0.11470  0.63060  Biso   1.000  H
  H58      1.0000 0.73960  0.88530  0.36940  Biso   1.000  H
  C55      1.0000 0.10750  0.97700  0.58500  Biso   1.000  C
  C56      1.0000 0.89250  0.02300  0.41500  Biso   1.000  C
  H59      1.0000 0.15960  0.93950  0.63230  Biso   1.000  H
  H60      1.0000 0.84040  0.06050  0.36770  Biso   1.000  H
  C57      1.0000 0.97260  0.92770  0.51750  Biso   1.000  C
  C58      1.0000 0.02740  0.07230  0.48250  Biso   1.000  C
  C59      1.0000 0.89720  0.98210  0.44900  Biso   1.000  C
  C60      1.0000 0.10280  0.01790  0.55100  Biso   1.000  C
  H61      1.0000 0.80400  0.94800  0.40230  Biso   1.000  H
  H62      1.0000 0.19600  0.05200  0.59770  Biso   1.000  H
  C61      1.0000 0.95680  0.08570  0.44800  Biso   1.000  C
  C62      1.0000 0.04320  0.91430  0.55200  Biso   1.000  C
  H63      1.0000 0.90470  0.12320  0.40070  Biso   1.000  H
  H64      1.0000 0.09530  0.87680  0.59930  Biso   1.000  H
  C63      1.0000 0.92320  0.80460  0.52480  Biso   1.000  C
  C64      1.0000 0.07680  0.19540  0.47520  Biso   1.000  C
  H65      1.0000 0.98060  0.78160  0.58350  Biso   1.000  H
  H66      1.0000 0.01940  0.21840  0.41650  Biso   1.000  H
  C65      1.0000 0.81500  0.73520  0.45990  Biso   1.000  C
  C66      1.0000 0.18500  0.26480  0.54010  Biso   1.000  C
  H67      1.0000 0.75800  0.75310  0.40360  Biso   1.000  H
  H68      1.0000 0.24200  0.24690  0.59640  Biso   1.000  H
  H69      1.0000 0.79620  0.66880  0.47060  Biso   1.000  H
  H70      1.0000 0.20380  0.33120  0.52940  Biso   1.000  H
  F25      1.0000 0.43600  0.48700  0.86300  Biso   1.000  F
  F26      1.0000 0.56400  0.51300  0.13700  Biso   1.000  F
  F27      1.0000 0.42500  0.33400  0.77000  Biso   1.000  F
  F28      1.0000 0.57500  0.66600  0.23000  Biso   1.000  F
  F29      1.0000 0.68400  0.19900  0.06770  Biso   1.000  F
  F30      1.0000 0.31600  0.80100  0.93230  Biso   1.000  F
