data_image0
_cell_length_a       10.7206
_cell_length_b       13.3783
_cell_length_c       13.6296
_cell_angle_alpha    74.864
_cell_angle_beta     83.842
_cell_angle_gamma    66.662

_symmetry_space_group_name_H-M    "P 1"
_symmetry_int_tables_number       1

loop_
  _symmetry_equiv_pos_as_xyz
  'x, y, z'

loop_
  _atom_site_label
  _atom_site_occupancy
  _atom_site_fract_x
  _atom_site_fract_y
  _atom_site_fract_z
  _atom_site_thermal_displace_type
  _atom_site_B_iso_or_equiv
  _atom_site_type_symbol
  Cu1      1.0000 0.00000  0.50000  0.50000  Biso   1.000  Cu
  O1       1.0000 0.11990  0.53196  0.36775  Biso   1.000  O
  O2       1.0000 0.88010  0.46804  0.63225  Biso   1.000  O
  C1       1.0000 0.30510  0.50670  0.25740  Biso   1.000  C
  C2       1.0000 0.69490  0.49330  0.74260  Biso   1.000  C
  F1       1.0000 0.26110  0.61334  0.20906  Biso   1.000  F
  F2       1.0000 0.73890  0.38666  0.79094  Biso   1.000  F
  F3       1.0000 0.26530  0.45720  0.20323  Biso   1.000  F
  F4       1.0000 0.73470  0.54280  0.79677  Biso   1.000  F
  F5       1.0000 0.43800  0.46750  0.25311  Biso   1.000  F
  F6       1.0000 0.56200  0.53250  0.74689  Biso   1.000  F
  C3       1.0000 0.24660  0.49210  0.36490  Biso   1.000  C
  C4       1.0000 0.75340  0.50790  0.63510  Biso   1.000  C
  C5       1.0000 0.33690  0.43720  0.44650  Biso   1.000  C
  C6       1.0000 0.66310  0.56280  0.55350  Biso   1.000  C
  H1       1.0000 0.42970  0.41150  0.43300  Biso   1.000  H
  H2       1.0000 0.57030  0.58850  0.56700  Biso   1.000  H
  C7       1.0000 0.29360  0.41950  0.54680  Biso   1.000  C
  C8       1.0000 0.70640  0.58050  0.45320  Biso   1.000  C
  C9       1.0000 0.40040  0.35370  0.62910  Biso   1.000  C
  C10      1.0000 0.59960  0.64630  0.37090  Biso   1.000  C
  F7       1.0000 0.52730  0.31937  0.59647  Biso   1.000  F
  F8       1.0000 0.47270  0.68063  0.40353  Biso   1.000  F
  F9       1.0000 0.39030  0.41300  0.69684  Biso   1.000  F
  F10      1.0000 0.60970  0.58700  0.30316  Biso   1.000  F
  F11      1.0000 0.38020  0.26199  0.68196  Biso   1.000  F
  F12      1.0000 0.61980  0.73801  0.31804  Biso   1.000  F
  O3       1.0000 0.17440  0.45132  0.58134  Biso   1.000  O
  O4       1.0000 0.82560  0.54868  0.41866  Biso   1.000  O
  Cu2      1.0000 0.00000  0.00000  0.00000  Biso   1.000  Cu
  O5       1.0000 0.84156  0.99966  0.94472  Biso   1.000  O
  O6       1.0000 0.15844  0.00034  0.05528  Biso   1.000  O
  C11      1.0000 0.62700  0.05970  0.87660  Biso   1.000  C
  C12      1.0000 0.37300  0.94030  0.12340  Biso   1.000  C
  F13      1.0000 0.66879  0.05518  0.78219  Biso   1.000  F
  F14      1.0000 0.33121  0.94482  0.21781  Biso   1.000  F
  F15      1.0000 0.50240  0.13820  0.87243  Biso   1.000  F
  F16      1.0000 0.49760  0.86180  0.12757  Biso   1.000  F
  F17      1.0000 0.61712  0.96193  0.92274  Biso   1.000  F
  F18      1.0000 0.38288  0.03807  0.07726  Biso   1.000  F
  C13      1.0000 0.72790  0.08060  0.93239  Biso   1.000  C
  C14      1.0000 0.27210  0.91940  0.06761  Biso   1.000  C
  C15      1.0000 0.68750  0.18060  0.96150  Biso   1.000  C
  C16      1.0000 0.31250  0.81940  0.03850  Biso   1.000  C
  H3       1.0000 0.60180  0.23560  0.94320  Biso   1.000  H
  H4       1.0000 0.39820  0.76440  0.05680  Biso   1.000  H
  C17      1.0000 0.77300  0.20040  0.01750  Biso   1.000  C
  C18      1.0000 0.22700  0.79960  0.98250  Biso   1.000  C
  C19      1.0000 0.71650  0.30940  0.05380  Biso   1.000  C
  C20      1.0000 0.28350  0.69060  0.94620  Biso   1.000  C
  F19      1.0000 0.68200  0.28889  0.15081  Biso   1.000  F
  F20      1.0000 0.31800  0.71111  0.84919  Biso   1.000  F
  F21      1.0000 0.60750  0.38634  0.00429  Biso   1.000  F
  F22      1.0000 0.39250  0.61366  0.99571  Biso   1.000  F
  F23      1.0000 0.80640  0.35541  0.04410  Biso   1.000  F
  F24      1.0000 0.19360  0.64459  0.95590  Biso   1.000  F
  O7       1.0000 0.89194  0.13835  0.04633  Biso   1.000  O
  O8       1.0000 0.10806  0.86165  0.95367  Biso   1.000  O
  O9       1.0000 0.08091  0.33961  0.48975  Biso   1.000  O
  O10      1.0000 0.91909  0.66039  0.51025  Biso   1.000  O
  N1       1.0000 0.00870  0.28326  0.48034  Biso   1.000  N
  N2       1.0000 0.99130  0.71674  0.51966  Biso   1.000  N
  C21      1.0000 0.99660  0.25980  0.38028  Biso   1.000  C
  C22      1.0000 0.00340  0.74020  0.61972  Biso   1.000  C
  C23      1.0000 0.13310  0.16860  0.36460  Biso   1.000  C
  C24      1.0000 0.86690  0.83140  0.63540  Biso   1.000  C
  H5       1.0000 0.20120  0.20030  0.34820  Biso   1.000  H
  H6       1.0000 0.79880  0.79970  0.65180  Biso   1.000  H
  H7       1.0000 0.12590  0.13820  0.31000  Biso   1.000  H
  H8       1.0000 0.87410  0.86180  0.69000  Biso   1.000  H
  H9       1.0000 0.15820  0.11010  0.42580  Biso   1.000  H
  H10      1.0000 0.84180  0.88990  0.57420  Biso   1.000  H
  C25      1.0000 0.96780  0.36370  0.29380  Biso   1.000  C
  C26      1.0000 0.03220  0.63630  0.70620  Biso   1.000  C
  H11      1.0000 0.04580  0.38360  0.28240  Biso   1.000  H
  H12      1.0000 0.95420  0.61640  0.71760  Biso   1.000  H
  H13      1.0000 0.89100  0.42440  0.31110  Biso   1.000  H
  H14      1.0000 0.10900  0.57560  0.68890  Biso   1.000  H
  H15      1.0000 0.94840  0.34870  0.23320  Biso   1.000  H
  H16      1.0000 0.05160  0.65130  0.76680  Biso   1.000  H
  C27      1.0000 0.87830  0.21760  0.40694  Biso   1.000  C
  C28      1.0000 0.12170  0.78240  0.59306  Biso   1.000  C
  C29      1.0000 0.88740  0.12550  0.35790  Biso   1.000  C
  C30      1.0000 0.11260  0.87450  0.64210  Biso   1.000  C
  H17      1.0000 0.81090  0.10460  0.37870  Biso   1.000  H
  H18      1.0000 0.18910  0.89540  0.62130  Biso   1.000  H
  H19      1.0000 0.96980  0.06150  0.37870  Biso   1.000  H
  H20      1.0000 0.03020  0.93850  0.62130  Biso   1.000  H
  H21      1.0000 0.88720  0.15190  0.28530  Biso   1.000  H
  H22      1.0000 0.11280  0.84810  0.71470  Biso   1.000  H
  C31      1.0000 0.73760  0.31170  0.39150  Biso   1.000  C
  C32      1.0000 0.26240  0.68830  0.60850  Biso   1.000  C
  H23      1.0000 0.66950  0.28020  0.40940  Biso   1.000  H
  H24      1.0000 0.33050  0.71980  0.59060  Biso   1.000  H
  H25      1.0000 0.72700  0.35240  0.32150  Biso   1.000  H
  H26      1.0000 0.27300  0.64760  0.67850  Biso   1.000  H
  H27      1.0000 0.72770  0.36160  0.43380  Biso   1.000  H
  H28      1.0000 0.27230  0.63840  0.56620  Biso   1.000  H
  N3       1.0000 0.89690  0.17287  0.51984  Biso   1.000  N
  N4       1.0000 0.10310  0.82713  0.48016  Biso   1.000  N
  O11      1.0000 0.83835  0.10989  0.57235  Biso   1.000  O
  O12      1.0000 0.16165  0.89011  0.42765  Biso   1.000  O
  C33      1.0000 0.96780  0.21880  0.55880  Biso   1.000  C
  C34      1.0000 0.03220  0.78120  0.44120  Biso   1.000  C
  C35      1.0000 0.99740  0.19680  0.66400  Biso   1.000  C
  C36      1.0000 0.00260  0.80320  0.33600  Biso   1.000  C
  C37      1.0000 0.96280  0.12550  0.74780  Biso   1.000  C
  C38      1.0000 0.03720  0.87450  0.25220  Biso   1.000  C
  H29      1.0000 0.91240  0.08390  0.74370  Biso   1.000  H
  H30      1.0000 0.08760  0.91610  0.25630  Biso   1.000  H
  N5       1.0000 0.01140  0.12522  0.83381  Biso   1.000  N
  N6       1.0000 0.98860  0.87478  0.16619  Biso   1.000  N
  N7       1.0000 0.07630  0.19793  0.80522  Biso   1.000  N
  N8       1.0000 0.92370  0.80207  0.19478  Biso   1.000  N
  C39      1.0000 0.14140  0.22100  0.88170  Biso   1.000  C
  C40      1.0000 0.85860  0.77900  0.11830  Biso   1.000  C
  H31      1.0000 0.23910  0.18210  0.87790  Biso   1.000  H
  H32      1.0000 0.76090  0.81790  0.12210  Biso   1.000  H
  H33      1.0000 0.11170  0.19200  0.94890  Biso   1.000  H
  H34      1.0000 0.88830  0.80800  0.05110  Biso   1.000  H
  C41      1.0000 0.10850  0.34340  0.86690  Biso   1.000  C
  C42      1.0000 0.89150  0.65660  0.13310  Biso   1.000  C
  H35      1.0000 0.01300  0.38100  0.88160  Biso   1.000  H
  H36      1.0000 0.98700  0.61900  0.11840  Biso   1.000  H
  H37      1.0000 0.12510  0.37520  0.79670  Biso   1.000  H
  H38      1.0000 0.87490  0.62480  0.20330  Biso   1.000  H
  C43      1.0000 0.20020  0.36390  0.94080  Biso   1.000  C
  C44      1.0000 0.79980  0.63610  0.05920  Biso   1.000  C
  H39      1.0000 0.29530  0.31690  0.93510  Biso   1.000  H
  H40      1.0000 0.70470  0.68310  0.06490  Biso   1.000  H
  H41      1.0000 0.19070  0.44170  0.92260  Biso   1.000  H
  H42      1.0000 0.80930  0.55830  0.07740  Biso   1.000  H
  C45      1.0000 0.15210  0.33570  0.04160  Biso   1.000  C
  C46      1.0000 0.84790  0.66430  0.95840  Biso   1.000  C
  H43      1.0000 0.20470  0.34560  0.08830  Biso   1.000  H
  H44      1.0000 0.79530  0.65440  0.91170  Biso   1.000  H
  H45      1.0000 0.16090  0.25890  0.05810  Biso   1.000  H
  H46      1.0000 0.83910  0.74110  0.94190  Biso   1.000  H
  H47      1.0000 0.05840  0.38350  0.04630  Biso   1.000  H
  H48      1.0000 0.94160  0.61650  0.95370  Biso   1.000  H
  C47      1.0000 0.07160  0.24040  0.70558  Biso   1.000  C
  C48      1.0000 0.92840  0.75960  0.29442  Biso   1.000  C
  H49      1.0000 0.11080  0.29020  0.67000  Biso   1.000  H
  H50      1.0000 0.88920  0.70980  0.33000  Biso   1.000  H
  C49      1.0000 0.36700  0.97350  0.76800  Biso   1.000  C
  C50      1.0000 0.63300  0.02650  0.23200  Biso   1.000  C
  H51      1.0000 0.36710  0.93880  0.83920  Biso   1.000  H
  H52      1.0000 0.63290  0.06120  0.16080  Biso   1.000  H
  H53      1.0000 0.28500  0.98300  0.73780  Biso   1.000  H
  H54      1.0000 0.71500  0.01700  0.26220  Biso   1.000  H
  H55      1.0000 0.37210  0.04530  0.75930  Biso   1.000  H
  H56      1.0000 0.62790  0.95470  0.24070  Biso   1.000  H
  C51      1.0000 0.48940  0.89920  0.71670  Biso   1.000  C
  C52      1.0000 0.51060  0.10080  0.28330  Biso   1.000  C
  H57      1.0000 0.57190  0.88780  0.74900  Biso   1.000  H
  H58      1.0000 0.42810  0.11220  0.25100  Biso   1.000  H
  H59      1.0000 0.48420  0.82650  0.72610  Biso   1.000  H
  H60      1.0000 0.51580  0.17350  0.27390  Biso   1.000  H
  C53      1.0000 0.49620  0.94980  0.60460  Biso   1.000  C
  C54      1.0000 0.50380  0.05020  0.39540  Biso   1.000  C
  C55      1.0000 0.46760  0.90790  0.53150  Biso   1.000  C
  C56      1.0000 0.53240  0.09210  0.46850  Biso   1.000  C
  H61      1.0000 0.44590  0.84470  0.55190  Biso   1.000  H
  H62      1.0000 0.55410  0.15530  0.44810  Biso   1.000  H
  C57      1.0000 0.53010  0.04390  0.57020  Biso   1.000  C
  C58      1.0000 0.46990  0.95610  0.42980  Biso   1.000  C
  H63      1.0000 0.55130  0.07430  0.61710  Biso   1.000  H
  H64      1.0000 0.44870  0.92570  0.38290  Biso   1.000  H
