data_image0
_cell_length_a       10.92
_cell_length_b       13.535
_cell_length_c       13.573
_cell_angle_alpha    99.352
_cell_angle_beta     111.855
_cell_angle_gamma    96.908

_symmetry_space_group_name_H-M    "P 1"
_symmetry_int_tables_number       1

loop_
  _symmetry_equiv_pos_as_xyz
  'x, y, z'

loop_
  _atom_site_label
  _atom_site_occupancy
  _atom_site_fract_x
  _atom_site_fract_y
  _atom_site_fract_z
  _atom_site_thermal_displace_type
  _atom_site_B_iso_or_equiv
  _atom_site_type_symbol
  Cu1      1.0000 0.50000  0.50000  0.00000  Biso   1.000  Cu
  O1       1.0000 0.62768  0.62676  0.02578  Biso   1.000  O
  O2       1.0000 0.37232  0.37324  0.97422  Biso   1.000  O
  C1       1.0000 0.79530  0.74240  0.01720  Biso   1.000  C
  C2       1.0000 0.20470  0.25760  0.98280  Biso   1.000  C
  F1       1.0000 0.71470  0.80430  0.99010  Biso   1.000  F
  F2       1.0000 0.28530  0.19570  0.00990  Biso   1.000  F
  F3       1.0000 0.87100  0.76030  0.96590  Biso   1.000  F
  F4       1.0000 0.12900  0.23970  0.03410  Biso   1.000  F
  F5       1.0000 0.87670  0.77270  0.11710  Biso   1.000  F
  F6       1.0000 0.12330  0.22730  0.88290  Biso   1.000  F
  C3       1.0000 0.72220  0.63440  0.99470  Biso   1.000  C
  C4       1.0000 0.27780  0.36560  0.00530  Biso   1.000  C
  C5       1.0000 0.76370  0.55610  0.94420  Biso   1.000  C
  C6       1.0000 0.23630  0.44390  0.05580  Biso   1.000  C
  H1       1.0000 0.83520  0.57230  0.92330  Biso   1.000  H
  H2       1.0000 0.16480  0.42770  0.07670  Biso   1.000  H
  C7       1.0000 0.70470  0.45570  0.92370  Biso   1.000  C
  C8       1.0000 0.29530  0.54430  0.07630  Biso   1.000  C
  C9       1.0000 0.75550  0.37500  0.86510  Biso   1.000  C
  C10      1.0000 0.24450  0.62500  0.13490  Biso   1.000  C
  F7       1.0000 0.82990  0.40850  0.82000  Biso   1.000  F
  F8       1.0000 0.17010  0.59150  0.18000  Biso   1.000  F
  F9       1.0000 0.64480  0.31780  0.77570  Biso   1.000  F
  F10      1.0000 0.35520  0.68220  0.22430  Biso   1.000  F
  F11      1.0000 0.80250  0.31410  0.92260  Biso   1.000  F
  F12      1.0000 0.19750  0.68590  0.07740  Biso   1.000  F
  O3       1.0000 0.60940  0.41866  0.94526  Biso   1.000  O
  O4       1.0000 0.39060  0.58134  0.05474  Biso   1.000  O
  Cu2      1.0000 0.00000  0.00000  0.50000  Biso   1.000  Cu
  O5       1.0000 0.14888  0.93968  0.49380  Biso   1.000  O
  O6       1.0000 0.85112  0.06032  0.50620  Biso   1.000  O
  C11      1.0000 0.29460  0.86810  0.42970  Biso   1.000  C
  C12      1.0000 0.70540  0.13190  0.57030  Biso   1.000  C
  F13      1.0000 0.25500  0.77570  0.41470  Biso   1.000  F
  F14      1.0000 0.74500  0.22430  0.58530  Biso   1.000  F
  F15      1.0000 0.35520  0.87690  0.36840  Biso   1.000  F
  F16      1.0000 0.64480  0.12310  0.63160  Biso   1.000  F
  F17      1.0000 0.39300  0.90210  0.52780  Biso   1.000  F
  F18      1.0000 0.60700  0.09790  0.47220  Biso   1.000  F
  C13      1.0000 0.18110  0.92800  0.41360  Biso   1.000  C
  C14      1.0000 0.81890  0.07200  0.58640  Biso   1.000  C
  C15      1.0000 0.12610  0.95970  0.31920  Biso   1.000  C
  C16      1.0000 0.87390  0.04030  0.68080  Biso   1.000  C
  H3       1.0000 0.15650  0.94140  0.26380  Biso   1.000  H
  H4       1.0000 0.84350  0.05860  0.73620  Biso   1.000  H
  C17      1.0000 0.02650  0.01820  0.30140  Biso   1.000  C
  C18      1.0000 0.97350  0.98180  0.69860  Biso   1.000  C
  C19      1.0000 0.97650  0.05490  0.19600  Biso   1.000  C
  C20      1.0000 0.02350  0.94510  0.80400  Biso   1.000  C
  F19      1.0000 0.98210  0.99490  0.11510  Biso   1.000  F
  F20      1.0000 0.01790  0.00510  0.88490  Biso   1.000  F
  F21      1.0000 0.05880  0.14700  0.21400  Biso   1.000  F
  F22      1.0000 0.94120  0.85300  0.78600  Biso   1.000  F
  F23      1.0000 0.86080  0.08040  0.16820  Biso   1.000  F
  F24      1.0000 0.13920  0.91960  0.83180  Biso   1.000  F
  O7       1.0000 0.97160  0.04697  0.36441  Biso   1.000  O
  O8       1.0000 0.02840  0.95303  0.63559  Biso   1.000  O
  O9       1.0000 0.59140  0.48642  0.17817  Biso   1.000  O
  O10      1.0000 0.40860  0.51358  0.82183  Biso   1.000  O
  N1       1.0000 0.71570  0.47977  0.23146  Biso   1.000  N
  N2       1.0000 0.28430  0.52023  0.76854  Biso   1.000  N
  C21      1.0000 0.75540  0.37950  0.25070  Biso   1.000  C
  C22      1.0000 0.24460  0.62050  0.74930  Biso   1.000  C
  C23      1.0000 0.71200  0.35500  0.33990  Biso   1.000  C
  C24      1.0000 0.28800  0.64500  0.66010  Biso   1.000  C
  H5       1.0000 0.75860  0.40850  0.40560  Biso   1.000  H
  H6       1.0000 0.24140  0.59150  0.59440  Biso   1.000  H
  H7       1.0000 0.73410  0.29020  0.35490  Biso   1.000  H
  H8       1.0000 0.26590  0.70980  0.64510  Biso   1.000  H
  H9       1.0000 0.61570  0.35070  0.31610  Biso   1.000  H
  H10      1.0000 0.38430  0.64930  0.68390  Biso   1.000  H
  C25      1.0000 0.68260  0.29540  0.14680  Biso   1.000  C
  C26      1.0000 0.31740  0.70460  0.85320  Biso   1.000  C
  H11      1.0000 0.58700  0.28190  0.13030  Biso   1.000  H
  H12      1.0000 0.41300  0.71810  0.86970  Biso   1.000  H
  H13      1.0000 0.71770  0.23360  0.15750  Biso   1.000  H
  H14      1.0000 0.28230  0.76640  0.84250  Biso   1.000  H
  H15      1.0000 0.69720  0.31730  0.08680  Biso   1.000  H
  H16      1.0000 0.30280  0.68270  0.91320  Biso   1.000  H
  C27      1.0000 0.90790  0.40930  0.28730  Biso   1.000  C
  C28      1.0000 0.09210  0.59070  0.71270  Biso   1.000  C
  C29      1.0000 0.99270  0.36030  0.37610  Biso   1.000  C
  C30      1.0000 0.00730  0.63970  0.62390  Biso   1.000  C
  H17      1.0000 0.08730  0.38380  0.39340  Biso   1.000  H
  H18      1.0000 0.91270  0.61620  0.60660  Biso   1.000  H
  H19      1.0000 0.96970  0.28660  0.35060  Biso   1.000  H
  H20      1.0000 0.03030  0.71340  0.64940  Biso   1.000  H
  H21      1.0000 0.97490  0.37930  0.44080  Biso   1.000  H
  H22      1.0000 0.02510  0.62070  0.55920  Biso   1.000  H
  C31      1.0000 0.95560  0.39980  0.19420  Biso   1.000  C
  C32      1.0000 0.04440  0.60020  0.80580  Biso   1.000  C
  H23      1.0000 0.05290  0.42000  0.22390  Biso   1.000  H
  H24      1.0000 0.94710  0.58000  0.77610  Biso   1.000  H
  H25      1.0000 0.91560  0.44400  0.14670  Biso   1.000  H
  H26      1.0000 0.08440  0.55600  0.85330  Biso   1.000  H
  H27      1.0000 0.92860  0.32960  0.15290  Biso   1.000  H
  H28      1.0000 0.07140  0.67040  0.84710  Biso   1.000  H
  N3       1.0000 0.93020  0.52216  0.33163  Biso   1.000  N
  N4       1.0000 0.06980  0.47784  0.66837  Biso   1.000  N
  O11      1.0000 0.04620  0.57546  0.38901  Biso   1.000  O
  O12      1.0000 0.95380  0.42454  0.61099  Biso   1.000  O
  C33      1.0000 0.81640  0.55810  0.29070  Biso   1.000  C
  C34      1.0000 0.18360  0.44190  0.70930  Biso   1.000  C
  C35      1.0000 0.80520  0.66380  0.31220  Biso   1.000  C
  C36      1.0000 0.19480  0.33620  0.68780  Biso   1.000  C
  C37      1.0000 0.90550  0.74810  0.38050  Biso   1.000  C
  C38      1.0000 0.09450  0.25190  0.61950  Biso   1.000  C
  H29      1.0000 0.99550  0.74420  0.41970  Biso   1.000  H
  H30      1.0000 0.00450  0.25580  0.58030  Biso   1.000  H
  N5       1.0000 0.85890  0.83352  0.38355  Biso   1.000  N
  N6       1.0000 0.14110  0.16648  0.61645  Biso   1.000  N
  N7       1.0000 0.72540  0.80423  0.31496  Biso   1.000  N
  N8       1.0000 0.27460  0.19577  0.68504  Biso   1.000  N
  C39      1.0000 0.64000  0.88010  0.29660  Biso   1.000  C
  C40      1.0000 0.36000  0.11990  0.70340  Biso   1.000  C
  H31      1.0000 0.57240  0.86560  0.32640  Biso   1.000  H
  H32      1.0000 0.42760  0.13440  0.67360  Biso   1.000  H
  H33      1.0000 0.69560  0.94750  0.33740  Biso   1.000  H
  H34      1.0000 0.30440  0.05250  0.66260  Biso   1.000  H
  C41      1.0000 0.57300  0.88460  0.18710  Biso   1.000  C
  C42      1.0000 0.42700  0.11540  0.81290  Biso   1.000  C
  H35      1.0000 0.50480  0.82220  0.14750  Biso   1.000  H
  H36      1.0000 0.49520  0.17780  0.85250  Biso   1.000  H
  H37      1.0000 0.63750  0.88960  0.15280  Biso   1.000  H
  H38      1.0000 0.36250  0.11040  0.84720  Biso   1.000  H
  C43      1.0000 0.50080  0.98500  0.18120  Biso   1.000  C
  C44      1.0000 0.49920  0.01500  0.81880  Biso   1.000  C
  H39      1.0000 0.49190  0.00930  0.24980  Biso   1.000  H
  H40      1.0000 0.50810  0.99070  0.75020  Biso   1.000  H
  H41      1.0000 0.55440  0.04060  0.16780  Biso   1.000  H
  H42      1.0000 0.44560  0.95940  0.83220  Biso   1.000  H
  C45      1.0000 0.40440  0.96060  0.11590  Biso   1.000  C
  C46      1.0000 0.59560  0.03940  0.88410  Biso   1.000  C
  H43      1.0000 0.35740  0.01720  0.10930  Biso   1.000  H
  H44      1.0000 0.64260  0.98280  0.89070  Biso   1.000  H
  H45      1.0000 0.35290  0.90520  0.13010  Biso   1.000  H
  H46      1.0000 0.64710  0.09480  0.86990  Biso   1.000  H
  H47      1.0000 0.41490  0.93710  0.04860  Biso   1.000  H
  H48      1.0000 0.58510  0.06290  0.95140  Biso   1.000  H
  C47      1.0000 0.69210  0.70450  0.27240  Biso   1.000  C
  C48      1.0000 0.30790  0.29550  0.72760  Biso   1.000  C
  H49      1.0000 0.60610  0.66810  0.22360  Biso   1.000  H
  H50      1.0000 0.39390  0.33190  0.77640  Biso   1.000  H
  C49      1.0000 0.34790  0.24770  0.44950  Biso   1.000  C
  C50      1.0000 0.65210  0.75230  0.55050  Biso   1.000  C
  H51      1.0000 0.30940  0.17530  0.43000  Biso   1.000  H
  H52      1.0000 0.69060  0.82470  0.57000  Biso   1.000  H
  H53      1.0000 0.28420  0.28640  0.46300  Biso   1.000  H
  H54      1.0000 0.71580  0.71360  0.53700  Biso   1.000  H
  H55      1.0000 0.43030  0.26230  0.51480  Biso   1.000  H
  H56      1.0000 0.56970  0.73770  0.48520  Biso   1.000  H
  C51      1.0000 0.37350  0.27280  0.37200  Biso   1.000  C
  C52      1.0000 0.62650  0.72720  0.62800  Biso   1.000  C
  H57      1.0000 0.29340  0.26630  0.30520  Biso   1.000  H
  H58      1.0000 0.70660  0.73370  0.69480  Biso   1.000  H
  H59      1.0000 0.44120  0.23940  0.35660  Biso   1.000  H
  H60      1.0000 0.55880  0.76060  0.64340  Biso   1.000  H
  C53      1.0000 0.43850  0.40080  0.45310  Biso   1.000  C
  C54      1.0000 0.56150  0.59920  0.54690  Biso   1.000  C
  C55      1.0000 0.39820  0.47180  0.40630  Biso   1.000  C
  C56      1.0000 0.60180  0.52820  0.59370  Biso   1.000  C
  H61      1.0000 0.32570  0.45510  0.33780  Biso   1.000  H
  H62      1.0000 0.67430  0.54490  0.66220  Biso   1.000  H
  C57      1.0000 0.54250  0.42870  0.54710  Biso   1.000  C
  C58      1.0000 0.45750  0.57130  0.45290  Biso   1.000  C
  H63      1.0000 0.57700  0.37820  0.58330  Biso   1.000  H
  H64      1.0000 0.42300  0.62180  0.41670  Biso   1.000  H
  F25      1.0000 0.97200  0.98080  0.87280  Biso   1.000  F
  F26      1.0000 0.02800  0.01920  0.12720  Biso   1.000  F
  F27      1.0000 0.99900  0.14650  0.20430  Biso   1.000  F
  F28      1.0000 0.00100  0.85350  0.79570  Biso   1.000  F
  F29      1.0000 0.84260  0.02770  0.15000  Biso   1.000  F
  F30      1.0000 0.15740  0.97230  0.85000  Biso   1.000  F
  F31      1.0000 0.28680  0.20750  0.04670  Biso   1.000  F
  F32      1.0000 0.71320  0.79250  0.95330  Biso   1.000  F
  F33      1.0000 0.09930  0.25260  0.00480  Biso   1.000  F
  F34      1.0000 0.90070  0.74740  0.99520  Biso   1.000  F
  F35      1.0000 0.17380  0.20720  0.88560  Biso   1.000  F
  F36      1.0000 0.82620  0.79280  0.11440  Biso   1.000  F
  F37      1.0000 0.10690  0.59510  0.10680  Biso   1.000  F
  F38      1.0000 0.89310  0.40490  0.89320  Biso   1.000  F
  F39      1.0000 0.30470  0.64840  0.23110  Biso   1.000  F
  F40      1.0000 0.69530  0.35160  0.76890  Biso   1.000  F
  F41      1.0000 0.23720  0.70630  0.09730  Biso   1.000  F
  F42      1.0000 0.76280  0.29370  0.90270  Biso   1.000  F
  F43      1.0000 0.73110  0.21510  0.54430  Biso   1.000  F
  F44      1.0000 0.26890  0.78490  0.45570  Biso   1.000  F
  F45      1.0000 0.68620  0.15450  0.66500  Biso   1.000  F
  F46      1.0000 0.31380  0.84550  0.33500  Biso   1.000  F
  F47      1.0000 0.59680  0.07650  0.50220  Biso   1.000  F
  F48      1.0000 0.40320  0.92350  0.49780  Biso   1.000  F
