data_image0
_cell_length_a       10.8439
_cell_length_b       13.5168
_cell_length_c       13.554
_cell_angle_alpha    99.498
_cell_angle_beta     112.087
_cell_angle_gamma    96.549

_symmetry_space_group_name_H-M    "P 1"
_symmetry_int_tables_number       1

loop_
  _symmetry_equiv_pos_as_xyz
  'x, y, z'

loop_
  _atom_site_label
  _atom_site_occupancy
  _atom_site_fract_x
  _atom_site_fract_y
  _atom_site_fract_z
  _atom_site_thermal_displace_type
  _atom_site_B_iso_or_equiv
  _atom_site_type_symbol
  Cu1      1.0000 0.50000  0.50000  0.00000  Biso   1.000  Cu
  O1       1.0000 0.63019  0.62657  0.02658  Biso   1.000  O
  O2       1.0000 0.36981  0.37343  0.97342  Biso   1.000  O
  C1       1.0000 0.79790  0.74280  0.01590  Biso   1.000  C
  C2       1.0000 0.20210  0.25720  0.98410  Biso   1.000  C
  F1       1.0000 0.71500  0.80340  0.98710  Biso   1.000  F
  F2       1.0000 0.28500  0.19660  0.01290  Biso   1.000  F
  F3       1.0000 0.87200  0.75660  0.96510  Biso   1.000  F
  F4       1.0000 0.12800  0.24340  0.03490  Biso   1.000  F
  F5       1.0000 0.87600  0.77500  0.11910  Biso   1.000  F
  F6       1.0000 0.12400  0.22500  0.88090  Biso   1.000  F
  C3       1.0000 0.72440  0.63340  0.99420  Biso   1.000  C
  C4       1.0000 0.27560  0.36660  0.00580  Biso   1.000  C
  C5       1.0000 0.76700  0.55510  0.94370  Biso   1.000  C
  C6       1.0000 0.23300  0.44490  0.05630  Biso   1.000  C
  H1       1.0000 0.83970  0.57140  0.92260  Biso   1.000  H
  H2       1.0000 0.16030  0.42860  0.07740  Biso   1.000  H
  C7       1.0000 0.70680  0.45410  0.92310  Biso   1.000  C
  C8       1.0000 0.29320  0.54590  0.07690  Biso   1.000  C
  C9       1.0000 0.75820  0.37280  0.86420  Biso   1.000  C
  C10      1.0000 0.24180  0.62720  0.13580  Biso   1.000  C
  F7       1.0000 0.83360  0.40650  0.81880  Biso   1.000  F
  F8       1.0000 0.16640  0.59350  0.18120  Biso   1.000  F
  F9       1.0000 0.64780  0.31610  0.77290  Biso   1.000  F
  F10      1.0000 0.35220  0.68390  0.22710  Biso   1.000  F
  F11      1.0000 0.80410  0.30950  0.92210  Biso   1.000  F
  F12      1.0000 0.19590  0.69050  0.07790  Biso   1.000  F
  O3       1.0000 0.61191  0.41744  0.94589  Biso   1.000  O
  O4       1.0000 0.38809  0.58256  0.05411  Biso   1.000  O
  Cu2      1.0000 0.00000  0.00000  0.50000  Biso   1.000  Cu
  O5       1.0000 0.15208  0.94049  0.49588  Biso   1.000  O
  O6       1.0000 0.84792  0.05951  0.50412  Biso   1.000  O
  C11      1.0000 0.30320  0.87080  0.43480  Biso   1.000  C
  C12      1.0000 0.69680  0.12920  0.56520  Biso   1.000  C
  F13      1.0000 0.26000  0.77930  0.42400  Biso   1.000  F
  F14      1.0000 0.74000  0.22070  0.57600  Biso   1.000  F
  F15      1.0000 0.36320  0.87160  0.36800  Biso   1.000  F
  F16      1.0000 0.63680  0.12840  0.63200  Biso   1.000  F
  F17      1.0000 0.39760  0.90740  0.53180  Biso   1.000  F
  F18      1.0000 0.60240  0.09260  0.46820  Biso   1.000  F
  C13      1.0000 0.18540  0.92870  0.41560  Biso   1.000  C
  C14      1.0000 0.81460  0.07130  0.58440  Biso   1.000  C
  C15      1.0000 0.13010  0.95960  0.32020  Biso   1.000  C
  C16      1.0000 0.86990  0.04040  0.67980  Biso   1.000  C
  H3       1.0000 0.16170  0.94080  0.26450  Biso   1.000  H
  H4       1.0000 0.83830  0.05920  0.73550  Biso   1.000  H
  C17      1.0000 0.02930  0.01730  0.30170  Biso   1.000  C
  C18      1.0000 0.97070  0.98270  0.69830  Biso   1.000  C
  C19      1.0000 0.98060  0.05400  0.19540  Biso   1.000  C
  C20      1.0000 0.01940  0.94600  0.80460  Biso   1.000  C
  F19      1.0000 0.99110  0.99190  0.11450  Biso   1.000  F
  F20      1.0000 0.00890  0.00810  0.88550  Biso   1.000  F
  F21      1.0000 0.05900  0.14600  0.21010  Biso   1.000  F
  F22      1.0000 0.94100  0.85400  0.78990  Biso   1.000  F
  F23      1.0000 0.85520  0.07640  0.16160  Biso   1.000  F
  F24      1.0000 0.14480  0.92360  0.83840  Biso   1.000  F
  O7       1.0000 0.97310  0.04661  0.36403  Biso   1.000  O
  O8       1.0000 0.02690  0.95339  0.63597  Biso   1.000  O
  O9       1.0000 0.59014  0.48678  0.17671  Biso   1.000  O
  O10      1.0000 0.40986  0.51322  0.82329  Biso   1.000  O
  N1       1.0000 0.71490  0.47909  0.22963  Biso   1.000  N
  N2       1.0000 0.28510  0.52091  0.77037  Biso   1.000  N
  C21      1.0000 0.75480  0.37870  0.24940  Biso   1.000  C
  C22      1.0000 0.24520  0.62130  0.75060  Biso   1.000  C
  C23      1.0000 0.70940  0.35600  0.33980  Biso   1.000  C
  C24      1.0000 0.29060  0.64400  0.66020  Biso   1.000  C
  H5       1.0000 0.61020  0.33820  0.30990  Biso   1.000  H
  H6       1.0000 0.38980  0.66180  0.69010  Biso   1.000  H
  H7       1.0000 0.74130  0.41670  0.40000  Biso   1.000  H
  H8       1.0000 0.25870  0.58330  0.60000  Biso   1.000  H
  H9       1.0000 0.74800  0.29880  0.36690  Biso   1.000  H
  H10      1.0000 0.25200  0.70120  0.63310  Biso   1.000  H
  C25      1.0000 0.68070  0.29400  0.14570  Biso   1.000  C
  C26      1.0000 0.31930  0.70600  0.85430  Biso   1.000  C
  H11      1.0000 0.70970  0.30880  0.08850  Biso   1.000  H
  H12      1.0000 0.29030  0.69120  0.91150  Biso   1.000  H
  H13      1.0000 0.58270  0.29060  0.12080  Biso   1.000  H
  H14      1.0000 0.41730  0.70940  0.87920  Biso   1.000  H
  H15      1.0000 0.70240  0.22840  0.16150  Biso   1.000  H
  H16      1.0000 0.29760  0.77160  0.83850  Biso   1.000  H
  C27      1.0000 0.90930  0.40790  0.28710  Biso   1.000  C
  C28      1.0000 0.09070  0.59210  0.71290  Biso   1.000  C
  C29      1.0000 0.99290  0.35840  0.37620  Biso   1.000  C
  C30      1.0000 0.00710  0.64160  0.62380  Biso   1.000  C
  H17      1.0000 0.08950  0.38130  0.39480  Biso   1.000  H
  H18      1.0000 0.91050  0.61870  0.60520  Biso   1.000  H
  H19      1.0000 0.96900  0.28380  0.35020  Biso   1.000  H
  H20      1.0000 0.03100  0.71620  0.64980  Biso   1.000  H
  H21      1.0000 0.97400  0.37800  0.44130  Biso   1.000  H
  H22      1.0000 0.02600  0.62200  0.55870  Biso   1.000  H
  C31      1.0000 0.95710  0.39660  0.19370  Biso   1.000  C
  C32      1.0000 0.04290  0.60340  0.80630  Biso   1.000  C
  H23      1.0000 0.05620  0.41640  0.22380  Biso   1.000  H
  H24      1.0000 0.94380  0.58360  0.77620  Biso   1.000  H
  H25      1.0000 0.91640  0.44090  0.14500  Biso   1.000  H
  H26      1.0000 0.08360  0.55910  0.85500  Biso   1.000  H
  H27      1.0000 0.92940  0.32530  0.15250  Biso   1.000  H
  H28      1.0000 0.07060  0.67470  0.84750  Biso   1.000  H
  N3       1.0000 0.93210  0.52073  0.33193  Biso   1.000  N
  N4       1.0000 0.06790  0.47927  0.66807  Biso   1.000  N
  O11      1.0000 0.04960  0.57470  0.38972  Biso   1.000  O
  O12      1.0000 0.95040  0.42530  0.61028  Biso   1.000  O
  C33      1.0000 0.81730  0.55820  0.29040  Biso   1.000  C
  C34      1.0000 0.18270  0.44180  0.70960  Biso   1.000  C
  C35      1.0000 0.80650  0.66310  0.31080  Biso   1.000  C
  C36      1.0000 0.19350  0.33690  0.68920  Biso   1.000  C
  C37      1.0000 0.90810  0.74790  0.37940  Biso   1.000  C
  C38      1.0000 0.09190  0.25210  0.62060  Biso   1.000  C
  H29      1.0000 0.99990  0.74410  0.41950  Biso   1.000  H
  H30      1.0000 0.00010  0.25590  0.58050  Biso   1.000  H
  N5       1.0000 0.85990  0.83373  0.38114  Biso   1.000  N
  N6       1.0000 0.14010  0.16627  0.61886  Biso   1.000  N
  N7       1.0000 0.72650  0.80506  0.31239  Biso   1.000  N
  N8       1.0000 0.27350  0.19494  0.68761  Biso   1.000  N
  C39      1.0000 0.64050  0.88150  0.29200  Biso   1.000  C
  C40      1.0000 0.35950  0.11850  0.70800  Biso   1.000  C
  H31      1.0000 0.57510  0.87110  0.32600  Biso   1.000  H
  H32      1.0000 0.42490  0.12890  0.67400  Biso   1.000  H
  H33      1.0000 0.69810  0.95010  0.32850  Biso   1.000  H
  H34      1.0000 0.30190  0.04990  0.67150  Biso   1.000  H
  C41      1.0000 0.56640  0.87970  0.17890  Biso   1.000  C
  C42      1.0000 0.43360  0.12030  0.82110  Biso   1.000  C
  H35      1.0000 0.52020  0.80880  0.13830  Biso   1.000  H
  H36      1.0000 0.47980  0.19120  0.86170  Biso   1.000  H
  H37      1.0000 0.62940  0.90430  0.14710  Biso   1.000  H
  H38      1.0000 0.37060  0.09570  0.85290  Biso   1.000  H
  C43      1.0000 0.44600  0.95830  0.16710  Biso   1.000  C
  C44      1.0000 0.55400  0.04170  0.83290  Biso   1.000  C
  H39      1.0000 0.36950  0.93810  0.09440  Biso   1.000  H
  H40      1.0000 0.63050  0.06190  0.90560  Biso   1.000  H
  H41      1.0000 0.41110  0.95850  0.22490  Biso   1.000  H
  H42      1.0000 0.58890  0.04150  0.77510  Biso   1.000  H
  C45      1.0000 0.51310  0.03690  0.17890  Biso   1.000  C
  C46      1.0000 0.48690  0.96310  0.82110  Biso   1.000  C
  H43      1.0000 0.45970  0.09080  0.17840  Biso   1.000  H
  H44      1.0000 0.54030  0.90920  0.82160  Biso   1.000  H
  H45      1.0000 0.54380  0.03430  0.11930  Biso   1.000  H
  H46      1.0000 0.45620  0.96570  0.88070  Biso   1.000  H
  H47      1.0000 0.59190  0.05160  0.24900  Biso   1.000  H
  H48      1.0000 0.40810  0.94840  0.75100  Biso   1.000  H
  C47      1.0000 0.69150  0.70490  0.27010  Biso   1.000  C
  C48      1.0000 0.30850  0.29510  0.72990  Biso   1.000  C
  H49      1.0000 0.60350  0.66850  0.22090  Biso   1.000  H
  H50      1.0000 0.39650  0.33150  0.77910  Biso   1.000  H
  C49      1.0000 0.34240  0.24010  0.46060  Biso   1.000  C
  C50      1.0000 0.65760  0.75990  0.53940  Biso   1.000  C
  H51      1.0000 0.30320  0.16730  0.42950  Biso   1.000  H
  H52      1.0000 0.69680  0.83270  0.57050  Biso   1.000  H
  H53      1.0000 0.27490  0.27550  0.47510  Biso   1.000  H
  H54      1.0000 0.72510  0.72450  0.52490  Biso   1.000  H
  H55      1.0000 0.42210  0.24830  0.52900  Biso   1.000  H
  H56      1.0000 0.57790  0.75170  0.47100  Biso   1.000  H
  C51      1.0000 0.38060  0.28140  0.38750  Biso   1.000  C
  C52      1.0000 0.61940  0.71860  0.61250  Biso   1.000  C
  H57      1.0000 0.30190  0.27500  0.31770  Biso   1.000  H
  H58      1.0000 0.69810  0.72500  0.68230  Biso   1.000  H
  H59      1.0000 0.45060  0.24820  0.37270  Biso   1.000  H
  H60      1.0000 0.54940  0.75180  0.62730  Biso   1.000  H
  C53      1.0000 0.44080  0.39960  0.45130  Biso   1.000  C
  C54      1.0000 0.55920  0.60040  0.54870  Biso   1.000  C
  C55      1.0000 0.39240  0.47010  0.40560  Biso   1.000  C
  C56      1.0000 0.60760  0.52990  0.59440  Biso   1.000  C
  H61      1.0000 0.31560  0.45170  0.33780  Biso   1.000  H
  H62      1.0000 0.68440  0.54830  0.66220  Biso   1.000  H
  C57      1.0000 0.55240  0.43010  0.54890  Biso   1.000  C
  C58      1.0000 0.44760  0.56990  0.45110  Biso   1.000  C
  H63      1.0000 0.59160  0.37990  0.58520  Biso   1.000  H
  H64      1.0000 0.40840  0.62010  0.41480  Biso   1.000  H
  C59      1.0000 0.48500  0.96140  0.16200  Biso   1.000  C
  C60      1.0000 0.51500  0.03860  0.83800  Biso   1.000  C
  C61      1.0000 0.37540  0.95650  0.08440  Biso   1.000  C
  C62      1.0000 0.62460  0.04350  0.91560  Biso   1.000  C
  F25      1.0000 0.97550  0.98580  0.87560  Biso   1.000  F
  F26      1.0000 0.02450  0.01420  0.12440  Biso   1.000  F
  F27      1.0000 0.98900  0.85250  0.79210  Biso   1.000  F
  F28      1.0000 0.01100  0.14750  0.20790  Biso   1.000  F
  F29      1.0000 0.84720  0.02640  0.15010  Biso   1.000  F
  F30      1.0000 0.15280  0.97360  0.84990  Biso   1.000  F
  F31      1.0000 0.28270  0.20350  0.04250  Biso   1.000  F
  F32      1.0000 0.71730  0.79650  0.95750  Biso   1.000  F
  F33      1.0000 0.09300  0.25340  0.01000  Biso   1.000  F
  F34      1.0000 0.90700  0.74660  0.99000  Biso   1.000  F
  F35      1.0000 0.16100  0.20890  0.88330  Biso   1.000  F
  F36      1.0000 0.83900  0.79110  0.11670  Biso   1.000  F
  F37      1.0000 0.10580  0.59480  0.11320  Biso   1.000  F
  F38      1.0000 0.89420  0.40520  0.88680  Biso   1.000  F
  F39      1.0000 0.30680  0.65250  0.23270  Biso   1.000  F
  F40      1.0000 0.69320  0.34750  0.76730  Biso   1.000  F
  F41      1.0000 0.23070  0.70710  0.09540  Biso   1.000  F
  F42      1.0000 0.76930  0.29290  0.90460  Biso   1.000  F
  F43      1.0000 0.72500  0.22150  0.54600  Biso   1.000  F
  F44      1.0000 0.27500  0.77850  0.45400  Biso   1.000  F
  F45      1.0000 0.66800  0.14030  0.65380  Biso   1.000  F
  F46      1.0000 0.33200  0.85970  0.34620  Biso   1.000  F
  F47      1.0000 0.58610  0.07920  0.48230  Biso   1.000  F
  F48      1.0000 0.41390  0.92080  0.51770  Biso   1.000  F
  H65      1.0000 0.46820  0.97930  0.22890  Biso   1.000  H
  H66      1.0000 0.53180  0.02070  0.77110  Biso   1.000  H
  H67      1.0000 0.54690  0.02160  0.16240  Biso   1.000  H
  H68      1.0000 0.45310  0.97840  0.83760  Biso   1.000  H
  H69      1.0000 0.34640  0.02240  0.09170  Biso   1.000  H
  H70      1.0000 0.65360  0.97760  0.90830  Biso   1.000  H
  H71      1.0000 0.30670  0.90310  0.08500  Biso   1.000  H
  H72      1.0000 0.69330  0.09690  0.91500  Biso   1.000  H
  H73      1.0000 0.38640  0.94020  0.01540  Biso   1.000  H
  H74      1.0000 0.61360  0.05980  0.98460  Biso   1.000  H
