data_image0
_cell_length_a       11.0429
_cell_length_b       13.5696
_cell_length_c       13.6384
_cell_angle_alpha    99.227
_cell_angle_beta     111.801
_cell_angle_gamma    97.023

_symmetry_space_group_name_H-M    "P 1"
_symmetry_int_tables_number       1

loop_
  _symmetry_equiv_pos_as_xyz
  'x, y, z'

loop_
  _atom_site_label
  _atom_site_occupancy
  _atom_site_fract_x
  _atom_site_fract_y
  _atom_site_fract_z
  _atom_site_thermal_displace_type
  _atom_site_B_iso_or_equiv
  _atom_site_type_symbol
  Cu1      1.0000 0.50000  0.50000  0.00000  Biso   1.000  Cu
  O1       1.0000 0.62505  0.62647  0.02550  Biso   1.000  O
  O2       1.0000 0.37495  0.37353  0.97450  Biso   1.000  O
  C1       1.0000 0.79150  0.74360  0.01710  Biso   1.000  C
  C2       1.0000 0.20850  0.25640  0.98290  Biso   1.000  C
  F1       1.0000 0.71610  0.80110  0.00000  Biso   1.000  F
  F2       1.0000 0.28390  0.19890  0.00000  Biso   1.000  F
  F3       1.0000 0.85500  0.76040  0.95920  Biso   1.000  F
  F4       1.0000 0.14500  0.23960  0.04080  Biso   1.000  F
  F5       1.0000 0.88000  0.76820  0.11420  Biso   1.000  F
  F6       1.0000 0.12000  0.23180  0.88580  Biso   1.000  F
  C3       1.0000 0.71810  0.63390  0.99450  Biso   1.000  C
  C4       1.0000 0.28190  0.36610  0.00550  Biso   1.000  C
  C5       1.0000 0.76010  0.55670  0.94470  Biso   1.000  C
  C6       1.0000 0.23990  0.44330  0.05530  Biso   1.000  C
  H1       1.0000 0.83100  0.57320  0.92510  Biso   1.000  H
  H2       1.0000 0.16900  0.42680  0.07490  Biso   1.000  H
  C7       1.0000 0.70130  0.45670  0.92310  Biso   1.000  C
  C8       1.0000 0.29870  0.54330  0.07690  Biso   1.000  C
  C9       1.0000 0.75400  0.37550  0.86640  Biso   1.000  C
  C10      1.0000 0.24600  0.62450  0.13360  Biso   1.000  C
  F7       1.0000 0.82620  0.40950  0.81970  Biso   1.000  F
  F8       1.0000 0.17380  0.59050  0.18030  Biso   1.000  F
  F9       1.0000 0.64500  0.31680  0.77620  Biso   1.000  F
  F10      1.0000 0.35500  0.68320  0.22380  Biso   1.000  F
  F11      1.0000 0.79590  0.31290  0.92200  Biso   1.000  F
  F12      1.0000 0.20410  0.68710  0.07800  Biso   1.000  F
  O3       1.0000 0.60735  0.41950  0.94516  Biso   1.000  O
  O4       1.0000 0.39265  0.58050  0.05484  Biso   1.000  O
  Cu2      1.0000 0.00000  0.00000  0.50000  Biso   1.000  Cu
  O5       1.0000 0.14542  0.93890  0.49149  Biso   1.000  O
  O6       1.0000 0.85458  0.06110  0.50851  Biso   1.000  O
  C11      1.0000 0.28920  0.86740  0.42660  Biso   1.000  C
  C12      1.0000 0.71080  0.13260  0.57340  Biso   1.000  C
  F13      1.0000 0.25020  0.77380  0.41190  Biso   1.000  F
  F14      1.0000 0.74980  0.22620  0.58810  Biso   1.000  F
  F15      1.0000 0.34820  0.87400  0.36340  Biso   1.000  F
  F16      1.0000 0.65180  0.12600  0.63660  Biso   1.000  F
  F17      1.0000 0.38690  0.89920  0.52440  Biso   1.000  F
  F18      1.0000 0.61310  0.10080  0.47560  Biso   1.000  F
  C13      1.0000 0.17540  0.92760  0.41150  Biso   1.000  C
  C14      1.0000 0.82460  0.07240  0.58850  Biso   1.000  C
  C15      1.0000 0.12100  0.95960  0.31800  Biso   1.000  C
  C16      1.0000 0.87900  0.04040  0.68200  Biso   1.000  C
  H3       1.0000 0.14970  0.94130  0.26290  Biso   1.000  H
  H4       1.0000 0.85030  0.05870  0.73710  Biso   1.000  H
  C17      1.0000 0.02430  0.01870  0.30200  Biso   1.000  C
  C18      1.0000 0.97570  0.98130  0.69800  Biso   1.000  C
  C19      1.0000 0.97500  0.05630  0.19650  Biso   1.000  C
  C20      1.0000 0.02500  0.94370  0.80350  Biso   1.000  C
  F19      1.0000 0.97680  0.99370  0.11560  Biso   1.000  F
  F20      1.0000 0.02320  0.00630  0.88440  Biso   1.000  F
  F21      1.0000 0.05850  0.14590  0.21090  Biso   1.000  F
  F22      1.0000 0.94150  0.85410  0.78910  Biso   1.000  F
  F23      1.0000 0.85820  0.08420  0.17230  Biso   1.000  F
  F24      1.0000 0.14180  0.91580  0.82770  Biso   1.000  F
  O7       1.0000 0.97090  0.04663  0.36461  Biso   1.000  O
  O8       1.0000 0.02910  0.95337  0.63539  Biso   1.000  O
  O9       1.0000 0.40614  0.51292  0.81996  Biso   1.000  O
  O10      1.0000 0.59386  0.48708  0.18004  Biso   1.000  O
  N1       1.0000 0.28370  0.51951  0.76776  Biso   1.000  N
  N2       1.0000 0.71630  0.48049  0.23224  Biso   1.000  N
  C21      1.0000 0.24420  0.61910  0.74980  Biso   1.000  C
  C22      1.0000 0.75580  0.38090  0.25020  Biso   1.000  C
  C23      1.0000 0.28650  0.64290  0.65940  Biso   1.000  C
  C24      1.0000 0.71350  0.35710  0.34060  Biso   1.000  C
  H5       1.0000 0.23960  0.59020  0.59490  Biso   1.000  H
  H6       1.0000 0.76040  0.40980  0.40510  Biso   1.000  H
  H7       1.0000 0.26590  0.70710  0.64480  Biso   1.000  H
  H8       1.0000 0.73410  0.29290  0.35520  Biso   1.000  H
  H9       1.0000 0.38060  0.64620  0.68190  Biso   1.000  H
  H10      1.0000 0.61940  0.35380  0.31810  Biso   1.000  H
  C25      1.0000 0.31580  0.70170  0.85200  Biso   1.000  C
  C26      1.0000 0.68420  0.29830  0.14800  Biso   1.000  C
  H11      1.0000 0.28730  0.68630  0.90730  Biso   1.000  H
  H12      1.0000 0.71270  0.31370  0.09270  Biso   1.000  H
  H13      1.0000 0.41000  0.70510  0.87620  Biso   1.000  H
  H14      1.0000 0.59000  0.29490  0.12380  Biso   1.000  H
  H15      1.0000 0.29560  0.76600  0.83740  Biso   1.000  H
  H16      1.0000 0.70440  0.23400  0.16260  Biso   1.000  H
  C27      1.0000 0.09300  0.58820  0.71300  Biso   1.000  C
  C28      1.0000 0.90700  0.41180  0.28700  Biso   1.000  C
  C29      1.0000 0.00910  0.63730  0.62430  Biso   1.000  C
  C30      1.0000 0.99090  0.36270  0.37570  Biso   1.000  C
  H17      1.0000 0.03990  0.63110  0.56680  Biso   1.000  H
  H18      1.0000 0.96010  0.36890  0.43320  Biso   1.000  H
  H19      1.0000 0.91750  0.60360  0.59640  Biso   1.000  H
  H20      1.0000 0.08250  0.39640  0.40360  Biso   1.000  H
  H21      1.0000 0.01720  0.70810  0.65400  Biso   1.000  H
  H22      1.0000 0.98280  0.29190  0.34600  Biso   1.000  H
  C31      1.0000 0.04620  0.59730  0.80540  Biso   1.000  C
  C32      1.0000 0.95380  0.40270  0.19460  Biso   1.000  C
  H23      1.0000 0.10000  0.56640  0.86040  Biso   1.000  H
  H24      1.0000 0.90000  0.43360  0.13960  Biso   1.000  H
  H25      1.0000 0.05430  0.66790  0.83570  Biso   1.000  H
  H26      1.0000 0.94570  0.33210  0.16430  Biso   1.000  H
  H27      1.0000 0.95490  0.56320  0.77830  Biso   1.000  H
  H28      1.0000 0.04510  0.43680  0.22170  Biso   1.000  H
  N3       1.0000 0.07150  0.47630  0.66803  Biso   1.000  N
  N4       1.0000 0.92850  0.52370  0.33197  Biso   1.000  N
  O11      1.0000 0.95661  0.42177  0.61096  Biso   1.000  O
  O12      1.0000 0.04339  0.57823  0.38904  Biso   1.000  O
  C33      1.0000 0.18460  0.44063  0.70810  Biso   1.000  C
  C34      1.0000 0.81540  0.55937  0.29190  Biso   1.000  C
  C35      1.0000 0.19540  0.33574  0.68677  Biso   1.000  C
  C36      1.0000 0.80460  0.66426  0.31323  Biso   1.000  C
  C37      1.0000 0.09720  0.25191  0.61850  Biso   1.000  C
  C38      1.0000 0.90280  0.74809  0.38150  Biso   1.000  C
  H29      1.0000 0.00900  0.25530  0.58000  Biso   1.000  H
  H30      1.0000 0.99100  0.74470  0.42000  Biso   1.000  H
  N5       1.0000 0.14410  0.16744  0.61506  Biso   1.000  N
  N6       1.0000 0.85590  0.83256  0.38494  Biso   1.000  N
  N7       1.0000 0.27430  0.19586  0.68255  Biso   1.000  N
  N8       1.0000 0.72570  0.80414  0.31745  Biso   1.000  N
  C39      1.0000 0.36070  0.12080  0.69960  Biso   1.000  C
  C40      1.0000 0.63930  0.87920  0.30040  Biso   1.000  C
  H31      1.0000 0.42750  0.13750  0.67140  Biso   1.000  H
  H32      1.0000 0.57250  0.86250  0.32860  Biso   1.000  H
  H33      1.0000 0.30750  0.05430  0.65770  Biso   1.000  H
  H34      1.0000 0.69250  0.94570  0.34230  Biso   1.000  H
  C41      1.0000 0.42590  0.11430  0.80830  Biso   1.000  C
  C42      1.0000 0.57410  0.88570  0.19170  Biso   1.000  C
  H35      1.0000 0.48640  0.17830  0.85000  Biso   1.000  H
  H36      1.0000 0.51360  0.82170  0.15000  Biso   1.000  H
  H37      1.0000 0.36080  0.10200  0.83930  Biso   1.000  H
  H38      1.0000 0.63920  0.89800  0.16070  Biso   1.000  H
  C43      1.0000 0.50510  0.02620  0.81500  Biso   1.000  C
  C44      1.0000 0.49490  0.97380  0.18500  Biso   1.000  C
  H39      1.0000 0.53710  0.02220  0.75740  Biso   1.000  H
  H40      1.0000 0.46290  0.97780  0.24260  Biso   1.000  H
  H41      1.0000 0.44240  0.96310  0.79870  Biso   1.000  H
  H42      1.0000 0.55760  0.03690  0.20130  Biso   1.000  H
  C45      1.0000 0.59190  0.02830  0.89180  Biso   1.000  C
  C46      1.0000 0.40810  0.97170  0.10820  Biso   1.000  C
  H43      1.0000 0.61520  0.96230  0.89010  Biso   1.000  H
  H44      1.0000 0.38480  0.03770  0.10990  Biso   1.000  H
  H45      1.0000 0.66640  0.07770  0.89870  Biso   1.000  H
  H46      1.0000 0.33360  0.92230  0.10130  Biso   1.000  H
  H47      1.0000 0.56860  0.04670  0.95250  Biso   1.000  H
  H48      1.0000 0.43140  0.95330  0.04750  Biso   1.000  H
  C47      1.0000 0.30810  0.29520  0.72560  Biso   1.000  C
  C48      1.0000 0.69190  0.70480  0.27440  Biso   1.000  C
  H49      1.0000 0.39250  0.33100  0.77330  Biso   1.000  H
  H50      1.0000 0.60750  0.66900  0.22670  Biso   1.000  H
  C49      1.0000 0.34450  0.25410  0.44310  Biso   1.000  C
  C50      1.0000 0.65550  0.74590  0.55690  Biso   1.000  C
  H51      1.0000 0.30610  0.18340  0.43000  Biso   1.000  H
  H52      1.0000 0.69390  0.81660  0.57000  Biso   1.000  H
  H53      1.0000 0.27990  0.29460  0.44590  Biso   1.000  H
  H54      1.0000 0.72010  0.70540  0.55410  Biso   1.000  H
  H55      1.0000 0.42070  0.27320  0.51080  Biso   1.000  H
  H56      1.0000 0.57930  0.72680  0.48920  Biso   1.000  H
  C51      1.0000 0.37630  0.26740  0.37460  Biso   1.000  C
  C52      1.0000 0.62370  0.73260  0.62540  Biso   1.000  C
  H57      1.0000 0.30360  0.25770  0.30440  Biso   1.000  H
  H58      1.0000 0.69640  0.74230  0.69560  Biso   1.000  H
  H59      1.0000 0.44680  0.23320  0.36980  Biso   1.000  H
  H60      1.0000 0.55320  0.76680  0.63020  Biso   1.000  H
  C53      1.0000 0.43490  0.40320  0.45630  Biso   1.000  C
  C54      1.0000 0.56510  0.59680  0.54370  Biso   1.000  C
  C55      1.0000 0.40090  0.47140  0.40620  Biso   1.000  C
  C56      1.0000 0.59910  0.52860  0.59380  Biso   1.000  C
  H61      1.0000 0.32900  0.45570  0.33940  Biso   1.000  H
  H62      1.0000 0.67100  0.54430  0.66060  Biso   1.000  H
  C57      1.0000 0.53130  0.43330  0.55070  Biso   1.000  C
  C58      1.0000 0.46870  0.56670  0.44930  Biso   1.000  C
  H63      1.0000 0.55530  0.38480  0.59160  Biso   1.000  H
  H64      1.0000 0.44470  0.61520  0.40840  Biso   1.000  H
  F25      1.0000 0.97370  0.97620  0.87040  Biso   1.000  F
  F26      1.0000 0.02630  0.02380  0.12960  Biso   1.000  F
  F27      1.0000 0.99900  0.85130  0.78920  Biso   1.000  F
  F28      1.0000 0.00100  0.14870  0.21080  Biso   1.000  F
  F29      1.0000 0.84740  0.02610  0.14900  Biso   1.000  F
  F30      1.0000 0.15260  0.97390  0.85100  Biso   1.000  F
  F31      1.0000 0.28770  0.19810  0.03750  Biso   1.000  F
  F32      1.0000 0.71230  0.80190  0.96250  Biso   1.000  F
  F33      1.0000 0.10410  0.25180  0.00480  Biso   1.000  F
  F34      1.0000 0.89590  0.74820  0.99520  Biso   1.000  F
  F35      1.0000 0.17720  0.20870  0.88330  Biso   1.000  F
  F36      1.0000 0.82280  0.79130  0.11670  Biso   1.000  F
  F37      1.0000 0.11170  0.59310  0.10120  Biso   1.000  F
  F38      1.0000 0.88830  0.40690  0.89880  Biso   1.000  F
  F39      1.0000 0.29900  0.63880  0.22940  Biso   1.000  F
  F40      1.0000 0.70100  0.36120  0.77060  Biso   1.000  F
  F41      1.0000 0.24680  0.70520  0.10140  Biso   1.000  F
  F42      1.0000 0.75320  0.29480  0.89860  Biso   1.000  F
  F43      1.0000 0.72660  0.20650  0.52890  Biso   1.000  F
  F44      1.0000 0.27340  0.79350  0.47110  Biso   1.000  F
  F45      1.0000 0.71300  0.16780  0.67020  Biso   1.000  F
  F46      1.0000 0.28700  0.83220  0.32980  Biso   1.000  F
  F47      1.0000 0.60530  0.07370  0.52090  Biso   1.000  F
  F48      1.0000 0.39470  0.92630  0.47910  Biso   1.000  F
