data_image0
_cell_length_a       10.668
_cell_length_b       13.3413
_cell_length_c       13.6446
_cell_angle_alpha    74.719
_cell_angle_beta     83.783
_cell_angle_gamma    66.73

_symmetry_space_group_name_H-M    "P 1"
_symmetry_int_tables_number       1

loop_
  _symmetry_equiv_pos_as_xyz
  'x, y, z'

loop_
  _atom_site_label
  _atom_site_occupancy
  _atom_site_fract_x
  _atom_site_fract_y
  _atom_site_fract_z
  _atom_site_thermal_displace_type
  _atom_site_B_iso_or_equiv
  _atom_site_type_symbol
  Cu1      1.0000 0.00000  0.50000  0.50000  Biso   1.000  Cu
  O1       1.0000 0.12145  0.53249  0.36710  Biso   1.000  O
  O2       1.0000 0.87855  0.46751  0.63290  Biso   1.000  O
  C1       1.0000 0.30750  0.50700  0.25710  Biso   1.000  C
  C2       1.0000 0.69250  0.49300  0.74290  Biso   1.000  C
  F1       1.0000 0.27370  0.61360  0.21570  Biso   1.000  F
  F2       1.0000 0.72630  0.38640  0.78430  Biso   1.000  F
  F3       1.0000 0.25840  0.46400  0.20110  Biso   1.000  F
  F4       1.0000 0.74160  0.53600  0.79890  Biso   1.000  F
  F5       1.0000 0.44237  0.46671  0.25311  Biso   1.000  F
  F6       1.0000 0.55763  0.53329  0.74689  Biso   1.000  F
  C3       1.0000 0.24870  0.49252  0.36470  Biso   1.000  C
  C4       1.0000 0.75130  0.50748  0.63530  Biso   1.000  C
  C5       1.0000 0.33910  0.43731  0.44620  Biso   1.000  C
  C6       1.0000 0.66090  0.56269  0.55380  Biso   1.000  C
  H1       1.0000 0.43430  0.41100  0.43250  Biso   1.000  H
  H2       1.0000 0.56570  0.58900  0.56750  Biso   1.000  H
  C7       1.0000 0.29550  0.41937  0.54618  Biso   1.000  C
  C8       1.0000 0.70450  0.58063  0.45382  Biso   1.000  C
  C9       1.0000 0.40190  0.35230  0.62983  Biso   1.000  C
  C10      1.0000 0.59810  0.64770  0.37017  Biso   1.000  C
  F7       1.0000 0.53042  0.31755  0.59626  Biso   1.000  F
  F8       1.0000 0.46958  0.68245  0.40374  Biso   1.000  F
  F9       1.0000 0.39324  0.41281  0.69615  Biso   1.000  F
  F10      1.0000 0.60676  0.58719  0.30385  Biso   1.000  F
  F11      1.0000 0.38032  0.26082  0.68252  Biso   1.000  F
  F12      1.0000 0.61968  0.73918  0.31748  Biso   1.000  F
  O3       1.0000 0.17514  0.45180  0.58094  Biso   1.000  O
  O4       1.0000 0.82486  0.54820  0.41906  Biso   1.000  O
  Cu2      1.0000 0.00000  0.00000  0.00000  Biso   1.000  Cu
  O5       1.0000 0.84083  0.99777  0.94600  Biso   1.000  O
  O6       1.0000 0.15917  0.00223  0.05400  Biso   1.000  O
  C11      1.0000 0.62550  0.05690  0.87778  Biso   1.000  C
  C12      1.0000 0.37450  0.94310  0.12222  Biso   1.000  C
  F13      1.0000 0.66836  0.05226  0.78291  Biso   1.000  F
  F14      1.0000 0.33164  0.94774  0.21709  Biso   1.000  F
  F15      1.0000 0.50018  0.13610  0.87308  Biso   1.000  F
  F16      1.0000 0.49982  0.86390  0.12692  Biso   1.000  F
  F17      1.0000 0.61644  0.95859  0.92435  Biso   1.000  F
  F18      1.0000 0.38356  0.04141  0.07565  Biso   1.000  F
  C13      1.0000 0.72680  0.07900  0.93322  Biso   1.000  C
  C14      1.0000 0.27320  0.92100  0.06678  Biso   1.000  C
  C15      1.0000 0.68580  0.17960  0.96084  Biso   1.000  C
  C16      1.0000 0.31420  0.82040  0.03916  Biso   1.000  C
  H3       1.0000 0.59770  0.23550  0.94190  Biso   1.000  H
  H4       1.0000 0.40230  0.76450  0.05810  Biso   1.000  H
  C17      1.0000 0.77150  0.20076  0.01621  Biso   1.000  C
  C18      1.0000 0.22850  0.79924  0.98379  Biso   1.000  C
  C19      1.0000 0.71520  0.31080  0.05080  Biso   1.000  C
  C20      1.0000 0.28480  0.68920  0.94920  Biso   1.000  C
  F19      1.0000 0.68641  0.29090  0.14951  Biso   1.000  F
  F20      1.0000 0.31359  0.70910  0.85049  Biso   1.000  F
  F21      1.0000 0.60155  0.38604  0.00351  Biso   1.000  F
  F22      1.0000 0.39845  0.61396  0.99649  Biso   1.000  F
  F23      1.0000 0.80522  0.35938  0.03520  Biso   1.000  F
  F24      1.0000 0.19478  0.64062  0.96480  Biso   1.000  F
  O7       1.0000 0.89121  0.13851  0.04551  Biso   1.000  O
  O8       1.0000 0.10879  0.86149  0.95449  Biso   1.000  O
  O9       1.0000 0.08117  0.34019  0.48996  Biso   1.000  O
  O10      1.0000 0.91883  0.65981  0.51004  Biso   1.000  O
  N1       1.0000 0.00871  0.28399  0.48019  Biso   1.000  N
  N2       1.0000 0.99129  0.71601  0.51981  Biso   1.000  N
  C21      1.0000 0.99770  0.26011  0.38039  Biso   1.000  C
  C22      1.0000 0.00230  0.73989  0.61961  Biso   1.000  C
  C23      1.0000 0.13490  0.16871  0.36489  Biso   1.000  C
  C24      1.0000 0.86510  0.83129  0.63511  Biso   1.000  C
  H5       1.0000 0.20470  0.20120  0.34800  Biso   1.000  H
  H6       1.0000 0.79530  0.79880  0.65200  Biso   1.000  H
  H7       1.0000 0.12760  0.13750  0.30930  Biso   1.000  H
  H8       1.0000 0.87240  0.86250  0.69070  Biso   1.000  H
  H9       1.0000 0.16050  0.10880  0.42740  Biso   1.000  H
  H10      1.0000 0.83950  0.89120  0.57260  Biso   1.000  H
  C25      1.0000 0.96950  0.36413  0.29341  Biso   1.000  C
  C26      1.0000 0.03050  0.63587  0.70659  Biso   1.000  C
  H11      1.0000 0.04970  0.38440  0.28190  Biso   1.000  H
  H12      1.0000 0.95030  0.61560  0.71810  Biso   1.000  H
  H13      1.0000 0.89080  0.42650  0.31050  Biso   1.000  H
  H14      1.0000 0.10920  0.57350  0.68950  Biso   1.000  H
  H15      1.0000 0.95000  0.34860  0.23170  Biso   1.000  H
  H16      1.0000 0.05000  0.65140  0.76830  Biso   1.000  H
  C27      1.0000 0.87840  0.21785  0.40625  Biso   1.000  C
  C28      1.0000 0.12160  0.78215  0.59375  Biso   1.000  C
  C29      1.0000 0.88800  0.12554  0.35705  Biso   1.000  C
  C30      1.0000 0.11200  0.87446  0.64295  Biso   1.000  C
  H17      1.0000 0.80960  0.10380  0.37810  Biso   1.000  H
  H18      1.0000 0.19040  0.89620  0.62190  Biso   1.000  H
  H19      1.0000 0.97260  0.06020  0.37820  Biso   1.000  H
  H20      1.0000 0.02740  0.93980  0.62180  Biso   1.000  H
  H21      1.0000 0.88780  0.15300  0.28300  Biso   1.000  H
  H22      1.0000 0.11220  0.84700  0.71700  Biso   1.000  H
  C31      1.0000 0.73740  0.31227  0.39040  Biso   1.000  C
  C32      1.0000 0.26260  0.68773  0.60960  Biso   1.000  C
  H23      1.0000 0.66730  0.28020  0.40880  Biso   1.000  H
  H24      1.0000 0.33270  0.71980  0.59120  Biso   1.000  H
  H25      1.0000 0.72690  0.35380  0.31890  Biso   1.000  H
  H26      1.0000 0.27310  0.64620  0.68110  Biso   1.000  H
  H27      1.0000 0.72730  0.36350  0.43330  Biso   1.000  H
  H28      1.0000 0.27270  0.63650  0.56670  Biso   1.000  H
  N3       1.0000 0.89618  0.17277  0.51947  Biso   1.000  N
  N4       1.0000 0.10382  0.82723  0.48053  Biso   1.000  N
  O11      1.0000 0.83731  0.10924  0.57166  Biso   1.000  O
  O12      1.0000 0.16269  0.89076  0.42834  Biso   1.000  O
  C33      1.0000 0.96730  0.21856  0.55843  Biso   1.000  C
  C34      1.0000 0.03270  0.78144  0.44157  Biso   1.000  C
  C35      1.0000 0.99590  0.19673  0.66366  Biso   1.000  C
  C36      1.0000 0.00410  0.80327  0.33634  Biso   1.000  C
  C37      1.0000 0.96100  0.12514  0.74804  Biso   1.000  C
  C38      1.0000 0.03900  0.87486  0.25196  Biso   1.000  C
  H29      1.0000 0.90970  0.08220  0.74400  Biso   1.000  H
  H30      1.0000 0.09030  0.91780  0.25600  Biso   1.000  H
  N5       1.0000 0.00881  0.12512  0.83400  Biso   1.000  N
  N6       1.0000 0.99119  0.87488  0.16600  Biso   1.000  N
  N7       1.0000 0.07382  0.19876  0.80516  Biso   1.000  N
  N8       1.0000 0.92618  0.80124  0.19484  Biso   1.000  N
  C39      1.0000 0.13910  0.22142  0.88180  Biso   1.000  C
  C40      1.0000 0.86090  0.77858  0.11820  Biso   1.000  C
  H31      1.0000 0.23860  0.17700  0.88160  Biso   1.000  H
  H32      1.0000 0.76140  0.82300  0.11840  Biso   1.000  H
  H33      1.0000 0.10310  0.19670  0.94990  Biso   1.000  H
  H34      1.0000 0.89690  0.80330  0.05010  Biso   1.000  H
  C41      1.0000 0.11460  0.34450  0.86261  Biso   1.000  C
  C42      1.0000 0.88540  0.65550  0.13739  Biso   1.000  C
  H35      1.0000 0.01610  0.38820  0.87070  Biso   1.000  H
  H36      1.0000 0.98390  0.61180  0.12930  Biso   1.000  H
  H37      1.0000 0.14110  0.37160  0.79190  Biso   1.000  H
  H38      1.0000 0.85890  0.62840  0.20810  Biso   1.000  H
  C43      1.0000 0.19690  0.36490  0.93660  Biso   1.000  C
  C44      1.0000 0.80310  0.63510  0.06340  Biso   1.000  C
  H39      1.0000 0.29460  0.31710  0.93190  Biso   1.000  H
  H40      1.0000 0.70540  0.68290  0.06810  Biso   1.000  H
  H41      1.0000 0.18770  0.44440  0.91600  Biso   1.000  H
  H42      1.0000 0.81230  0.55560  0.08400  Biso   1.000  H
  C45      1.0000 0.14960  0.33930  0.04430  Biso   1.000  C
  C46      1.0000 0.85040  0.66070  0.95570  Biso   1.000  C
  H43      1.0000 0.20530  0.35220  0.08860  Biso   1.000  H
  H44      1.0000 0.79470  0.64780  0.91140  Biso   1.000  H
  H45      1.0000 0.15890  0.26060  0.06510  Biso   1.000  H
  H46      1.0000 0.84110  0.73940  0.93490  Biso   1.000  H
  H47      1.0000 0.05380  0.38840  0.04980  Biso   1.000  H
  H48      1.0000 0.94620  0.61160  0.95020  Biso   1.000  H
  C47      1.0000 0.07000  0.24083  0.70546  Biso   1.000  C
  C48      1.0000 0.93000  0.75917  0.29454  Biso   1.000  C
  H49      1.0000 0.11040  0.29180  0.66920  Biso   1.000  H
  H50      1.0000 0.88960  0.70820  0.33080  Biso   1.000  H
  C49      1.0000 0.36440  0.97480  0.76776  Biso   1.000  C
  C50      1.0000 0.63560  0.02520  0.23224  Biso   1.000  C
  H51      1.0000 0.36380  0.93980  0.84050  Biso   1.000  H
  H52      1.0000 0.63620  0.06020  0.15950  Biso   1.000  H
  H53      1.0000 0.28020  0.98480  0.73690  Biso   1.000  H
  H54      1.0000 0.71980  0.01520  0.26310  Biso   1.000  H
  H55      1.0000 0.37030  0.04820  0.75830  Biso   1.000  H
  H56      1.0000 0.62970  0.95180  0.24170  Biso   1.000  H
  C51      1.0000 0.48740  0.89910  0.71711  Biso   1.000  C
  C52      1.0000 0.51260  0.10090  0.28289  Biso   1.000  C
  H57      1.0000 0.57200  0.88660  0.75050  Biso   1.000  H
  H58      1.0000 0.42800  0.11340  0.24950  Biso   1.000  H
  H59      1.0000 0.48090  0.82520  0.72670  Biso   1.000  H
  H60      1.0000 0.51910  0.17480  0.27330  Biso   1.000  H
  C53      1.0000 0.49580  0.94990  0.60463  Biso   1.000  C
  C54      1.0000 0.50420  0.05010  0.39537  Biso   1.000  C
  C55      1.0000 0.46740  0.90700  0.53164  Biso   1.000  C
  C56      1.0000 0.53260  0.09300  0.46836  Biso   1.000  C
  H61      1.0000 0.44480  0.84240  0.55240  Biso   1.000  H
  H62      1.0000 0.55520  0.15760  0.44760  Biso   1.000  H
  C57      1.0000 0.52880  0.04430  0.57037  Biso   1.000  C
  C58      1.0000 0.47120  0.95570  0.42963  Biso   1.000  C
  H63      1.0000 0.54910  0.07590  0.61840  Biso   1.000  H
  H64      1.0000 0.45090  0.92410  0.38160  Biso   1.000  H
  F25      1.0000 0.74520  0.38660  0.80000  Biso   1.000  F
  F26      1.0000 0.25480  0.61340  0.20000  Biso   1.000  F
  F27      1.0000 0.71990  0.55400  0.79330  Biso   1.000  F
  F28      1.0000 0.28010  0.44600  0.20670  Biso   1.000  F
