data_image0
_cell_length_a       10.575
_cell_length_b       13.238
_cell_length_c       13.458
_cell_angle_alpha    76.07
_cell_angle_beta     66.969
_cell_angle_gamma    83.891

_symmetry_space_group_name_H-M    "P 1"
_symmetry_int_tables_number       1

loop_
  _symmetry_equiv_pos_as_xyz
  'x, y, z'

loop_
  _atom_site_label
  _atom_site_occupancy
  _atom_site_fract_x
  _atom_site_fract_y
  _atom_site_fract_z
  _atom_site_thermal_displace_type
  _atom_site_B_iso_or_equiv
  _atom_site_type_symbol
  Cu1      1.0000 0.50000  0.00000  0.50000  Biso   1.000  Cu
  O1       1.0000 0.39240  0.12490  0.47190  Biso   1.000  O
  O2       1.0000 0.60760  0.87510  0.52810  Biso   1.000  O
  C1       1.0000 0.21140  0.24170  0.48440  Biso   1.000  C
  C2       1.0000 0.78860  0.75830  0.51560  Biso   1.000  C
  F1       1.0000 0.25790  0.30070  0.52870  Biso   1.000  F
  F2       1.0000 0.74210  0.69930  0.47130  Biso   1.000  F
  F3       1.0000 0.25650  0.28380  0.37840  Biso   1.000  F
  F4       1.0000 0.74350  0.71620  0.62160  Biso   1.000  F
  F5       1.0000 0.07630  0.25060  0.52470  Biso   1.000  F
  F6       1.0000 0.92370  0.74940  0.47530  Biso   1.000  F
  C3       1.0000 0.26390  0.13170  0.50560  Biso   1.000  C
  C4       1.0000 0.73610  0.86830  0.49440  Biso   1.000  C
  C5       1.0000 0.16920  0.05300  0.55760  Biso   1.000  C
  C6       1.0000 0.83080  0.94700  0.44240  Biso   1.000  C
  H1       1.0000 0.07410  0.07020  0.57970  Biso   1.000  H
  H2       1.0000 0.92590  0.92980  0.42030  Biso   1.000  H
  C7       1.0000 0.20870  0.95060  0.57810  Biso   1.000  C
  C8       1.0000 0.79130  0.04940  0.42190  Biso   1.000  C
  C9       1.0000 0.09790  0.86800  0.63700  Biso   1.000  C
  C10      1.0000 0.90210  0.13200  0.36300  Biso   1.000  C
  F7       1.0000 0.98420  0.90050  0.63300  Biso   1.000  F
  F8       1.0000 0.01580  0.09950  0.36700  Biso   1.000  F
  F9       1.0000 0.07420  0.83960  0.73660  Biso   1.000  F
  F10      1.0000 0.92580  0.16040  0.26340  Biso   1.000  F
  F11      1.0000 0.12420  0.78580  0.59530  Biso   1.000  F
  F12      1.0000 0.87580  0.21420  0.40470  Biso   1.000  F
  O3       1.0000 0.32810  0.91340  0.55540  Biso   1.000  O
  O4       1.0000 0.67190  0.08660  0.44460  Biso   1.000  O
  Cu2      1.0000 0.50000  0.50000  0.00000  Biso   1.000  Cu
  O5       1.0000 0.34560  0.43970  0.99510  Biso   1.000  O
  O6       1.0000 0.65440  0.56030  0.00490  Biso   1.000  O
  C11      1.0000 0.13100  0.36980  0.04800  Biso   1.000  C
  C12      1.0000 0.86900  0.63020  0.95200  Biso   1.000  C
  F13      1.0000 0.00390  0.36670  0.12090  Biso   1.000  F
  F14      1.0000 0.99610  0.63330  0.87910  Biso   1.000  F
  F15      1.0000 0.12360  0.41400  0.95140  Biso   1.000  F
  F16      1.0000 0.87640  0.58600  0.04860  Biso   1.000  F
  F17      1.0000 0.17130  0.27440  0.04450  Biso   1.000  F
  F18      1.0000 0.82870  0.72560  0.95550  Biso   1.000  F
  C13      1.0000 0.22720  0.42830  0.07250  Biso   1.000  C
  C14      1.0000 0.77280  0.57170  0.92750  Biso   1.000  C
  C15      1.0000 0.18360  0.45890  0.17050  Biso   1.000  C
  C16      1.0000 0.81640  0.54110  0.82950  Biso   1.000  C
  H3       1.0000 0.09390  0.44080  0.22360  Biso   1.000  H
  H4       1.0000 0.90610  0.55920  0.77640  Biso   1.000  H
  C17      1.0000 0.26530  0.51520  0.19490  Biso   1.000  C
  C18      1.0000 0.73470  0.48480  0.80510  Biso   1.000  C
  C19      1.0000 0.20580  0.54860  0.30530  Biso   1.000  C
  C20      1.0000 0.79420  0.45140  0.69470  Biso   1.000  C
  F19      1.0000 0.10610  0.49050  0.37880  Biso   1.000  F
  F20      1.0000 0.89390  0.50950  0.62120  Biso   1.000  F
  F21      1.0000 0.29180  0.56540  0.34270  Biso   1.000  F
  F22      1.0000 0.70820  0.43460  0.65730  Biso   1.000  F
  F23      1.0000 0.13750  0.64620  0.28410  Biso   1.000  F
  F24      1.0000 0.86250  0.35380  0.71590  Biso   1.000  F
  O7       1.0000 0.38620  0.54660  0.13670  Biso   1.000  O
  O8       1.0000 0.61380  0.45340  0.86330  Biso   1.000  O
  O9       1.0000 0.58380  0.98110  0.32630  Biso   1.000  O
  O10      1.0000 0.41620  0.01890  0.67370  Biso   1.000  O
  N1       1.0000 0.50900  0.97410  0.27130  Biso   1.000  N
  N2       1.0000 0.49100  0.02590  0.72870  Biso   1.000  N
  C21      1.0000 0.48430  0.87320  0.25160  Biso   1.000  C
  C22      1.0000 0.51570  0.12680  0.74840  Biso   1.000  C
  C23      1.0000 0.44930  0.78980  0.35730  Biso   1.000  C
  C24      1.0000 0.55070  0.21020  0.64270  Biso   1.000  C
  H5       1.0000 0.52990  0.77460  0.37750  Biso   1.000  H
  H6       1.0000 0.47010  0.22540  0.62250  Biso   1.000  H
  H7       1.0000 0.42190  0.72650  0.34580  Biso   1.000  H
  H8       1.0000 0.57810  0.27350  0.65420  Biso   1.000  H
  H9       1.0000 0.37340  0.81450  0.41690  Biso   1.000  H
  H10      1.0000 0.62660  0.18550  0.58310  Biso   1.000  H
  C25      1.0000 0.61910  0.84500  0.16460  Biso   1.000  C
  C26      1.0000 0.38090  0.15500  0.83540  Biso   1.000  C
  H11      1.0000 0.68860  0.82580  0.19750  Biso   1.000  H
  H12      1.0000 0.31140  0.17420  0.80250  Biso   1.000  H
  H13      1.0000 0.65080  0.90490  0.10240  Biso   1.000  H
  H14      1.0000 0.34920  0.09510  0.89760  Biso   1.000  H
  H15      1.0000 0.60450  0.78610  0.13820  Biso   1.000  H
  H16      1.0000 0.39550  0.21390  0.86180  Biso   1.000  H
  C27      1.0000 0.36570  0.90520  0.21000  Biso   1.000  C
  C28      1.0000 0.63430  0.09480  0.79000  Biso   1.000  C
  C29      1.0000 0.37120  0.85390  0.11900  Biso   1.000  C
  C30      1.0000 0.62880  0.14610  0.88100  Biso   1.000  C
  H17      1.0000 0.29310  0.87830  0.09720  Biso   1.000  H
  H18      1.0000 0.70690  0.12170  0.90280  Biso   1.000  H
  H19      1.0000 0.36710  0.77820  0.14600  Biso   1.000  H
  H20      1.0000 0.63290  0.22180  0.85400  Biso   1.000  H
  H21      1.0000 0.45710  0.87220  0.05490  Biso   1.000  H
  H22      1.0000 0.54290  0.12780  0.94510  Biso   1.000  H
  C31      1.0000 0.22320  0.89720  0.29980  Biso   1.000  C
  C32      1.0000 0.77680  0.10280  0.70020  Biso   1.000  C
  H23      1.0000 0.15480  0.91880  0.26620  Biso   1.000  H
  H24      1.0000 0.84520  0.08120  0.73380  Biso   1.000  H
  H25      1.0000 0.21600  0.94260  0.34960  Biso   1.000  H
  H26      1.0000 0.78400  0.05740  0.65040  Biso   1.000  H
  H27      1.0000 0.20670  0.82510  0.34180  Biso   1.000  H
  H28      1.0000 0.79330  0.17490  0.65820  Biso   1.000  H
  N3       1.0000 0.39270  0.01840  0.16470  Biso   1.000  N
  N4       1.0000 0.60730  0.98160  0.83530  Biso   1.000  N
  O11      1.0000 0.33630  0.07360  0.10370  Biso   1.000  O
  O12      1.0000 0.66370  0.92640  0.89630  Biso   1.000  O
  C33      1.0000 0.46850  0.05500  0.20940  Biso   1.000  C
  C34      1.0000 0.53150  0.94500  0.79060  Biso   1.000  C
  C35      1.0000 0.50000  0.16140  0.19080  Biso   1.000  C
  C36      1.0000 0.50000  0.83860  0.80920  Biso   1.000  C
  C37      1.0000 0.46710  0.24710  0.12020  Biso   1.000  C
  C38      1.0000 0.53290  0.75290  0.87980  Biso   1.000  C
  H29      1.0000 0.41560  0.24340  0.07710  Biso   1.000  H
  H30      1.0000 0.58440  0.75660  0.92290  Biso   1.000  H
  N5       1.0000 0.51750  0.33400  0.12170  Biso   1.000  N
  N6       1.0000 0.48250  0.66600  0.87830  Biso   1.000  N
  N7       1.0000 0.58360  0.30420  0.19320  Biso   1.000  N
  N8       1.0000 0.41640  0.69580  0.80680  Biso   1.000  N
  C39      1.0000 0.65200  0.37560  0.20820  Biso   1.000  C
  C40      1.0000 0.34800  0.62440  0.79180  Biso   1.000  C
  H31      1.0000 0.62620  0.44620  0.17580  Biso   1.000  H
  H32      1.0000 0.37380  0.55380  0.82420  Biso   1.000  H
  H33      1.0000 0.75200  0.36560  0.16950  Biso   1.000  H
  H34      1.0000 0.24800  0.63440  0.83050  Biso   1.000  H
  C41      1.0000 0.61660  0.36590  0.34190  Biso   1.000  C
  C42      1.0000 0.38340  0.63410  0.65810  Biso   1.000  C
  H35      1.0000 0.51830  0.38280  0.37960  Biso   1.000  H
  H36      1.0000 0.48170  0.61720  0.62040  Biso   1.000  H
  H37      1.0000 0.63420  0.29360  0.37620  Biso   1.000  H
  H38      1.0000 0.36580  0.70640  0.62380  Biso   1.000  H
  C43      1.0000 0.70640  0.44100  0.35570  Biso   1.000  C
  C44      1.0000 0.29360  0.55900  0.64430  Biso   1.000  C
  H39      1.0000 0.69890  0.42540  0.43350  Biso   1.000  H
  H40      1.0000 0.30110  0.57460  0.56650  Biso   1.000  H
  H41      1.0000 0.80370  0.43160  0.30820  Biso   1.000  H
  H42      1.0000 0.19630  0.56840  0.69180  Biso   1.000  H
  C45      1.0000 0.66300  0.54750  0.32550  Biso   1.000  C
  C46      1.0000 0.33700  0.45250  0.67450  Biso   1.000  C
  H43      1.0000 0.72240  0.59470  0.33320  Biso   1.000  H
  H44      1.0000 0.27760  0.40530  0.66680  Biso   1.000  H
  H45      1.0000 0.56770  0.55720  0.37410  Biso   1.000  H
  H46      1.0000 0.43230  0.44280  0.62590  Biso   1.000  H
  H47      1.0000 0.67020  0.56260  0.24860  Biso   1.000  H
  H48      1.0000 0.32980  0.43740  0.75140  Biso   1.000  H
  C47      1.0000 0.57630  0.20360  0.23560  Biso   1.000  C
  C48      1.0000 0.42370  0.79640  0.76440  Biso   1.000  C
  H49      1.0000 0.61530  0.16650  0.28680  Biso   1.000  H
  H50      1.0000 0.38470  0.83350  0.71320  Biso   1.000  H
  C49      1.0000 0.03720  0.86560  0.04570  Biso   1.000  C
  C50      1.0000 0.96280  0.13440  0.95430  Biso   1.000  C
  C51      1.0000 0.08980  0.91490  0.93440  Biso   1.000  C
  C52      1.0000 0.91020  0.08510  0.06560  Biso   1.000  C
  H51      1.0000 0.14600  0.87650  0.88000  Biso   1.000  H
  H52      1.0000 0.85400  0.12350  0.12000  Biso   1.000  H
  C53      1.0000 0.06100  0.01970  0.90190  Biso   1.000  C
  C54      1.0000 0.93900  0.98030  0.09810  Biso   1.000  C
  H53      1.0000 0.09730  0.05380  0.82510  Biso   1.000  H
  H54      1.0000 0.90270  0.94620  0.17490  Biso   1.000  H
  C55      1.0000 0.97960  0.07530  0.98070  Biso   1.000  C
  C56      1.0000 0.02040  0.92470  0.01930  Biso   1.000  C
  C57      1.0000 0.92700  0.02600  0.09200  Biso   1.000  C
  C58      1.0000 0.07300  0.97400  0.90800  Biso   1.000  C
  H55      1.0000 0.87080  0.06440  0.14640  Biso   1.000  H
  H56      1.0000 0.12920  0.93560  0.85360  Biso   1.000  H
  C59      1.0000 0.95580  0.92120  0.12450  Biso   1.000  C
  C60      1.0000 0.04420  0.07880  0.87550  Biso   1.000  C
  H57      1.0000 0.91950  0.88710  0.20130  Biso   1.000  H
  H58      1.0000 0.08050  0.11290  0.79870  Biso   1.000  H
  C61      1.0000 0.95370  0.18970  0.92390  Biso   1.000  C
  C62      1.0000 0.04630  0.81030  0.07610  Biso   1.000  C
  H59      1.0000 0.00470  0.20070  0.84560  Biso   1.000  H
  H60      1.0000 0.99530  0.79930  0.15440  Biso   1.000  H
  H61      1.0000 0.85750  0.20020  0.93830  Biso   1.000  H
  H62      1.0000 0.14250  0.79980  0.06170  Biso   1.000  H
  H63      1.0000 0.98320  0.23790  0.95330  Biso   1.000  H
  H64      1.0000 0.01680  0.76210  0.04670  Biso   1.000  H
  C63      1.0000 0.04380  0.75150  0.11290  Biso   1.000  C
  C64      1.0000 0.95620  0.24850  0.88710  Biso   1.000  C
  H65      1.0000 0.96210  0.71240  0.13530  Biso   1.000  H
  H66      1.0000 0.03790  0.28760  0.86470  Biso   1.000  H
  H67      1.0000 0.07040  0.74760  0.17420  Biso   1.000  H
  H68      1.0000 0.92960  0.25240  0.82580  Biso   1.000  H
  C65      1.0000 0.14790  0.72960  0.02130  Biso   1.000  C
  C66      1.0000 0.85210  0.27040  0.97870  Biso   1.000  C
  H69      1.0000 0.17740  0.65850  0.03750  Biso   1.000  H
  H70      1.0000 0.82260  0.34150  0.96250  Biso   1.000  H
  H71      1.0000 0.11620  0.74000  0.96180  Biso   1.000  H
  H72      1.0000 0.88380  0.26000  0.03820  Biso   1.000  H
  H73      1.0000 0.22360  0.77480  0.00030  Biso   1.000  H
  H74      1.0000 0.77640  0.22520  0.99970  Biso   1.000  H
  C67      1.0000 0.64760  0.38430  0.22370  Biso   1.000  C
  C68      1.0000 0.35240  0.61570  0.77630  Biso   1.000  C
  C69      1.0000 0.58050  0.40600  0.32110  Biso   1.000  C
  C70      1.0000 0.41950  0.59400  0.67890  Biso   1.000  C
  C71      1.0000 0.63710  0.48540  0.35690  Biso   1.000  C
  C72      1.0000 0.36290  0.51460  0.64310  Biso   1.000  C
  C73      1.0000 0.77040  0.47220  0.35640  Biso   1.000  C
  C74      1.0000 0.22960  0.52780  0.64360  Biso   1.000  C
  F25      1.0000 0.09340  0.50290  0.37580  Biso   1.000  F
  F26      1.0000 0.90660  0.49710  0.62420  Biso   1.000  F
  F27      1.0000 0.29670  0.51420  0.35820  Biso   1.000  F
  F28      1.0000 0.70330  0.48580  0.64180  Biso   1.000  F
  F29      1.0000 0.19520  0.64480  0.29740  Biso   1.000  F
  F30      1.0000 0.80480  0.35520  0.70260  Biso   1.000  F
  F31      1.0000 0.97190  0.90440  0.66400  Biso   1.000  F
  F32      1.0000 0.02810  0.09560  0.33600  Biso   1.000  F
  F33      1.0000 0.11480  0.80850  0.72730  Biso   1.000  F
  F34      1.0000 0.88520  0.19150  0.27270  Biso   1.000  F
  F35      1.0000 0.10970  0.80430  0.57540  Biso   1.000  F
  F36      1.0000 0.89030  0.19570  0.42460  Biso   1.000  F
  H75      1.0000 0.74070  0.35890  0.21950  Biso   1.000  H
  H76      1.0000 0.25930  0.64110  0.78050  Biso   1.000  H
  H77      1.0000 0.65870  0.44980  0.16710  Biso   1.000  H
  H78      1.0000 0.34130  0.55020  0.83290  Biso   1.000  H
  H79      1.0000 0.56980  0.34000  0.37700  Biso   1.000  H
  H80      1.0000 0.43020  0.66000  0.62300  Biso   1.000  H
  H81      1.0000 0.48710  0.42990  0.32490  Biso   1.000  H
  H82      1.0000 0.51290  0.57010  0.67510  Biso   1.000  H
  H83      1.0000 0.63270  0.55410  0.30880  Biso   1.000  H
  H84      1.0000 0.36730  0.44590  0.69120  Biso   1.000  H
  H85      1.0000 0.57390  0.48900  0.43300  Biso   1.000  H
  H86      1.0000 0.42610  0.51100  0.56700  Biso   1.000  H
  H87      1.0000 0.79330  0.53180  0.37720  Biso   1.000  H
  H88      1.0000 0.20670  0.46820  0.62280  Biso   1.000  H
  H89      1.0000 0.83560  0.46740  0.28220  Biso   1.000  H
  H90      1.0000 0.16440  0.53260  0.71780  Biso   1.000  H
  H91      1.0000 0.77550  0.40820  0.40950  Biso   1.000  H
  H92      1.0000 0.22450  0.59180  0.59050  Biso   1.000  H
