data_image0
_cell_length_a       10.606
_cell_length_b       13.298
_cell_length_c       13.487
_cell_angle_alpha    98.535
_cell_angle_beta     107.394
_cell_angle_gamma    99.654

_symmetry_space_group_name_H-M    "P 1"
_symmetry_int_tables_number       1

loop_
  _symmetry_equiv_pos_as_xyz
  'x, y, z'

loop_
  _atom_site_label
  _atom_site_occupancy
  _atom_site_fract_x
  _atom_site_fract_y
  _atom_site_fract_z
  _atom_site_thermal_displace_type
  _atom_site_B_iso_or_equiv
  _atom_site_type_symbol
  Cu1      1.0000 0.50000  0.50000  0.50000  Biso   1.000  Cu
  O1       1.0000 0.36270  0.59230  0.55470  Biso   1.000  O
  O2       1.0000 0.63730  0.40770  0.44530  Biso   1.000  O
  C1       1.0000 0.20240  0.62350  0.63800  Biso   1.000  C
  C2       1.0000 0.79760  0.37650  0.36200  Biso   1.000  C
  F1       1.0000 0.31170  0.68000  0.73220  Biso   1.000  F
  F2       1.0000 0.68830  0.32000  0.26780  Biso   1.000  F
  F3       1.0000 0.16650  0.68840  0.57510  Biso   1.000  F
  F4       1.0000 0.83350  0.31160  0.42490  Biso   1.000  F
  F5       1.0000 0.07910  0.57850  0.65660  Biso   1.000  F
  F6       1.0000 0.92090  0.42150  0.34340  Biso   1.000  F
  C3       1.0000 0.26560  0.54740  0.57700  Biso   1.000  C
  C4       1.0000 0.73440  0.45260  0.42300  Biso   1.000  C
  C5       1.0000 0.20550  0.43840  0.55660  Biso   1.000  C
  C6       1.0000 0.79450  0.56160  0.44340  Biso   1.000  C
  H1       1.0000 0.13210  0.41700  0.58100  Biso   1.000  H
  H2       1.0000 0.86790  0.58300  0.41900  Biso   1.000  H
  C7       1.0000 0.25080  0.36270  0.50250  Biso   1.000  C
  C8       1.0000 0.74920  0.63730  0.49750  Biso   1.000  C
  C9       1.0000 0.17310  0.25040  0.47790  Biso   1.000  C
  C10      1.0000 0.82690  0.74960  0.52210  Biso   1.000  C
  F7       1.0000 0.25670  0.18860  0.51580  Biso   1.000  F
  F8       1.0000 0.74330  0.81140  0.48420  Biso   1.000  F
  F9       1.0000 0.07290  0.23410  0.51650  Biso   1.000  F
  F10      1.0000 0.92710  0.76590  0.48350  Biso   1.000  F
  F11      1.0000 0.11720  0.21290  0.37250  Biso   1.000  F
  F12      1.0000 0.88280  0.78710  0.62750  Biso   1.000  F
  O3       1.0000 0.35060  0.37410  0.46850  Biso   1.000  O
  O4       1.0000 0.64940  0.62590  0.53150  Biso   1.000  O
  Cu2      1.0000 0.00000  0.00000  0.00000  Biso   1.000  Cu
  O5       1.0000 0.99640  0.04990  0.86820  Biso   1.000  O
  O6       1.0000 0.00360  0.95010  0.13180  Biso   1.000  O
  C11      1.0000 0.01880  0.05590  0.70140  Biso   1.000  C
  C12      1.0000 0.98120  0.94410  0.29860  Biso   1.000  C
  F13      1.0000 0.07110  0.15810  0.71460  Biso   1.000  F
  F14      1.0000 0.92890  0.84190  0.28540  Biso   1.000  F
  F15      1.0000 0.89210  0.06460  0.66460  Biso   1.000  F
  F16      1.0000 0.10790  0.93540  0.33540  Biso   1.000  F
  F17      1.0000 0.05860  0.00450  0.62550  Biso   1.000  F
  F18      1.0000 0.94140  0.99550  0.37450  Biso   1.000  F
  C13      1.0000 0.05690  0.01820  0.80520  Biso   1.000  C
  C14      1.0000 0.94310  0.98180  0.19480  Biso   1.000  C
  C15      1.0000 0.15650  0.95630  0.82780  Biso   1.000  C
  C16      1.0000 0.84350  0.04370  0.17220  Biso   1.000  C
  H3       1.0000 0.19500  0.93600  0.77500  Biso   1.000  H
  H4       1.0000 0.80500  0.06400  0.22500  Biso   1.000  H
  C17      1.0000 0.19750  0.92600  0.92080  Biso   1.000  C
  C18      1.0000 0.80250  0.07400  0.07920  Biso   1.000  C
  C19      1.0000 0.31410  0.86520  0.94320  Biso   1.000  C
  C20      1.0000 0.68590  0.13480  0.05680  Biso   1.000  C
  F19      1.0000 0.26550  0.76520  0.94080  Biso   1.000  F
  F20      1.0000 0.73450  0.23480  0.05920  Biso   1.000  F
  F21      1.0000 0.40890  0.90510  0.03850  Biso   1.000  F
  F22      1.0000 0.59110  0.09490  0.96150  Biso   1.000  F
  F23      1.0000 0.37820  0.86550  0.87020  Biso   1.000  F
  F24      1.0000 0.62180  0.13450  0.12980  Biso   1.000  F
  O7       1.0000 0.15460  0.93800  0.99960  Biso   1.000  O
  O8       1.0000 0.84540  0.06200  0.00040  Biso   1.000  O
  O9       1.0000 0.44820  0.51240  0.34440  Biso   1.000  O
  O10      1.0000 0.55180  0.48760  0.65560  Biso   1.000  O
  N1       1.0000 0.32910  0.53100  0.28940  Biso   1.000  N
  N2       1.0000 0.67090  0.46900  0.71060  Biso   1.000  N
  C21      1.0000 0.31170  0.64010  0.26820  Biso   1.000  C
  C22      1.0000 0.68830  0.35990  0.73180  Biso   1.000  C
  C23      1.0000 0.38220  0.66010  0.18830  Biso   1.000  C
  C24      1.0000 0.61780  0.33990  0.81170  Biso   1.000  C
  H5       1.0000 0.48040  0.67120  0.22240  Biso   1.000  H
  H6       1.0000 0.51960  0.32880  0.77760  Biso   1.000  H
  H7       1.0000 0.36120  0.72230  0.16210  Biso   1.000  H
  H8       1.0000 0.63880  0.27770  0.83790  Biso   1.000  H
  H9       1.0000 0.35060  0.59980  0.12860  Biso   1.000  H
  H10      1.0000 0.64940  0.40020  0.87140  Biso   1.000  H
  C25      1.0000 0.37960  0.72140  0.37340  Biso   1.000  C
  C26      1.0000 0.62040  0.27860  0.62660  Biso   1.000  C
  H11      1.0000 0.47800  0.72850  0.39570  Biso   1.000  H
  H12      1.0000 0.52200  0.27150  0.60430  Biso   1.000  H
  H13      1.0000 0.34550  0.69850  0.42830  Biso   1.000  H
  H14      1.0000 0.65450  0.30150  0.57170  Biso   1.000  H
  H15      1.0000 0.35830  0.78880  0.36320  Biso   1.000  H
  H16      1.0000 0.64170  0.21120  0.63680  Biso   1.000  H
  C27      1.0000 0.15510  0.62110  0.22430  Biso   1.000  C
  C28      1.0000 0.84490  0.37890  0.77570  Biso   1.000  C
  C29      1.0000 0.10100  0.67650  0.13720  Biso   1.000  C
  C30      1.0000 0.89900  0.32350  0.86280  Biso   1.000  C
  H17      1.0000 0.12550  0.75200  0.16600  Biso   1.000  H
  H18      1.0000 0.87450  0.24800  0.83400  Biso   1.000  H
  H19      1.0000 0.00210  0.65300  0.10780  Biso   1.000  H
  H20      1.0000 0.99790  0.34700  0.89220  Biso   1.000  H
  H21      1.0000 0.14010  0.66090  0.08100  Biso   1.000  H
  H22      1.0000 0.85990  0.33910  0.91900  Biso   1.000  H
  C31      1.0000 0.08690  0.63610  0.30970  Biso   1.000  C
  C32      1.0000 0.91310  0.36390  0.69030  Biso   1.000  C
  H23      1.0000 0.10650  0.71050  0.34200  Biso   1.000  H
  H24      1.0000 0.89350  0.28950  0.65800  Biso   1.000  H
  H25      1.0000 0.12200  0.59760  0.36450  Biso   1.000  H
  H26      1.0000 0.87800  0.40240  0.63550  Biso   1.000  H
  H27      1.0000 0.98860  0.60980  0.27680  Biso   1.000  H
  H28      1.0000 0.01140  0.39020  0.72320  Biso   1.000  H
  N3       1.0000 0.11700  0.50040  0.17910  Biso   1.000  N
  N4       1.0000 0.88300  0.49960  0.82090  Biso   1.000  N
  O11      1.0000 0.99920  0.45200  0.11580  Biso   1.000  O
  O12      1.0000 0.00080  0.54800  0.88420  Biso   1.000  O
  C33      1.0000 0.22040  0.45520  0.22260  Biso   1.000  C
  C34      1.0000 0.77960  0.54480  0.77740  Biso   1.000  C
  C35      1.0000 0.21440  0.34300  0.20090  Biso   1.000  C
  C36      1.0000 0.78560  0.65700  0.79910  Biso   1.000  C
  C37      1.0000 0.10580  0.26230  0.12780  Biso   1.000  C
  C38      1.0000 0.89420  0.73770  0.87220  Biso   1.000  C
  H29      1.0000 0.02170  0.27350  0.08630  Biso   1.000  H
  H30      1.0000 0.97830  0.72650  0.91370  Biso   1.000  H
  N5       1.0000 0.13840  0.16700  0.12520  Biso   1.000  N
  N6       1.0000 0.86160  0.83300  0.87480  Biso   1.000  N
  N7       1.0000 0.27170  0.18920  0.19560  Biso   1.000  N
  N8       1.0000 0.72830  0.81080  0.80440  Biso   1.000  N
  C39      1.0000 0.34050  0.10350  0.20990  Biso   1.000  C
  C40      1.0000 0.65950  0.89650  0.79010  Biso   1.000  C
  H31      1.0000 0.37930  0.09090  0.15220  Biso   1.000  H
  H32      1.0000 0.62070  0.90910  0.84780  Biso   1.000  H
  H33      1.0000 0.27240  0.03960  0.20260  Biso   1.000  H
  H34      1.0000 0.72760  0.96040  0.79740  Biso   1.000  H
  C41      1.0000 0.45230  0.12140  0.31520  Biso   1.000  C
  C42      1.0000 0.54770  0.87860  0.68480  Biso   1.000  C
  H35      1.0000 0.41470  0.13500  0.37360  Biso   1.000  H
  H36      1.0000 0.58530  0.86500  0.62640  Biso   1.000  H
  H37      1.0000 0.52240  0.18390  0.32230  Biso   1.000  H
  H38      1.0000 0.47760  0.81610  0.67770  Biso   1.000  H
  C43      1.0000 0.51950  0.02540  0.32620  Biso   1.000  C
  C44      1.0000 0.48050  0.97460  0.67380  Biso   1.000  C
  H39      1.0000 0.44970  0.96440  0.32350  Biso   1.000  H
  H40      1.0000 0.55030  0.03560  0.67650  Biso   1.000  H
  H41      1.0000 0.54960  0.00870  0.26420  Biso   1.000  H
  H42      1.0000 0.45040  0.99130  0.73580  Biso   1.000  H
  C45      1.0000 0.64110  0.04060  0.42800  Biso   1.000  C
  C46      1.0000 0.35890  0.95940  0.57200  Biso   1.000  C
  H43      1.0000 0.67610  0.97700  0.42830  Biso   1.000  H
  H44      1.0000 0.32390  0.02300  0.57170  Biso   1.000  H
  H45      1.0000 0.61220  0.05530  0.49020  Biso   1.000  H
  H46      1.0000 0.38780  0.94470  0.50980  Biso   1.000  H
  H47      1.0000 0.71240  0.09920  0.43060  Biso   1.000  H
  H48      1.0000 0.28760  0.90080  0.56940  Biso   1.000  H
  C47      1.0000 0.31780  0.29220  0.24030  Biso   1.000  C
  C48      1.0000 0.68220  0.70780  0.75970  Biso   1.000  C
  H49      1.0000 0.40540  0.32430  0.28990  Biso   1.000  H
  H50      1.0000 0.59460  0.67570  0.71010  Biso   1.000  H
  C49      1.0000 0.69560  0.75640  0.05300  Biso   1.000  C
  C50      1.0000 0.30440  0.24360  0.94700  Biso   1.000  C
  H51      1.0000 0.77570  0.76760  0.11380  Biso   1.000  H
  H52      1.0000 0.22430  0.23240  0.88620  Biso   1.000  H
  H53      1.0000 0.63980  0.80270  0.06740  Biso   1.000  H
  H54      1.0000 0.36020  0.19730  0.93260  Biso   1.000  H
  H55      1.0000 0.72100  0.77000  0.99280  Biso   1.000  H
  H56      1.0000 0.27900  0.23000  0.00720  Biso   1.000  H
  C51      1.0000 0.60550  0.62760  0.02550  Biso   1.000  C
  C52      1.0000 0.39450  0.37240  0.97450  Biso   1.000  C
  C53      1.0000 0.62380  0.55110  0.08500  Biso   1.000  C
  C54      1.0000 0.37620  0.44890  0.91500  Biso   1.000  C
  H57      1.0000 0.70390  0.56230  0.14590  Biso   1.000  H
  H58      1.0000 0.29610  0.43770  0.85410  Biso   1.000  H
  C55      1.0000 0.52620  0.45850  0.05640  Biso   1.000  C
  C56      1.0000 0.47380  0.54150  0.94360  Biso   1.000  C
  H59      1.0000 0.53880  0.40570  0.09760  Biso   1.000  H
  H60      1.0000 0.46120  0.59430  0.90240  Biso   1.000  H
  C57      1.0000 0.41030  0.44220  0.96830  Biso   1.000  C
  C58      1.0000 0.58970  0.55780  0.03170  Biso   1.000  C
  C59      1.0000 0.39200  0.51870  0.90870  Biso   1.000  C
  C60      1.0000 0.60800  0.48130  0.09130  Biso   1.000  C
  H61      1.0000 0.31190  0.50750  0.84790  Biso   1.000  H
  H62      1.0000 0.68810  0.49250  0.15210  Biso   1.000  H
  C61      1.0000 0.48960  0.61140  0.93730  Biso   1.000  C
  C62      1.0000 0.51040  0.38860  0.06270  Biso   1.000  C
  H63      1.0000 0.47690  0.66420  0.89620  Biso   1.000  H
  H64      1.0000 0.52310  0.33580  0.10380  Biso   1.000  H
  C63      1.0000 0.30350  0.33640  0.94260  Biso   1.000  C
  C64      1.0000 0.69650  0.66360  0.05740  Biso   1.000  C
  H65      1.0000 0.24430  0.34490  0.98340  Biso   1.000  H
  H66      1.0000 0.75570  0.65510  0.01660  Biso   1.000  H
  H67      1.0000 0.24930  0.32210  0.86890  Biso   1.000  H
  H68      1.0000 0.75070  0.67790  0.13110  Biso   1.000  H
  C65      1.0000 0.36180  0.24390  0.96470  Biso   1.000  C
  C66      1.0000 0.63820  0.75610  0.03530  Biso   1.000  C
  H69      1.0000 0.28950  0.18320  0.94680  Biso   1.000  H
  H70      1.0000 0.71050  0.81680  0.05320  Biso   1.000  H
  H71      1.0000 0.41400  0.25610  0.03870  Biso   1.000  H
  H72      1.0000 0.58600  0.74390  0.96130  Biso   1.000  H
  H73      1.0000 0.41910  0.23310  0.92280  Biso   1.000  H
  H74      1.0000 0.58090  0.76690  0.07720  Biso   1.000  H
  F25      1.0000 0.27320  0.65020  0.73830  Biso   1.000  F
  F26      1.0000 0.72680  0.34980  0.26170  Biso   1.000  F
  F27      1.0000 0.19070  0.71120  0.60930  Biso   1.000  F
  F28      1.0000 0.80930  0.28880  0.39070  Biso   1.000  F
  F29      1.0000 0.10490  0.58250  0.65170  Biso   1.000  F
  F30      1.0000 0.89510  0.41750  0.34830  Biso   1.000  F
  F31      1.0000 0.87570  0.02280  0.65050  Biso   1.000  F
  F32      1.0000 0.12430  0.97720  0.34950  Biso   1.000  F
