data_image0
_cell_length_a       10.615
_cell_length_b       13.375
_cell_length_c       13.581
_cell_angle_alpha    99.061
_cell_angle_beta     112.535
_cell_angle_gamma    96.09

_symmetry_space_group_name_H-M    "P 1"
_symmetry_int_tables_number       1

loop_
  _symmetry_equiv_pos_as_xyz
  'x, y, z'

loop_
  _atom_site_label
  _atom_site_occupancy
  _atom_site_fract_x
  _atom_site_fract_y
  _atom_site_fract_z
  _atom_site_thermal_displace_type
  _atom_site_B_iso_or_equiv
  _atom_site_type_symbol
  Cu1      1.0000 0.50000  0.50000  0.50000  Biso   1.000  Cu
  O1       1.0000 0.38580  0.58610  0.55510  Biso   1.000  O
  O2       1.0000 0.61420  0.41390  0.44490  Biso   1.000  O
  C1       1.0000 0.23600  0.63240  0.63550  Biso   1.000  C
  C2       1.0000 0.76400  0.36760  0.36450  Biso   1.000  C
  F1       1.0000 0.33820  0.69050  0.72030  Biso   1.000  F
  F2       1.0000 0.66180  0.30950  0.27970  Biso   1.000  F
  F3       1.0000 0.18800  0.69540  0.57480  Biso   1.000  F
  F4       1.0000 0.81200  0.30460  0.42520  Biso   1.000  F
  F5       1.0000 0.10900  0.59590  0.64900  Biso   1.000  F
  F6       1.0000 0.89100  0.40410  0.35100  Biso   1.000  F
  C3       1.0000 0.29060  0.54960  0.57770  Biso   1.000  C
  C4       1.0000 0.70940  0.45040  0.42230  Biso   1.000  C
  C5       1.0000 0.22730  0.44740  0.55670  Biso   1.000  C
  C6       1.0000 0.77270  0.55260  0.44330  Biso   1.000  C
  H1       1.0000 0.15260  0.43120  0.57710  Biso   1.000  H
  H2       1.0000 0.84740  0.56880  0.42290  Biso   1.000  H
  C7       1.0000 0.27270  0.36790  0.50590  Biso   1.000  C
  C8       1.0000 0.72730  0.63210  0.49410  Biso   1.000  C
  C9       1.0000 0.19650  0.25810  0.48320  Biso   1.000  C
  C10      1.0000 0.80350  0.74190  0.51680  Biso   1.000  C
  F7       1.0000 0.28670  0.19860  0.52770  Biso   1.000  F
  F8       1.0000 0.71330  0.80140  0.47230  Biso   1.000  F
  F9       1.0000 0.10200  0.24850  0.52370  Biso   1.000  F
  F10      1.0000 0.89800  0.75150  0.47630  Biso   1.000  F
  F11      1.0000 0.13740  0.21630  0.37980  Biso   1.000  F
  F12      1.0000 0.86260  0.78370  0.62020  Biso   1.000  F
  O3       1.0000 0.36760  0.37470  0.47330  Biso   1.000  O
  O4       1.0000 0.63240  0.62530  0.52670  Biso   1.000  O
  Cu2      1.0000 0.00000  0.00000  0.00000  Biso   1.000  Cu
  O5       1.0000 0.97950  0.04670  0.86460  Biso   1.000  O
  O6       1.0000 0.02050  0.95330  0.13540  Biso   1.000  O
  C11      1.0000 0.99140  0.04960  0.69590  Biso   1.000  C
  C12      1.0000 0.00860  0.95040  0.30410  Biso   1.000  C
  F13      1.0000 0.00550  0.14500  0.69940  Biso   1.000  F
  F14      1.0000 0.99450  0.85500  0.30060  Biso   1.000  F
  F15      1.0000 0.85000  0.01820  0.64110  Biso   1.000  F
  F16      1.0000 0.15000  0.98180  0.35890  Biso   1.000  F
  F17      1.0000 0.04000  0.00580  0.63000  Biso   1.000  F
  F18      1.0000 0.96000  0.99420  0.37000  Biso   1.000  F
  C13      1.0000 0.03880  0.01530  0.80450  Biso   1.000  C
  C14      1.0000 0.96120  0.98470  0.19550  Biso   1.000  C
  C15      1.0000 0.14850  0.95900  0.83110  Biso   1.000  C
  C16      1.0000 0.85150  0.04100  0.16890  Biso   1.000  C
  H3       1.0000 0.18930  0.94350  0.78060  Biso   1.000  H
  H4       1.0000 0.81070  0.05650  0.21940  Biso   1.000  H
  C17      1.0000 0.19740  0.92670  0.92640  Biso   1.000  C
  C18      1.0000 0.80260  0.07330  0.07360  Biso   1.000  C
  C19      1.0000 0.32090  0.86860  0.95090  Biso   1.000  C
  C20      1.0000 0.67910  0.13140  0.04910  Biso   1.000  C
  F19      1.0000 0.28180  0.77410  0.95370  Biso   1.000  F
  F20      1.0000 0.71820  0.22590  0.04630  Biso   1.000  F
  F21      1.0000 0.42150  0.91220  0.04630  Biso   1.000  F
  F22      1.0000 0.57850  0.08780  0.95370  Biso   1.000  F
  F23      1.0000 0.37570  0.86620  0.87870  Biso   1.000  F
  F24      1.0000 0.62430  0.13380  0.12130  Biso   1.000  F
  O7       1.0000 0.15880  0.93930  0.00390  Biso   1.000  O
  O8       1.0000 0.84120  0.06070  0.99610  Biso   1.000  O
  O9       1.0000 0.59050  0.48170  0.67560  Biso   1.000  O
  O10      1.0000 0.40950  0.51830  0.32440  Biso   1.000  O
  N1       1.0000 0.72050  0.47600  0.73170  Biso   1.000  N
  N2       1.0000 0.27950  0.52400  0.26830  Biso   1.000  N
  C21      1.0000 0.76290  0.37450  0.74930  Biso   1.000  C
  C22      1.0000 0.23710  0.62550  0.25070  Biso   1.000  C
  C23      1.0000 0.71680  0.34730  0.83740  Biso   1.000  C
  C24      1.0000 0.28320  0.65270  0.16260  Biso   1.000  C
  H5       1.0000 0.61550  0.32790  0.80640  Biso   1.000  H
  H6       1.0000 0.38450  0.67210  0.19360  Biso   1.000  H
  H7       1.0000 0.75850  0.28940  0.86380  Biso   1.000  H
  H8       1.0000 0.24150  0.71060  0.13620  Biso   1.000  H
  H9       1.0000 0.74700  0.40700  0.89830  Biso   1.000  H
  H10      1.0000 0.25300  0.59300  0.10170  Biso   1.000  H
  C25      1.0000 0.69120  0.29050  0.64320  Biso   1.000  C
  C26      1.0000 0.30880  0.70950  0.35680  Biso   1.000  C
  H11      1.0000 0.59120  0.27620  0.62400  Biso   1.000  H
  H12      1.0000 0.40880  0.72380  0.37600  Biso   1.000  H
  H13      1.0000 0.70790  0.31460  0.58390  Biso   1.000  H
  H14      1.0000 0.29210  0.68540  0.41610  Biso   1.000  H
  H15      1.0000 0.72910  0.22750  0.65430  Biso   1.000  H
  H16      1.0000 0.27090  0.77250  0.34570  Biso   1.000  H
  C27      1.0000 0.92300  0.40600  0.79110  Biso   1.000  C
  C28      1.0000 0.07700  0.59400  0.20890  Biso   1.000  C
  C29      1.0000 0.00750  0.35510  0.88100  Biso   1.000  C
  C30      1.0000 0.99250  0.64490  0.11900  Biso   1.000  C
  H17      1.0000 0.10660  0.37950  0.90240  Biso   1.000  H
  H18      1.0000 0.89340  0.62050  0.09760  Biso   1.000  H
  H19      1.0000 0.98480  0.37280  0.94430  Biso   1.000  H
  H20      1.0000 0.01520  0.62720  0.05570  Biso   1.000  H
  H21      1.0000 0.98560  0.28020  0.85440  Biso   1.000  H
  H22      1.0000 0.01440  0.71980  0.14560  Biso   1.000  H
  C31      1.0000 0.97340  0.39660  0.69960  Biso   1.000  C
  C32      1.0000 0.02660  0.60340  0.30040  Biso   1.000  C
  H23      1.0000 0.07450  0.41760  0.73080  Biso   1.000  H
  H24      1.0000 0.92550  0.58240  0.26920  Biso   1.000  H
  H25      1.0000 0.94760  0.32500  0.65880  Biso   1.000  H
  H26      1.0000 0.05240  0.67500  0.34120  Biso   1.000  H
  H27      1.0000 0.93050  0.44110  0.65030  Biso   1.000  H
  H28      1.0000 0.06950  0.55890  0.34970  Biso   1.000  H
  N3       1.0000 0.93940  0.51900  0.83550  Biso   1.000  N
  N4       1.0000 0.06060  0.48100  0.16450  Biso   1.000  N
  O11      1.0000 0.05880  0.57440  0.89460  Biso   1.000  O
  O12      1.0000 0.94120  0.42560  0.10540  Biso   1.000  O
  C33      1.0000 0.82230  0.55490  0.79130  Biso   1.000  C
  C34      1.0000 0.17770  0.44510  0.20870  Biso   1.000  C
  C35      1.0000 0.80920  0.66180  0.81050  Biso   1.000  C
  C36      1.0000 0.19080  0.33820  0.18950  Biso   1.000  C
  C37      1.0000 0.91140  0.74720  0.87880  Biso   1.000  C
  C38      1.0000 0.08860  0.25280  0.12120  Biso   1.000  C
  H29      1.0000 0.00550  0.74340  0.91940  Biso   1.000  H
  H30      1.0000 0.99450  0.25660  0.08060  Biso   1.000  H
  N5       1.0000 0.86070  0.83390  0.87990  Biso   1.000  N
  N6       1.0000 0.13930  0.16610  0.12010  Biso   1.000  N
  N7       1.0000 0.72490  0.80440  0.80850  Biso   1.000  N
  N8       1.0000 0.27510  0.19560  0.19150  Biso   1.000  N
  C39      1.0000 0.64500  0.87800  0.79700  Biso   1.000  C
  C40      1.0000 0.35500  0.12200  0.20300  Biso   1.000  C
  H31      1.0000 0.56320  0.85410  0.81050  Biso   1.000  H
  H32      1.0000 0.43680  0.14590  0.18950  Biso   1.000  H
  H33      1.0000 0.69880  0.94080  0.85310  Biso   1.000  H
  H34      1.0000 0.30120  0.05920  0.14690  Biso   1.000  H
  C41      1.0000 0.59200  0.90800  0.68000  Biso   1.000  C
  C42      1.0000 0.40800  0.09200  0.32000  Biso   1.000  C
  H35      1.0000 0.52960  0.84600  0.62680  Biso   1.000  H
  H36      1.0000 0.47040  0.15400  0.37320  Biso   1.000  H
  H37      1.0000 0.67430  0.91960  0.66290  Biso   1.000  H
  H38      1.0000 0.32570  0.08040  0.33710  Biso   1.000  H
  C43      1.0000 0.51900  0.99650  0.65620  Biso   1.000  C
  C44      1.0000 0.48100  0.00350  0.34380  Biso   1.000  C
  H39      1.0000 0.52750  0.01800  0.59220  Biso   1.000  H
  H40      1.0000 0.47250  0.98200  0.40780  Biso   1.000  H
  H41      1.0000 0.56280  0.05560  0.71940  Biso   1.000  H
  H42      1.0000 0.43720  0.94440  0.28060  Biso   1.000  H
  C45      1.0000 0.37370  0.96710  0.63400  Biso   1.000  C
  C46      1.0000 0.62630  0.03290  0.36600  Biso   1.000  C
  H43      1.0000 0.32910  0.02760  0.62690  Biso   1.000  H
  H44      1.0000 0.67090  0.97240  0.37310  Biso   1.000  H
  H45      1.0000 0.32800  0.91460  0.56610  Biso   1.000  H
  H46      1.0000 0.67200  0.08540  0.43390  Biso   1.000  H
  H47      1.0000 0.36580  0.93910  0.69440  Biso   1.000  H
  H48      1.0000 0.63420  0.06090  0.30560  Biso   1.000  H
  C47      1.0000 0.69300  0.70360  0.76770  Biso   1.000  C
  C48      1.0000 0.30700  0.29640  0.23230  Biso   1.000  C
  H49      1.0000 0.60420  0.66660  0.71720  Biso   1.000  H
  H50      1.0000 0.39580  0.33340  0.28280  Biso   1.000  H
  C49      1.0000 0.67770  0.75250  0.09030  Biso   1.000  C
  C50      1.0000 0.32230  0.24750  0.90970  Biso   1.000  C
  H51      1.0000 0.71530  0.77580  0.16820  Biso   1.000  H
  H52      1.0000 0.28470  0.22420  0.83180  Biso   1.000  H
  H53      1.0000 0.61160  0.79380  0.05660  Biso   1.000  H
  H54      1.0000 0.38840  0.20620  0.94340  Biso   1.000  H
  H55      1.0000 0.75120  0.75860  0.06570  Biso   1.000  H
  H56      1.0000 0.24880  0.24140  0.93430  Biso   1.000  H
  C51      1.0000 0.59290  0.61950  0.05320  Biso   1.000  C
  C52      1.0000 0.40710  0.38050  0.94680  Biso   1.000  C
  C53      1.0000 0.58320  0.55200  0.11910  Biso   1.000  C
  C54      1.0000 0.41680  0.44800  0.88090  Biso   1.000  C
  H57      1.0000 0.62120  0.57580  0.19690  Biso   1.000  H
  H58      1.0000 0.37880  0.42420  0.80310  Biso   1.000  H
  C55      1.0000 0.51870  0.44990  0.07220  Biso   1.000  C
  C56      1.0000 0.48130  0.55010  0.92780  Biso   1.000  C
  H59      1.0000 0.51200  0.40320  0.11770  Biso   1.000  H
  H60      1.0000 0.48800  0.59680  0.88230  Biso   1.000  H
  C57      1.0000 0.46380  0.41540  0.95950  Biso   1.000  C
  C58      1.0000 0.53620  0.58460  0.04050  Biso   1.000  C
  C59      1.0000 0.47340  0.48300  0.89370  Biso   1.000  C
  C60      1.0000 0.52660  0.51700  0.10630  Biso   1.000  C
  H61      1.0000 0.43550  0.45910  0.81590  Biso   1.000  H
  H62      1.0000 0.56450  0.54090  0.18410  Biso   1.000  H
  C61      1.0000 0.53800  0.58500  0.94050  Biso   1.000  C
  C62      1.0000 0.46200  0.41500  0.05950  Biso   1.000  C
  H63      1.0000 0.54460  0.63170  0.89510  Biso   1.000  H
  H64      1.0000 0.45540  0.36830  0.10490  Biso   1.000  H
  C63      1.0000 0.38040  0.30390  0.89720  Biso   1.000  C
  C64      1.0000 0.61960  0.69610  0.10280  Biso   1.000  C
  H65      1.0000 0.29240  0.30770  0.84210  Biso   1.000  H
  H66      1.0000 0.70760  0.69230  0.15790  Biso   1.000  H
  H67      1.0000 0.43110  0.26820  0.86240  Biso   1.000  H
  H68      1.0000 0.56890  0.73180  0.13760  Biso   1.000  H
  C65      1.0000 0.35840  0.24640  0.97950  Biso   1.000  C
  C66      1.0000 0.64160  0.75360  0.02050  Biso   1.000  C
  H69      1.0000 0.30750  0.17810  0.94250  Biso   1.000  H
  H70      1.0000 0.69250  0.82190  0.05750  Biso   1.000  H
  H71      1.0000 0.30710  0.28230  0.01360  Biso   1.000  H
  H72      1.0000 0.69290  0.71770  0.98640  Biso   1.000  H
  H73      1.0000 0.44680  0.24250  0.03400  Biso   1.000  H
  H74      1.0000 0.55320  0.75750  0.96600  Biso   1.000  H
  C67      1.0000 0.37900  0.11700  0.23100  Biso   1.000  C
  C68      1.0000 0.62100  0.88300  0.76900  Biso   1.000  C
  C69      1.0000 0.44470  0.13130  0.33350  Biso   1.000  C
  C70      1.0000 0.55530  0.86870  0.66650  Biso   1.000  C
  C71      1.0000 0.56000  0.05830  0.35520  Biso   1.000  C
  C72      1.0000 0.44000  0.94170  0.64480  Biso   1.000  C
  C73      1.0000 0.49500  0.94950  0.32520  Biso   1.000  C
  C74      1.0000 0.50500  0.05050  0.67480  Biso   1.000  C
  F25      1.0000 0.30900  0.65460  0.73780  Biso   1.000  F
  F26      1.0000 0.69100  0.34540  0.26220  Biso   1.000  F
  F27      1.0000 0.22300  0.71270  0.59300  Biso   1.000  F
  F28      1.0000 0.77700  0.28730  0.40700  Biso   1.000  F
  F29      1.0000 0.14200  0.59990  0.64100  Biso   1.000  F
  F30      1.0000 0.85800  0.40010  0.35900  Biso   1.000  F
  F31      1.0000 0.91980  0.85340  0.27930  Biso   1.000  F
  F32      1.0000 0.08020  0.14660  0.72070  Biso   1.000  F
  F33      1.0000 0.87400  0.06640  0.66380  Biso   1.000  F
  F34      1.0000 0.12600  0.93360  0.33620  Biso   1.000  F
  F35      1.0000 0.98800  0.00890  0.38070  Biso   1.000  F
  F36      1.0000 0.01200  0.99110  0.61930  Biso   1.000  F
  H75      1.0000 0.32540  0.04550  0.20260  Biso   1.000  H
  H76      1.0000 0.67460  0.95450  0.79740  Biso   1.000  H
  H77      1.0000 0.44740  0.12250  0.19740  Biso   1.000  H
  H78      1.0000 0.55260  0.87750  0.80260  Biso   1.000  H
  H79      1.0000 0.38040  0.11320  0.36750  Biso   1.000  H
  H80      1.0000 0.61960  0.88680  0.63250  Biso   1.000  H
  H81      1.0000 0.48980  0.20440  0.36480  Biso   1.000  H
  H82      1.0000 0.51020  0.79560  0.63520  Biso   1.000  H
  H83      1.0000 0.61450  0.07030  0.31210  Biso   1.000  H
  H84      1.0000 0.38550  0.92970  0.68790  Biso   1.000  H
  H85      1.0000 0.62380  0.07610  0.43350  Biso   1.000  H
  H86      1.0000 0.37620  0.92390  0.56650  Biso   1.000  H
  H87      1.0000 0.50570  0.92420  0.39140  Biso   1.000  H
  H88      1.0000 0.49430  0.07580  0.60860  Biso   1.000  H
  H89      1.0000 0.53930  0.90960  0.28530  Biso   1.000  H
  H90      1.0000 0.46070  0.09040  0.71470  Biso   1.000  H
  H91      1.0000 0.39580  0.94180  0.27880  Biso   1.000  H
  H92      1.0000 0.60420  0.05820  0.72120  Biso   1.000  H
