data_image0
_cell_length_a       10.738
_cell_length_b       13.381
_cell_length_c       13.6
_cell_angle_alpha    99.132
_cell_angle_beta     111.527
_cell_angle_gamma    96.69

_symmetry_space_group_name_H-M    "P 1"
_symmetry_int_tables_number       1

loop_
  _symmetry_equiv_pos_as_xyz
  'x, y, z'

loop_
  _atom_site_label
  _atom_site_occupancy
  _atom_site_fract_x
  _atom_site_fract_y
  _atom_site_fract_z
  _atom_site_thermal_displace_type
  _atom_site_B_iso_or_equiv
  _atom_site_type_symbol
  Cu1      1.0000 0.50000  0.00000  0.00000  Biso   1.000  Cu
  O1       1.0000 0.38730  0.08296  0.05322  Biso   1.000  O
  O2       1.0000 0.61270  0.91704  0.94678  Biso   1.000  O
  C1       1.0000 0.23550  0.12810  0.13060  Biso   1.000  C
  C2       1.0000 0.76450  0.87190  0.86940  Biso   1.000  C
  F1       1.0000 0.15780  0.09320  0.17560  Biso   1.000  F
  F2       1.0000 0.84220  0.90680  0.82440  Biso   1.000  F
  F3       1.0000 0.34180  0.18900  0.21570  Biso   1.000  F
  F4       1.0000 0.65820  0.81100  0.78430  Biso   1.000  F
  F5       1.0000 0.18630  0.18930  0.07070  Biso   1.000  F
  F6       1.0000 0.81370  0.81070  0.92930  Biso   1.000  F
  C3       1.0000 0.29180  0.04630  0.07510  Biso   1.000  C
  C4       1.0000 0.70820  0.95370  0.92490  Biso   1.000  C
  C5       1.0000 0.23220  0.94560  0.05560  Biso   1.000  C
  C6       1.0000 0.76780  0.05440  0.94440  Biso   1.000  C
  H1       1.0000 0.15870  0.92890  0.07560  Biso   1.000  H
  H2       1.0000 0.84130  0.07110  0.92440  Biso   1.000  H
  C7       1.0000 0.27780  0.86730  0.00660  Biso   1.000  C
  C8       1.0000 0.72220  0.13270  0.99340  Biso   1.000  C
  C9       1.0000 0.20230  0.75570  0.98520  Biso   1.000  C
  C10      1.0000 0.79770  0.24430  0.01480  Biso   1.000  C
  F7       1.0000 0.29260  0.69240  0.01640  Biso   1.000  F
  F8       1.0000 0.70740  0.30760  0.98360  Biso   1.000  F
  F9       1.0000 0.12660  0.72660  0.88160  Biso   1.000  F
  F10      1.0000 0.87340  0.27340  0.11840  Biso   1.000  F
  F11      1.0000 0.12630  0.74430  0.03630  Biso   1.000  F
  F12      1.0000 0.87370  0.25570  0.96370  Biso   1.000  F
  O3       1.0000 0.37200  0.87352  0.97486  Biso   1.000  O
  O4       1.0000 0.62800  0.12648  0.02514  Biso   1.000  O
  Cu2      1.0000 0.00000  0.50000  0.50000  Biso   1.000  Cu
  O5       1.0000 0.15340  0.43824  0.49930  Biso   1.000  O
  O6       1.0000 0.84660  0.56176  0.50070  Biso   1.000  O
  C11      1.0000 0.30940  0.36720  0.44440  Biso   1.000  C
  C12      1.0000 0.69060  0.63280  0.55560  Biso   1.000  C
  F13      1.0000 0.42370  0.41970  0.52570  Biso   1.000  F
  F14      1.0000 0.57630  0.58030  0.47430  Biso   1.000  F
  F15      1.0000 0.35310  0.34970  0.36910  Biso   1.000  F
  F16      1.0000 0.64690  0.65030  0.63090  Biso   1.000  F
  F17      1.0000 0.27520  0.28270  0.46430  Biso   1.000  F
  F18      1.0000 0.72480  0.71730  0.53570  Biso   1.000  F
  C13      1.0000 0.19340  0.42740  0.42380  Biso   1.000  C
  C14      1.0000 0.80660  0.57260  0.57620  Biso   1.000  C
  C15      1.0000 0.14250  0.46050  0.32820  Biso   1.000  C
  C16      1.0000 0.85750  0.53950  0.67180  Biso   1.000  C
  H3       1.0000 0.17790  0.44290  0.27540  Biso   1.000  H
  H4       1.0000 0.82210  0.55710  0.72460  Biso   1.000  H
  C17      1.0000 0.04170  0.51840  0.30740  Biso   1.000  C
  C18      1.0000 0.95830  0.48160  0.69260  Biso   1.000  C
  C19      1.0000 0.99590  0.55420  0.20160  Biso   1.000  C
  C20      1.0000 0.00410  0.44580  0.79840  Biso   1.000  C
  F19      1.0000 0.04680  0.51850  0.13420  Biso   1.000  F
  F20      1.0000 0.95320  0.48150  0.86580  Biso   1.000  F
  F21      1.0000 0.02140  0.64760  0.20900  Biso   1.000  F
  F22      1.0000 0.97860  0.35240  0.79100  Biso   1.000  F
  F23      1.0000 0.85910  0.52230  0.14890  Biso   1.000  F
  F24      1.0000 0.14090  0.47770  0.85110  Biso   1.000  F
  O7       1.0000 0.98120  0.54777  0.36670  Biso   1.000  O
  O8       1.0000 0.01880  0.45223  0.63330  Biso   1.000  O
  O9       1.0000 0.59170  0.98593  0.17870  Biso   1.000  O
  O10      1.0000 0.40830  0.01407  0.82130  Biso   1.000  O
  N1       1.0000 0.71600  0.97870  0.23170  Biso   1.000  N
  N2       1.0000 0.28400  0.02130  0.76830  Biso   1.000  N
  C21      1.0000 0.75700  0.87700  0.25080  Biso   1.000  C
  C22      1.0000 0.24300  0.12300  0.74920  Biso   1.000  C
  C23      1.0000 0.71020  0.85180  0.33860  Biso   1.000  C
  C24      1.0000 0.28980  0.14820  0.66140  Biso   1.000  C
  H5       1.0000 0.61150  0.83320  0.30880  Biso   1.000  H
  H6       1.0000 0.38850  0.16680  0.69120  Biso   1.000  H
  H7       1.0000 0.74000  0.91170  0.39790  Biso   1.000  H
  H8       1.0000 0.26000  0.08830  0.60210  Biso   1.000  H
  H9       1.0000 0.74920  0.79460  0.36490  Biso   1.000  H
  H10      1.0000 0.25080  0.20540  0.63510  Biso   1.000  H
  C25      1.0000 0.68500  0.79460  0.14710  Biso   1.000  C
  C26      1.0000 0.31500  0.20540  0.85290  Biso   1.000  C
  H11      1.0000 0.58780  0.78160  0.13000  Biso   1.000  H
  H12      1.0000 0.41220  0.21840  0.87000  Biso   1.000  H
  H13      1.0000 0.71980  0.73160  0.15690  Biso   1.000  H
  H14      1.0000 0.28020  0.26840  0.84310  Biso   1.000  H
  H15      1.0000 0.70150  0.81800  0.08830  Biso   1.000  H
  H16      1.0000 0.29850  0.18200  0.91170  Biso   1.000  H
  C27      1.0000 0.91220  0.90740  0.28920  Biso   1.000  C
  C28      1.0000 0.08780  0.09260  0.71080  Biso   1.000  C
  C29      1.0000 0.96420  0.89720  0.19830  Biso   1.000  C
  C30      1.0000 0.03580  0.10280  0.80170  Biso   1.000  C
  H17      1.0000 0.06270  0.91780  0.22910  Biso   1.000  H
  H18      1.0000 0.93730  0.08220  0.77090  Biso   1.000  H
  H19      1.0000 0.92430  0.94120  0.14980  Biso   1.000  H
  H20      1.0000 0.07570  0.05880  0.85020  Biso   1.000  H
  H21      1.0000 0.93870  0.82610  0.15840  Biso   1.000  H
  H22      1.0000 0.06130  0.17390  0.84160  Biso   1.000  H
  C31      1.0000 0.99710  0.85710  0.37830  Biso   1.000  C
  C32      1.0000 0.00290  0.14290  0.62170  Biso   1.000  C
  H23      1.0000 0.09330  0.88170  0.39700  Biso   1.000  H
  H24      1.0000 0.90670  0.11830  0.60300  Biso   1.000  H
  H25      1.0000 0.97560  0.78280  0.35250  Biso   1.000  H
  H26      1.0000 0.02440  0.21720  0.64750  Biso   1.000  H
  H27      1.0000 0.97630  0.87490  0.44180  Biso   1.000  H
  H28      1.0000 0.02370  0.12510  0.55820  Biso   1.000  H
  N3       1.0000 0.93280  0.02040  0.33240  Biso   1.000  N
  N4       1.0000 0.06720  0.97960  0.66760  Biso   1.000  N
  O11      1.0000 0.04930  0.07530  0.39100  Biso   1.000  O
  O12      1.0000 0.95070  0.92470  0.60900  Biso   1.000  O
  C33      1.0000 0.81830  0.05690  0.29150  Biso   1.000  C
  C34      1.0000 0.18170  0.94310  0.70850  Biso   1.000  C
  C35      1.0000 0.80620  0.16320  0.31140  Biso   1.000  C
  C36      1.0000 0.19380  0.83680  0.68860  Biso   1.000  C
  C37      1.0000 0.90750  0.24780  0.38050  Biso   1.000  C
  C38      1.0000 0.09250  0.75220  0.61950  Biso   1.000  C
  H29      1.0000 0.99830  0.24350  0.42060  Biso   1.000  H
  H30      1.0000 0.00170  0.75650  0.57940  Biso   1.000  H
  N5       1.0000 0.85920  0.33390  0.38190  Biso   1.000  N
  N6       1.0000 0.14080  0.66610  0.61810  Biso   1.000  N
  N7       1.0000 0.72650  0.30560  0.31200  Biso   1.000  N
  N8       1.0000 0.27350  0.69440  0.68800  Biso   1.000  N
  C39      1.0000 0.63910  0.38380  0.29160  Biso   1.000  C
  C40      1.0000 0.36090  0.61620  0.70840  Biso   1.000  C
  H31      1.0000 0.57210  0.37220  0.32370  Biso   1.000  H
  H32      1.0000 0.42790  0.62780  0.67630  Biso   1.000  H
  H33      1.0000 0.69600  0.45210  0.32870  Biso   1.000  H
  H34      1.0000 0.30400  0.54790  0.67130  Biso   1.000  H
  C41      1.0000 0.56920  0.38420  0.18180  Biso   1.000  C
  C42      1.0000 0.43080  0.61580  0.81820  Biso   1.000  C
  H35      1.0000 0.49530  0.32390  0.14660  Biso   1.000  H
  H36      1.0000 0.50470  0.67610  0.85340  Biso   1.000  H
  H37      1.0000 0.63160  0.38270  0.14430  Biso   1.000  H
  H38      1.0000 0.36840  0.61730  0.85570  Biso   1.000  H
  C43      1.0000 0.50600  0.49280  0.17800  Biso   1.000  C
  C44      1.0000 0.49400  0.50720  0.82200  Biso   1.000  C
  H39      1.0000 0.51100  0.52650  0.24920  Biso   1.000  H
  H40      1.0000 0.48900  0.47350  0.75080  Biso   1.000  H
  H41      1.0000 0.55120  0.54160  0.14940  Biso   1.000  H
  H42      1.0000 0.44880  0.45840  0.85060  Biso   1.000  H
  C45      1.0000 0.37420  0.45100  0.10730  Biso   1.000  C
  C46      1.0000 0.62580  0.54900  0.89270  Biso   1.000  C
  H43      1.0000 0.32120  0.50530  0.09650  Biso   1.000  H
  H44      1.0000 0.67880  0.49470  0.90350  Biso   1.000  H
  H45      1.0000 0.33450  0.40090  0.13710  Biso   1.000  H
  H46      1.0000 0.66550  0.59910  0.86290  Biso   1.000  H
  H47      1.0000 0.37370  0.41740  0.03850  Biso   1.000  H
  H48      1.0000 0.62630  0.58260  0.96150  Biso   1.000  H
  C47      1.0000 0.69090  0.20430  0.26980  Biso   1.000  C
  C48      1.0000 0.30910  0.79570  0.73020  Biso   1.000  C
  H49      1.0000 0.60390  0.16800  0.22110  Biso   1.000  H
  H50      1.0000 0.39610  0.83200  0.77890  Biso   1.000  H
  C49      1.0000 0.58580  0.13390  0.54400  Biso   1.000  C
  C50      1.0000 0.41420  0.86610  0.45600  Biso   1.000  C
  C51      1.0000 0.50760  0.09610  0.43420  Biso   1.000  C
  C52      1.0000 0.49240  0.90390  0.56580  Biso   1.000  C
  H51      1.0000 0.50030  0.14050  0.38420  Biso   1.000  H
  H52      1.0000 0.49970  0.85950  0.61580  Biso   1.000  H
  C53      1.0000 0.43990  0.99390  0.39670  Biso   1.000  C
  C54      1.0000 0.56010  0.00610  0.60330  Biso   1.000  C
  H53      1.0000 0.38590  0.96780  0.32090  Biso   1.000  H
  H54      1.0000 0.61410  0.03220  0.67910  Biso   1.000  H
  C55      1.0000 0.45050  0.92950  0.46900  Biso   1.000  C
  C56      1.0000 0.54950  0.07050  0.53100  Biso   1.000  C
  C57      1.0000 0.52870  0.96730  0.57880  Biso   1.000  C
  C58      1.0000 0.47130  0.03270  0.42120  Biso   1.000  C
  H55      1.0000 0.53600  0.92290  0.62880  Biso   1.000  H
  H56      1.0000 0.46400  0.07710  0.37120  Biso   1.000  H
  C59      1.0000 0.59640  0.06950  0.61630  Biso   1.000  C
  C60      1.0000 0.40360  0.93050  0.38370  Biso   1.000  C
  H57      1.0000 0.65040  0.09560  0.69210  Biso   1.000  H
  H58      1.0000 0.34960  0.90440  0.30790  Biso   1.000  H
  C61      1.0000 0.38130  0.81810  0.46560  Biso   1.000  C
  C62      1.0000 0.61870  0.18190  0.53440  Biso   1.000  C
  H59      1.0000 0.41990  0.80260  0.53590  Biso   1.000  H
  H60      1.0000 0.58010  0.19740  0.46410  Biso   1.000  H
  H61      1.0000 0.28510  0.81470  0.44490  Biso   1.000  H
  H62      1.0000 0.71490  0.18530  0.55510  Biso   1.000  H
  H63      1.0000 0.39680  0.76880  0.41380  Biso   1.000  H
  H64      1.0000 0.60320  0.23120  0.58620  Biso   1.000  H
  C63      1.0000 0.64660  0.23660  0.61540  Biso   1.000  C
  C64      1.0000 0.35340  0.76340  0.38460  Biso   1.000  C
  H65      1.0000 0.72540  0.23570  0.67820  Biso   1.000  H
  H66      1.0000 0.27460  0.76430  0.32180  Biso   1.000  H
  H67      1.0000 0.58210  0.26830  0.63670  Biso   1.000  H
  H68      1.0000 0.41790  0.73170  0.36330  Biso   1.000  H
  C65      1.0000 0.68200  0.28450  0.53610  Biso   1.000  C
  C66      1.0000 0.31800  0.71550  0.46390  Biso   1.000  C
  H69      1.0000 0.72500  0.35540  0.56840  Biso   1.000  H
  H70      1.0000 0.27500  0.64460  0.43160  Biso   1.000  H
  H71      1.0000 0.74340  0.24840  0.51490  Biso   1.000  H
  H72      1.0000 0.25660  0.75160  0.48510  Biso   1.000  H
  H73      1.0000 0.60060  0.28090  0.47360  Biso   1.000  H
  H74      1.0000 0.39940  0.71910  0.52640  Biso   1.000  H
  F25      1.0000 0.91350  0.35350  0.77820  Biso   1.000  F
  F26      1.0000 0.08650  0.64650  0.22180  Biso   1.000  F
  F27      1.0000 0.87910  0.58240  0.17340  Biso   1.000  F
  F28      1.0000 0.12090  0.41760  0.82660  Biso   1.000  F
  F29      1.0000 0.99110  0.51160  0.87500  Biso   1.000  F
  F30      1.0000 0.00890  0.48840  0.12500  Biso   1.000  F
  F31      1.0000 0.10130  0.09750  0.10450  Biso   1.000  F
  F32      1.0000 0.89870  0.90250  0.89550  Biso   1.000  F
  F33      1.0000 0.29630  0.14840  0.22870  Biso   1.000  F
  F34      1.0000 0.70370  0.85160  0.77130  Biso   1.000  F
  F35      1.0000 0.23190  0.20770  0.09250  Biso   1.000  F
  F36      1.0000 0.76810  0.79230  0.90750  Biso   1.000  F
  F37      1.0000 0.09770  0.74790  0.01040  Biso   1.000  F
  F38      1.0000 0.90230  0.25210  0.98960  Biso   1.000  F
  F39      1.0000 0.27780  0.70630  0.04010  Biso   1.000  F
  F40      1.0000 0.72220  0.29370  0.95990  Biso   1.000  F
  F41      1.0000 0.16980  0.70280  0.89130  Biso   1.000  F
  F42      1.0000 0.83020  0.29720  0.10870  Biso   1.000  F
  F43      1.0000 0.60270  0.60290  0.45970  Biso   1.000  F
  F44      1.0000 0.39730  0.39710  0.54030  Biso   1.000  F
  F45      1.0000 0.63250  0.62220  0.62730  Biso   1.000  F
  F46      1.0000 0.36750  0.37780  0.37270  Biso   1.000  F
  F47      1.0000 0.73300  0.73090  0.57280  Biso   1.000  F
  F48      1.0000 0.26700  0.26910  0.42720  Biso   1.000  F
