data_image0
_cell_length_a       10.5903
_cell_length_b       13.106
_cell_length_c       13.493
_cell_angle_alpha    98.591
_cell_angle_beta     109.128
_cell_angle_gamma    99.938

_symmetry_space_group_name_H-M    "P 1"
_symmetry_int_tables_number       1

loop_
  _symmetry_equiv_pos_as_xyz
  'x, y, z'

loop_
  _atom_site_label
  _atom_site_occupancy
  _atom_site_fract_x
  _atom_site_fract_y
  _atom_site_fract_z
  _atom_site_thermal_displace_type
  _atom_site_B_iso_or_equiv
  _atom_site_type_symbol
  Cu1      1.0000 0.00000  0.00000  0.00000  Biso   1.000  Cu
  O1       1.0000 0.15350  0.13000  0.03620  Biso   1.000  O
  O2       1.0000 0.84650  0.87000  0.96380  Biso   1.000  O
  C1       1.0000 0.32980  0.25510  0.02600  Biso   1.000  C
  C2       1.0000 0.67020  0.74490  0.97400  Biso   1.000  C
  F1       1.0000 0.24970  0.31360  0.98160  Biso   1.000  F
  F2       1.0000 0.75030  0.68640  0.01840  Biso   1.000  F
  F3       1.0000 0.38390  0.29540  0.13020  Biso   1.000  F
  F4       1.0000 0.61610  0.70460  0.86980  Biso   1.000  F
  F5       1.0000 0.43360  0.26900  0.99160  Biso   1.000  F
  F6       1.0000 0.56640  0.73100  0.00840  Biso   1.000  F
  C3       1.0000 0.25050  0.14010  0.00160  Biso   1.000  C
  C4       1.0000 0.74950  0.85990  0.99840  Biso   1.000  C
  C5       1.0000 0.29400  0.06300  0.94660  Biso   1.000  C
  C6       1.0000 0.70600  0.93700  0.05340  Biso   1.000  C
  H1       1.0000 0.36950  0.08350  0.92470  Biso   1.000  H
  H2       1.0000 0.63050  0.91650  0.07530  Biso   1.000  H
  C7       1.0000 0.22710  0.95580  0.92340  Biso   1.000  C
  C8       1.0000 0.77290  0.04420  0.07660  Biso   1.000  C
  C9       1.0000 0.27720  0.87690  0.85720  Biso   1.000  C
  C10      1.0000 0.72280  0.12310  0.14280  Biso   1.000  C
  F7       1.0000 0.17570  0.82680  0.76600  Biso   1.000  F
  F8       1.0000 0.82430  0.17320  0.23400  Biso   1.000  F
  F9       1.0000 0.31540  0.80180  0.90890  Biso   1.000  F
  F10      1.0000 0.68460  0.19820  0.09110  Biso   1.000  F
  F11      1.0000 0.38160  0.92050  0.83190  Biso   1.000  F
  F12      1.0000 0.61840  0.07950  0.16810  Biso   1.000  F
  O3       1.0000 0.13240  0.91250  0.94860  Biso   1.000  O
  O4       1.0000 0.86760  0.08750  0.05140  Biso   1.000  O
  Cu2      1.0000 0.50000  0.50000  0.50000  Biso   1.000  Cu
  O5       1.0000 0.51060  0.44390  0.63040  Biso   1.000  O
  O6       1.0000 0.48940  0.55610  0.36960  Biso   1.000  O
  C11      1.0000 0.48960  0.43030  0.79550  Biso   1.000  C
  C12      1.0000 0.51040  0.56970  0.20450  Biso   1.000  C
  F13      1.0000 0.62380  0.43960  0.83670  Biso   1.000  F
  F14      1.0000 0.37620  0.56040  0.16330  Biso   1.000  F
  F15      1.0000 0.42860  0.32670  0.77680  Biso   1.000  F
  F16      1.0000 0.57140  0.67330  0.22320  Biso   1.000  F
  F17      1.0000 0.45380  0.48180  0.87110  Biso   1.000  F
  F18      1.0000 0.54620  0.51820  0.12890  Biso   1.000  F
  C13      1.0000 0.44650  0.46970  0.69060  Biso   1.000  C
  C14      1.0000 0.55350  0.53030  0.30940  Biso   1.000  C
  C15      1.0000 0.34570  0.52810  0.67240  Biso   1.000  C
  C16      1.0000 0.65430  0.47190  0.32760  Biso   1.000  C
  H3       1.0000 0.30680  0.54300  0.72560  Biso   1.000  H
  H4       1.0000 0.69320  0.45700  0.27440  Biso   1.000  H
  C17      1.0000 0.30090  0.56480  0.57940  Biso   1.000  C
  C18      1.0000 0.69910  0.43520  0.42060  Biso   1.000  C
  C19      1.0000 0.18860  0.62510  0.56230  Biso   1.000  C
  C20      1.0000 0.81140  0.37490  0.43770  Biso   1.000  C
  F19      1.0000 0.13060  0.62310  0.63710  Biso   1.000  F
  F20      1.0000 0.86940  0.37690  0.36290  Biso   1.000  F
  F21      1.0000 0.23840  0.72780  0.56730  Biso   1.000  F
  F22      1.0000 0.76160  0.27220  0.43270  Biso   1.000  F
  F23      1.0000 0.08820  0.58630  0.46680  Biso   1.000  F
  F24      1.0000 0.91180  0.41370  0.53320  Biso   1.000  F
  O7       1.0000 0.34500  0.55780  0.50230  Biso   1.000  O
  O8       1.0000 0.65500  0.44220  0.49770  Biso   1.000  O
  O9       1.0000 0.05780  0.98520  0.15530  Biso   1.000  O
  O10      1.0000 0.94220  0.01480  0.84470  Biso   1.000  O
  N1       1.0000 0.17720  0.96920  0.20870  Biso   1.000  N
  N2       1.0000 0.82280  0.03080  0.79130  Biso   1.000  N
  C21      1.0000 0.19730  0.86270  0.22860  Biso   1.000  C
  C22      1.0000 0.80270  0.13730  0.77140  Biso   1.000  C
  C23      1.0000 0.12270  0.77660  0.12420  Biso   1.000  C
  C24      1.0000 0.87730  0.22340  0.87580  Biso   1.000  C
  H5       1.0000 0.02310  0.76880  0.10280  Biso   1.000  H
  H6       1.0000 0.97690  0.23120  0.89720  Biso   1.000  H
  H7       1.0000 0.14490  0.70880  0.13630  Biso   1.000  H
  H8       1.0000 0.85510  0.29120  0.86370  Biso   1.000  H
  H9       1.0000 0.15250  0.79720  0.06700  Biso   1.000  H
  H10      1.0000 0.84750  0.20280  0.93300  Biso   1.000  H
  C25      1.0000 0.12990  0.84120  0.31030  Biso   1.000  C
  C26      1.0000 0.87010  0.15880  0.68970  Biso   1.000  C
  H11      1.0000 0.17630  0.89610  0.37680  Biso   1.000  H
  H12      1.0000 0.82370  0.10390  0.62320  Biso   1.000  H
  H13      1.0000 0.13750  0.77140  0.32570  Biso   1.000  H
  H14      1.0000 0.86250  0.22860  0.67430  Biso   1.000  H
  H15      1.0000 0.03250  0.84250  0.28050  Biso   1.000  H
  H16      1.0000 0.96750  0.15750  0.71950  Biso   1.000  H
  C27      1.0000 0.35520  0.88440  0.27320  Biso   1.000  C
  C28      1.0000 0.64480  0.11560  0.72680  Biso   1.000  C
  C29      1.0000 0.41650  0.87010  0.18560  Biso   1.000  C
  C30      1.0000 0.58350  0.12990  0.81440  Biso   1.000  C
  H17      1.0000 0.51690  0.88490  0.21890  Biso   1.000  H
  H18      1.0000 0.48310  0.11510  0.78110  Biso   1.000  H
  H19      1.0000 0.39100  0.91930  0.13870  Biso   1.000  H
  H20      1.0000 0.60900  0.08070  0.86130  Biso   1.000  H
  H21      1.0000 0.38080  0.79690  0.14310  Biso   1.000  H
  H22      1.0000 0.61920  0.20310  0.85690  Biso   1.000  H
  C31      1.0000 0.41490  0.82670  0.36000  Biso   1.000  C
  C32      1.0000 0.58510  0.17330  0.64000  Biso   1.000  C
  H23      1.0000 0.51550  0.84480  0.38320  Biso   1.000  H
  H24      1.0000 0.48450  0.15520  0.61680  Biso   1.000  H
  H25      1.0000 0.38010  0.74990  0.33150  Biso   1.000  H
  H26      1.0000 0.61990  0.25010  0.66850  Biso   1.000  H
  H27      1.0000 0.38800  0.84790  0.42140  Biso   1.000  H
  H28      1.0000 0.61200  0.15210  0.57860  Biso   1.000  H
  N3       1.0000 0.39040  0.00090  0.31860  Biso   1.000  N
  N4       1.0000 0.60960  0.99910  0.68140  Biso   1.000  N
  O11      1.0000 0.51060  0.05110  0.38260  Biso   1.000  O
  O12      1.0000 0.48940  0.94890  0.61740  Biso   1.000  O
  C33      1.0000 0.28560  0.04820  0.27520  Biso   1.000  C
  C34      1.0000 0.71440  0.95180  0.72480  Biso   1.000  C
  C35      1.0000 0.29010  0.15870  0.29940  Biso   1.000  C
  C36      1.0000 0.70990  0.84130  0.70060  Biso   1.000  C
  C37      1.0000 0.40000  0.24170  0.37160  Biso   1.000  C
  C38      1.0000 0.60000  0.75830  0.62840  Biso   1.000  C
  H29      1.0000 0.48760  0.23280  0.41280  Biso   1.000  H
  H30      1.0000 0.51240  0.76720  0.58720  Biso   1.000  H
  N5       1.0000 0.36420  0.33440  0.37420  Biso   1.000  N
  N6       1.0000 0.63580  0.66560  0.62580  Biso   1.000  N
  N7       1.0000 0.23240  0.31110  0.30440  Biso   1.000  N
  N8       1.0000 0.76760  0.68890  0.69560  Biso   1.000  N
  C39      1.0000 0.16030  0.39670  0.28840  Biso   1.000  C
  C40      1.0000 0.83970  0.60330  0.71160  Biso   1.000  C
  H31      1.0000 0.22850  0.46310  0.29870  Biso   1.000  H
  H32      1.0000 0.77150  0.53690  0.70130  Biso   1.000  H
  H33      1.0000 0.12010  0.40760  0.34480  Biso   1.000  H
  H34      1.0000 0.87990  0.59240  0.65520  Biso   1.000  H
  C41      1.0000 0.04820  0.37860  0.18100  Biso   1.000  C
  C42      1.0000 0.95180  0.62140  0.81900  Biso   1.000  C
  H35      1.0000 0.97720  0.31380  0.17050  Biso   1.000  H
  H36      1.0000 0.02280  0.68620  0.82950  Biso   1.000  H
  H37      1.0000 0.08660  0.36740  0.12360  Biso   1.000  H
  H38      1.0000 0.91340  0.63260  0.87640  Biso   1.000  H
  C43      1.0000 0.98280  0.47290  0.17290  Biso   1.000  C
  C44      1.0000 0.01720  0.52710  0.82710  Biso   1.000  C
  H39      1.0000 0.95330  0.48750  0.23500  Biso   1.000  H
  H40      1.0000 0.04670  0.51250  0.76500  Biso   1.000  H
  H41      1.0000 0.05360  0.53600  0.17870  Biso   1.000  H
  H42      1.0000 0.94640  0.46400  0.82130  Biso   1.000  H
  C45      1.0000 0.86000  0.45920  0.07040  Biso   1.000  C
  C46      1.0000 0.14000  0.54080  0.92960  Biso   1.000  C
  H43      1.0000 0.82480  0.52360  0.07200  Biso   1.000  H
  H44      1.0000 0.17520  0.47640  0.92800  Biso   1.000  H
  H45      1.0000 0.78770  0.39840  0.06480  Biso   1.000  H
  H46      1.0000 0.21230  0.60160  0.93520  Biso   1.000  H
  H47      1.0000 0.88820  0.44660  0.00820  Biso   1.000  H
  H48      1.0000 0.11180  0.55340  0.99180  Biso   1.000  H
  C47      1.0000 0.18360  0.20690  0.25900  Biso   1.000  C
  C48      1.0000 0.81640  0.79310  0.74100  Biso   1.000  C
  H49      1.0000 0.09370  0.17310  0.20900  Biso   1.000  H
  H50      1.0000 0.90630  0.82690  0.79100  Biso   1.000  H
  C49      1.0000 0.13080  0.21980  0.53500  Biso   1.000  C
  C50      1.0000 0.86920  0.78020  0.46500  Biso   1.000  C
  F25      1.0000 0.07180  0.26660  0.45710  Biso   1.000  F
  F26      1.0000 0.92820  0.73340  0.54290  Biso   1.000  F
  F27      1.0000 0.12640  0.27620  0.62690  Biso   1.000  F
  F28      1.0000 0.87360  0.72380  0.37310  Biso   1.000  F
  F29      1.0000 0.26490  0.23610  0.54950  Biso   1.000  F
  F30      1.0000 0.73510  0.76390  0.45050  Biso   1.000  F
  C51      1.0000 0.06300  0.10510  0.51540  Biso   1.000  C
  C52      1.0000 0.93700  0.89490  0.48460  Biso   1.000  C
  C53      1.0000 0.92880  0.06680  0.44720  Biso   1.000  C
  C54      1.0000 0.07120  0.93320  0.55280  Biso   1.000  C
  H51      1.0000 0.87980  0.11250  0.41040  Biso   1.000  H
  H52      1.0000 0.12020  0.88750  0.58960  Biso   1.000  H
  C55      1.0000 0.13480  0.03820  0.56790  Biso   1.000  C
  C56      1.0000 0.86520  0.96180  0.43210  Biso   1.000  C
  H53      1.0000 0.22820  0.06470  0.61450  Biso   1.000  H
  H54      1.0000 0.77180  0.93530  0.38550  Biso   1.000  H
