data_image0
_cell_length_a       10.6489
_cell_length_b       13.1068
_cell_length_c       13.4746
_cell_angle_alpha    98.614
_cell_angle_beta     109.029
_cell_angle_gamma    99.544

_symmetry_space_group_name_H-M    "P 1"
_symmetry_int_tables_number       1

loop_
  _symmetry_equiv_pos_as_xyz
  'x, y, z'

loop_
  _atom_site_label
  _atom_site_occupancy
  _atom_site_fract_x
  _atom_site_fract_y
  _atom_site_fract_z
  _atom_site_thermal_displace_type
  _atom_site_B_iso_or_equiv
  _atom_site_type_symbol
  Cu1      1.0000 0.50000  0.50000  0.50000  Biso   1.000  Cu
  O1       1.0000 0.35260  0.36830  0.46661  Biso   1.000  O
  O2       1.0000 0.64740  0.63170  0.53339  Biso   1.000  O
  C1       1.0000 0.17590  0.24350  0.47550  Biso   1.000  C
  C2       1.0000 0.82410  0.75650  0.52450  Biso   1.000  C
  F1       1.0000 0.25280  0.18610  0.52380  Biso   1.000  F
  F2       1.0000 0.74720  0.81390  0.47620  Biso   1.000  F
  F3       1.0000 0.12870  0.20180  0.37280  Biso   1.000  F
  F4       1.0000 0.87130  0.79820  0.62720  Biso   1.000  F
  F5       1.0000 0.07010  0.23096  0.50570  Biso   1.000  F
  F6       1.0000 0.92990  0.76904  0.49430  Biso   1.000  F
  C3       1.0000 0.25410  0.35840  0.49880  Biso   1.000  C
  C4       1.0000 0.74590  0.64160  0.50120  Biso   1.000  C
  C5       1.0000 0.21120  0.43640  0.55230  Biso   1.000  C
  C6       1.0000 0.78880  0.56360  0.44770  Biso   1.000  C
  H1       1.0000 0.13590  0.41650  0.57400  Biso   1.000  H
  H2       1.0000 0.86410  0.58350  0.42600  Biso   1.000  H
  C7       1.0000 0.27520  0.54280  0.57500  Biso   1.000  C
  C8       1.0000 0.72480  0.45720  0.42500  Biso   1.000  C
  C9       1.0000 0.22380  0.62180  0.63820  Biso   1.000  C
  C10      1.0000 0.77620  0.37820  0.36180  Biso   1.000  C
  F7       1.0000 0.32260  0.67108  0.73063  Biso   1.000  F
  F8       1.0000 0.67740  0.32892  0.26937  Biso   1.000  F
  F9       1.0000 0.19170  0.69761  0.58730  Biso   1.000  F
  F10      1.0000 0.80830  0.30239  0.41270  Biso   1.000  F
  F11      1.0000 0.11770  0.58058  0.65930  Biso   1.000  F
  F12      1.0000 0.88230  0.41942  0.34070  Biso   1.000  F
  O3       1.0000 0.37290  0.58542  0.55187  Biso   1.000  O
  O4       1.0000 0.62710  0.41458  0.44813  Biso   1.000  O
  Cu2      1.0000 0.00000  0.00000  0.00000  Biso   1.000  Cu
  O5       1.0000 0.98980  0.05641  0.87002  Biso   1.000  O
  O6       1.0000 0.01020  0.94359  0.12998  Biso   1.000  O
  C11      1.0000 0.01070  0.06960  0.70510  Biso   1.000  C
  C12      1.0000 0.98930  0.93040  0.29490  Biso   1.000  C
  F13      1.0000 0.87720  0.06340  0.66512  Biso   1.000  F
  F14      1.0000 0.12280  0.93660  0.33488  Biso   1.000  F
  F15      1.0000 0.07190  0.17201  0.72226  Biso   1.000  F
  F16      1.0000 0.92810  0.82799  0.27774  Biso   1.000  F
  F17      1.0000 0.04330  0.01724  0.62820  Biso   1.000  F
  F18      1.0000 0.95670  0.98276  0.37180  Biso   1.000  F
  C13      1.0000 0.05210  0.03030  0.80910  Biso   1.000  C
  C14      1.0000 0.94790  0.96970  0.19090  Biso   1.000  C
  C15      1.0000 0.15220  0.97170  0.82610  Biso   1.000  C
  C16      1.0000 0.84780  0.02830  0.17390  Biso   1.000  C
  H3       1.0000 0.19070  0.95690  0.77260  Biso   1.000  H
  H4       1.0000 0.80930  0.04310  0.22740  Biso   1.000  H
  C17      1.0000 0.19620  0.93470  0.91910  Biso   1.000  C
  C18      1.0000 0.80380  0.06530  0.08090  Biso   1.000  C
  C19      1.0000 0.31030  0.87380  0.93560  Biso   1.000  C
  C20      1.0000 0.68970  0.12620  0.06440  Biso   1.000  C
  F19      1.0000 0.36664  0.87567  0.86108  Biso   1.000  F
  F20      1.0000 0.63336  0.12433  0.13892  Biso   1.000  F
  F21      1.0000 0.40890  0.91302  0.03132  Biso   1.000  F
  F22      1.0000 0.59110  0.08698  0.96868  Biso   1.000  F
  F23      1.0000 0.26090  0.77219  0.93178  Biso   1.000  F
  F24      1.0000 0.73910  0.22781  0.06822  Biso   1.000  F
  O7       1.0000 0.15440  0.94163  0.99682  Biso   1.000  O
  O8       1.0000 0.84560  0.05837  0.00318  Biso   1.000  O
  O9       1.0000 0.43810  0.51496  0.33971  Biso   1.000  O
  O10      1.0000 0.56190  0.48504  0.66029  Biso   1.000  O
  N1       1.0000 0.31910  0.52960  0.28660  Biso   1.000  N
  N2       1.0000 0.68090  0.47040  0.71340  Biso   1.000  N
  C21      1.0000 0.29860  0.63710  0.26840  Biso   1.000  C
  C22      1.0000 0.70140  0.36290  0.73160  Biso   1.000  C
  C23      1.0000 0.36080  0.65750  0.18430  Biso   1.000  C
  C24      1.0000 0.63920  0.34250  0.81570  Biso   1.000  C
  H5       1.0000 0.46040  0.67120  0.21690  Biso   1.000  H
  H6       1.0000 0.53960  0.32880  0.78310  Biso   1.000  H
  H7       1.0000 0.33480  0.71920  0.15730  Biso   1.000  H
  H8       1.0000 0.66520  0.28080  0.84270  Biso   1.000  H
  H9       1.0000 0.32720  0.59520  0.12460  Biso   1.000  H
  H10      1.0000 0.67280  0.40480  0.87540  Biso   1.000  H
  C25      1.0000 0.37010  0.72210  0.37070  Biso   1.000  C
  C26      1.0000 0.62990  0.27790  0.62930  Biso   1.000  C
  H11      1.0000 0.46910  0.73080  0.39160  Biso   1.000  H
  H12      1.0000 0.53090  0.26920  0.60840  Biso   1.000  H
  H13      1.0000 0.34160  0.70120  0.42830  Biso   1.000  H
  H14      1.0000 0.65840  0.29880  0.57170  Biso   1.000  H
  H15      1.0000 0.34590  0.78930  0.35830  Biso   1.000  H
  H16      1.0000 0.65410  0.21070  0.64170  Biso   1.000  H
  C27      1.0000 0.14040  0.61430  0.22460  Biso   1.000  C
  C28      1.0000 0.85960  0.38570  0.77540  Biso   1.000  C
  C29      1.0000 0.07820  0.67190  0.13850  Biso   1.000  C
  C30      1.0000 0.92180  0.32810  0.86150  Biso   1.000  C
  H17      1.0000 0.97860  0.65280  0.11620  Biso   1.000  H
  H18      1.0000 0.02140  0.34720  0.88380  Biso   1.000  H
  H19      1.0000 0.10460  0.65160  0.07640  Biso   1.000  H
  H20      1.0000 0.89540  0.34840  0.92360  Biso   1.000  H
  H21      1.0000 0.11120  0.74850  0.16710  Biso   1.000  H
  H22      1.0000 0.88880  0.25150  0.83290  Biso   1.000  H
  C31      1.0000 0.08100  0.62810  0.31400  Biso   1.000  C
  C32      1.0000 0.91900  0.37190  0.68600  Biso   1.000  C
  H23      1.0000 0.98120  0.61270  0.28180  Biso   1.000  H
  H24      1.0000 0.01880  0.38730  0.71820  Biso   1.000  H
  H25      1.0000 0.11550  0.70120  0.35620  Biso   1.000  H
  H26      1.0000 0.88450  0.29880  0.64380  Biso   1.000  H
  H27      1.0000 0.10840  0.57910  0.36100  Biso   1.000  H
  H28      1.0000 0.89160  0.42090  0.63900  Biso   1.000  H
  N3       1.0000 0.10460  0.49690  0.17920  Biso   1.000  N
  N4       1.0000 0.89540  0.50310  0.82080  Biso   1.000  N
  O11      1.0000 0.98490  0.44680  0.11702  Biso   1.000  O
  O12      1.0000 0.01510  0.55320  0.88298  Biso   1.000  O
  C33      1.0000 0.21060  0.45170  0.22170  Biso   1.000  C
  C34      1.0000 0.78940  0.54830  0.77830  Biso   1.000  C
  C35      1.0000 0.20760  0.34100  0.19830  Biso   1.000  C
  C36      1.0000 0.79240  0.65900  0.80170  Biso   1.000  C
  C37      1.0000 0.09930  0.25790  0.12760  Biso   1.000  C
  C38      1.0000 0.90070  0.74210  0.87240  Biso   1.000  C
  H29      1.0000 0.01190  0.26680  0.08680  Biso   1.000  H
  H30      1.0000 0.98810  0.73320  0.91320  Biso   1.000  H
  N5       1.0000 0.13510  0.16560  0.12520  Biso   1.000  N
  N6       1.0000 0.86490  0.83440  0.87480  Biso   1.000  N
  N7       1.0000 0.26750  0.18891  0.19460  Biso   1.000  N
  N8       1.0000 0.73250  0.81109  0.80540  Biso   1.000  N
  C39      1.0000 0.33980  0.10230  0.21000  Biso   1.000  C
  C40      1.0000 0.66020  0.89770  0.79000  Biso   1.000  C
  H31      1.0000 0.38010  0.09160  0.15360  Biso   1.000  H
  H32      1.0000 0.61990  0.90840  0.84640  Biso   1.000  H
  H33      1.0000 0.27260  0.03600  0.19990  Biso   1.000  H
  H34      1.0000 0.72740  0.96400  0.80010  Biso   1.000  H
  C41      1.0000 0.45010  0.12140  0.31730  Biso   1.000  C
  C42      1.0000 0.54990  0.87860  0.68270  Biso   1.000  C
  H35      1.0000 0.41160  0.13320  0.37460  Biso   1.000  H
  H36      1.0000 0.58840  0.86680  0.62540  Biso   1.000  H
  H37      1.0000 0.52030  0.18580  0.32730  Biso   1.000  H
  H38      1.0000 0.47970  0.81420  0.67270  Biso   1.000  H
  C43      1.0000 0.51550  0.02560  0.32570  Biso   1.000  C
  C44      1.0000 0.48450  0.97440  0.67430  Biso   1.000  C
  H39      1.0000 0.44610  0.96320  0.32160  Biso   1.000  H
  H40      1.0000 0.55390  0.03680  0.67840  Biso   1.000  H
  H41      1.0000 0.54430  0.00990  0.26330  Biso   1.000  H
  H42      1.0000 0.45570  0.99010  0.73670  Biso   1.000  H
  C45      1.0000 0.63810  0.04200  0.42840  Biso   1.000  C
  C46      1.0000 0.36190  0.95800  0.57160  Biso   1.000  C
  H43      1.0000 0.67490  0.97830  0.42840  Biso   1.000  H
  H44      1.0000 0.32510  0.02170  0.57160  Biso   1.000  H
  H45      1.0000 0.61010  0.05560  0.49060  Biso   1.000  H
  H46      1.0000 0.38990  0.94440  0.50940  Biso   1.000  H
  H47      1.0000 0.70840  0.10270  0.43230  Biso   1.000  H
  H48      1.0000 0.29160  0.89730  0.56770  Biso   1.000  H
  C47      1.0000 0.31360  0.29230  0.23880  Biso   1.000  C
  C48      1.0000 0.68640  0.70770  0.76120  Biso   1.000  C
  H49      1.0000 0.40250  0.32620  0.28880  Biso   1.000  H
  H50      1.0000 0.59750  0.67380  0.71120  Biso   1.000  H
  C49      1.0000 0.37070  0.27990  0.96270  Biso   1.000  C
  C50      1.0000 0.62930  0.72010  0.03730  Biso   1.000  C
  F25      1.0000 0.23830  0.26455  0.95098  Biso   1.000  F
  F26      1.0000 0.76170  0.73545  0.04902  Biso   1.000  F
  F27      1.0000 0.37570  0.22461  0.87247  Biso   1.000  F
  F28      1.0000 0.62430  0.77539  0.12753  Biso   1.000  F
  F29      1.0000 0.42960  0.23332  0.04222  Biso   1.000  F
  F30      1.0000 0.57040  0.76668  0.95778  Biso   1.000  F
  C51      1.0000 0.43760  0.39510  0.98390  Biso   1.000  C
  C52      1.0000 0.56240  0.60490  0.01610  Biso   1.000  C
  C53      1.0000 0.36860  0.46190  0.93000  Biso   1.000  C
  C54      1.0000 0.63140  0.53810  0.07000  Biso   1.000  C
  H51      1.0000 0.27710  0.43530  0.88150  Biso   1.000  H
  H52      1.0000 0.72290  0.56470  0.11850  Biso   1.000  H
  C55      1.0000 0.56980  0.43370  0.05470  Biso   1.000  C
  C56      1.0000 0.43020  0.56630  0.94530  Biso   1.000  C
  H53      1.0000 0.61810  0.38830  0.09280  Biso   1.000  H
  H54      1.0000 0.38190  0.61170  0.90720  Biso   1.000  H
