data_image0
_cell_length_a       11.0848
_cell_length_b       13.4222
_cell_length_c       13.422
_cell_angle_alpha    98.223
_cell_angle_beta     97.348
_cell_angle_gamma    111.84

_symmetry_space_group_name_H-M    "P 1"
_symmetry_int_tables_number       1

loop_
  _symmetry_equiv_pos_as_xyz
  'x, y, z'

loop_
  _atom_site_label
  _atom_site_occupancy
  _atom_site_fract_x
  _atom_site_fract_y
  _atom_site_fract_z
  _atom_site_thermal_displace_type
  _atom_site_B_iso_or_equiv
  _atom_site_type_symbol
  Cu1      1.0000 0.00000  0.50000  0.50000  Biso   1.000  Cu
  O1       1.0000 0.87425  0.47323  0.37316  Biso   1.000  O
  O2       1.0000 0.12575  0.52677  0.62684  Biso   1.000  O
  C1       1.0000 0.70580  0.47990  0.25430  Biso   1.000  C
  C2       1.0000 0.29420  0.52010  0.74570  Biso   1.000  C
  F1       1.0000 0.78370  0.51190  0.19380  Biso   1.000  F
  F2       1.0000 0.21630  0.48810  0.80620  Biso   1.000  F
  F3       1.0000 0.62720  0.52710  0.23860  Biso   1.000  F
  F4       1.0000 0.37280  0.47290  0.76140  Biso   1.000  F
  F5       1.0000 0.63090  0.37640  0.22320  Biso   1.000  F
  F6       1.0000 0.36910  0.62360  0.77680  Biso   1.000  F
  C3       1.0000 0.78100  0.50450  0.36530  Biso   1.000  C
  C4       1.0000 0.21900  0.49550  0.63470  Biso   1.000  C
  C5       1.0000 0.74080  0.55650  0.44250  Biso   1.000  C
  C6       1.0000 0.25920  0.44350  0.55750  Biso   1.000  C
  H1       1.0000 0.66980  0.57600  0.42560  Biso   1.000  H
  H2       1.0000 0.33020  0.42400  0.57440  Biso   1.000  H
  C7       1.0000 0.80280  0.58040  0.54390  Biso   1.000  C
  C8       1.0000 0.19720  0.41960  0.45610  Biso   1.000  C
  C9       1.0000 0.75320  0.64140  0.62450  Biso   1.000  C
  C10      1.0000 0.24680  0.35860  0.37550  Biso   1.000  C
  F7       1.0000 0.79580  0.73860  0.62840  Biso   1.000  F
  F8       1.0000 0.20420  0.26140  0.37160  Biso   1.000  F
  F9       1.0000 0.61640  0.60290  0.59640  Biso   1.000  F
  F10      1.0000 0.38360  0.39710  0.40360  Biso   1.000  F
  F11      1.0000 0.76360  0.61300  0.70960  Biso   1.000  F
  F12      1.0000 0.23640  0.38700  0.29040  Biso   1.000  F
  O3       1.0000 0.89811  0.55995  0.58126  Biso   1.000  O
  O4       1.0000 0.10189  0.44005  0.41874  Biso   1.000  O
  Cu2      1.0000 0.50000  0.00000  0.00000  Biso   1.000  Cu
  O5       1.0000 0.35350  0.00529  0.06211  Biso   1.000  O
  O6       1.0000 0.64650  0.99471  0.93789  Biso   1.000  O
  C11      1.0000 0.20520  0.06730  0.12960  Biso   1.000  C
  C12      1.0000 0.79480  0.93270  0.87040  Biso   1.000  C
  F13      1.0000 0.17950  0.15310  0.15350  Biso   1.000  F
  F14      1.0000 0.82050  0.84690  0.84650  Biso   1.000  F
  F15      1.0000 0.23030  0.03820  0.21330  Biso   1.000  F
  F16      1.0000 0.76970  0.96180  0.78670  Biso   1.000  F
  F17      1.0000 0.09950  0.99330  0.07330  Biso   1.000  F
  F18      1.0000 0.90050  0.00670  0.92670  Biso   1.000  F
  C13      1.0000 0.31880  0.08490  0.07119  Biso   1.000  C
  C14      1.0000 0.68120  0.91510  0.92881  Biso   1.000  C
  C15      1.0000 0.37050  0.17990  0.03590  Biso   1.000  C
  C16      1.0000 0.62950  0.82010  0.96410  Biso   1.000  C
  H3       1.0000 0.33680  0.23310  0.05000  Biso   1.000  H
  H4       1.0000 0.66320  0.76690  0.95000  Biso   1.000  H
  C17      1.0000 0.47130  0.20000  0.97985  Biso   1.000  C
  C18      1.0000 0.52870  0.80000  0.02015  Biso   1.000  C
  C19      1.0000 0.52170  0.30950  0.94420  Biso   1.000  C
  C20      1.0000 0.47830  0.69050  0.05580  Biso   1.000  C
  F19      1.0000 0.51870  0.38700  0.00770  Biso   1.000  F
  F20      1.0000 0.48130  0.61300  0.99230  Biso   1.000  F
  F21      1.0000 0.44390  0.29580  0.85480  Biso   1.000  F
  F22      1.0000 0.55610  0.70420  0.14520  Biso   1.000  F
  F23      1.0000 0.64310  0.33800  0.93040  Biso   1.000  F
  F24      1.0000 0.35690  0.66200  0.06960  Biso   1.000  F
  O7       1.0000 0.52769  0.13818  0.95357  Biso   1.000  O
  O8       1.0000 0.47231  0.86182  0.04643  Biso   1.000  O
  O9       1.0000 0.90330  0.31456  0.51939  Biso   1.000  O
  O10      1.0000 0.09670  0.68544  0.48061  Biso   1.000  O
  N1       1.0000 0.77964  0.26495  0.52486  Biso   1.000  N
  N2       1.0000 0.22036  0.73505  0.47514  Biso   1.000  N
  C21      1.0000 0.73640  0.24940  0.62491  Biso   1.000  C
  C22      1.0000 0.26360  0.75060  0.37509  Biso   1.000  C
  C23      1.0000 0.77510  0.15870  0.65710  Biso   1.000  C
  C24      1.0000 0.22490  0.84130  0.34290  Biso   1.000  C
  H5       1.0000 0.73020  0.09230  0.60590  Biso   1.000  H
  H6       1.0000 0.26980  0.90770  0.39410  Biso   1.000  H
  H7       1.0000 0.75030  0.14620  0.72160  Biso   1.000  H
  H8       1.0000 0.24970  0.85380  0.27840  Biso   1.000  H
  H9       1.0000 0.86920  0.18060  0.66410  Biso   1.000  H
  H10      1.0000 0.13080  0.81940  0.33590  Biso   1.000  H
  C25      1.0000 0.80770  0.35450  0.70630  Biso   1.000  C
  C26      1.0000 0.19230  0.64550  0.29370  Biso   1.000  C
  H11      1.0000 0.90030  0.36890  0.72250  Biso   1.000  H
  H12      1.0000 0.09970  0.63110  0.27750  Biso   1.000  H
  H13      1.0000 0.77090  0.34620  0.76710  Biso   1.000  H
  H14      1.0000 0.22910  0.65380  0.23290  Biso   1.000  H
  H15      1.0000 0.79690  0.41450  0.68080  Biso   1.000  H
  H16      1.0000 0.20310  0.58550  0.31920  Biso   1.000  H
  C27      1.0000 0.58460  0.21350  0.59123  Biso   1.000  C
  C28      1.0000 0.41540  0.78650  0.40877  Biso   1.000  C
  C29      1.0000 0.53970  0.30770  0.59760  Biso   1.000  C
  C30      1.0000 0.46030  0.69230  0.40240  Biso   1.000  C
  H17      1.0000 0.59550  0.36360  0.56700  Biso   1.000  H
  H18      1.0000 0.40450  0.63640  0.43300  Biso   1.000  H
  H19      1.0000 0.54560  0.33780  0.66830  Biso   1.000  H
  H20      1.0000 0.45440  0.66220  0.33170  Biso   1.000  H
  H21      1.0000 0.44960  0.28140  0.56150  Biso   1.000  H
  H22      1.0000 0.55040  0.71860  0.43850  Biso   1.000  H
  C31      1.0000 0.49890  0.12350  0.63970  Biso   1.000  C
  C32      1.0000 0.50110  0.87650  0.36030  Biso   1.000  C
  H23      1.0000 0.40700  0.10720  0.61470  Biso   1.000  H
  H24      1.0000 0.59300  0.89280  0.38530  Biso   1.000  H
  H25      1.0000 0.51950  0.14780  0.71300  Biso   1.000  H
  H26      1.0000 0.48050  0.85220  0.28700  Biso   1.000  H
  H27      1.0000 0.51590  0.05880  0.62190  Biso   1.000  H
  H28      1.0000 0.48410  0.94120  0.37810  Biso   1.000  H
  N3       1.0000 0.56680  0.16837  0.47888  Biso   1.000  N
  N4       1.0000 0.43320  0.83163  0.52112  Biso   1.000  N
  O11      1.0000 0.45230  0.11213  0.42259  Biso   1.000  O
  O12      1.0000 0.54770  0.88787  0.57741  Biso   1.000  O
  C33      1.0000 0.68160  0.20646  0.44405  Biso   1.000  C
  C34      1.0000 0.31840  0.79354  0.55595  Biso   1.000  C
  C35      1.0000 0.69430  0.18502  0.33914  Biso   1.000  C
  C36      1.0000 0.30570  0.81498  0.66086  Biso   1.000  C
  C37      1.0000 0.59570  0.11810  0.25327  Biso   1.000  C
  C38      1.0000 0.40430  0.88190  0.74673  Biso   1.000  C
  H29      1.0000 0.50710  0.08080  0.25600  Biso   1.000  H
  H30      1.0000 0.49290  0.91920  0.74400  Biso   1.000  H
  N5       1.0000 0.64380  0.11470  0.16872  Biso   1.000  N
  N6       1.0000 0.35620  0.88530  0.83128  Biso   1.000  N
  N7       1.0000 0.77520  0.18088  0.19831  Biso   1.000  N
  N8       1.0000 0.22480  0.81912  0.80169  Biso   1.000  N
  C39      1.0000 0.86190  0.19850  0.12340  Biso   1.000  C
  C40      1.0000 0.13810  0.80150  0.87660  Biso   1.000  C
  H31      1.0000 0.93290  0.17550  0.14420  Biso   1.000  H
  H32      1.0000 0.06710  0.82450  0.85580  Biso   1.000  H
  H33      1.0000 0.81140  0.15240  0.05730  Biso   1.000  H
  H34      1.0000 0.18860  0.84760  0.94270  Biso   1.000  H
  C41      1.0000 0.91980  0.31210  0.11180  Biso   1.000  C
  C42      1.0000 0.08020  0.68790  0.88820  Biso   1.000  C
  H35      1.0000 0.98800  0.35620  0.17140  Biso   1.000  H
  H36      1.0000 0.01200  0.64380  0.82860  Biso   1.000  H
  H37      1.0000 0.85200  0.34150  0.10610  Biso   1.000  H
  H38      1.0000 0.14800  0.65850  0.89390  Biso   1.000  H
  C43      1.0000 0.98670  0.31670  0.00380  Biso   1.000  C
  C44      1.0000 0.01330  0.68330  0.99620  Biso   1.000  C
  H39      1.0000 0.98100  0.24520  0.97150  Biso   1.000  H
  H40      1.0000 0.01900  0.75480  0.02850  Biso   1.000  H
  H41      1.0000 0.94600  0.34650  0.95420  Biso   1.000  H
  H42      1.0000 0.05400  0.65350  0.04580  Biso   1.000  H
  C45      1.0000 0.09410  0.37560  0.04080  Biso   1.000  C
  C46      1.0000 0.90590  0.62440  0.95920  Biso   1.000  C
  H43      1.0000 0.15070  0.37450  0.99250  Biso   1.000  H
  H44      1.0000 0.84930  0.62550  0.00750  Biso   1.000  H
  H45      1.0000 0.12300  0.35280  0.10070  Biso   1.000  H
  H46      1.0000 0.87700  0.64720  0.89930  Biso   1.000  H
  H47      1.0000 0.09810  0.44860  0.06000  Biso   1.000  H
  H48      1.0000 0.90190  0.55140  0.94000  Biso   1.000  H
  C47      1.0000 0.80770  0.22280  0.29869  Biso   1.000  C
  C48      1.0000 0.19230  0.77720  0.70131  Biso   1.000  C
  H49      1.0000 0.89190  0.26930  0.33530  Biso   1.000  H
  H50      1.0000 0.10810  0.73070  0.66470  Biso   1.000  H
  C49      1.0000 0.14400  0.13160  0.70210  Biso   1.000  C
  C50      1.0000 0.85600  0.86840  0.29790  Biso   1.000  C
  F25      1.0000 0.06470  0.13670  0.76030  Biso   1.000  F
  F26      1.0000 0.93530  0.86330  0.23970  Biso   1.000  F
  F27      1.0000 0.24210  0.21480  0.69940  Biso   1.000  F
  F28      1.0000 0.75790  0.78520  0.30060  Biso   1.000  F
  C51      1.0000 0.05500  0.06400  0.60000  Biso   1.000  C
  C52      1.0000 0.94500  0.93600  0.40000  Biso   1.000  C
  C53      1.0000 0.05210  0.95170  0.57050  Biso   1.000  C
  C54      1.0000 0.94790  0.04830  0.42950  Biso   1.000  C
  H51      1.0000 0.09380  0.92230  0.61540  Biso   1.000  H
  H52      1.0000 0.90620  0.07770  0.38460  Biso   1.000  H
  C55      1.0000 0.00960  0.10140  0.51850  Biso   1.000  C
  C56      1.0000 0.99040  0.89860  0.48150  Biso   1.000  C
  H53      1.0000 0.02700  0.17590  0.53100  Biso   1.000  H
  H54      1.0000 0.97300  0.82410  0.46900  Biso   1.000  H
  F29      1.0000 0.19900  0.08600  0.74750  Biso   1.000  F
  F30      1.0000 0.80100  0.91400  0.25250  Biso   1.000  F
  C57      1.0000 0.87000  0.91100  0.29900  Biso   1.000  C
  C58      1.0000 0.13000  0.08900  0.70100  Biso   1.000  C
  C59      1.0000 0.07210  0.04930  0.59240  Biso   1.000  C
  C60      1.0000 0.92790  0.95070  0.40760  Biso   1.000  C
  C61      1.0000 0.99700  0.94900  0.56800  Biso   1.000  C
  C62      1.0000 0.00300  0.05100  0.43200  Biso   1.000  C
  C63      1.0000 0.92400  0.89100  0.46500  Biso   1.000  C
  C64      1.0000 0.07600  0.10900  0.53500  Biso   1.000  C
  F31      1.0000 0.45820  0.37350  0.96870  Biso   1.000  F
  F32      1.0000 0.54180  0.62650  0.03130  Biso   1.000  F
  F33      1.0000 0.48320  0.69790  0.14880  Biso   1.000  F
  F34      1.0000 0.51680  0.30210  0.85120  Biso   1.000  F
  F35      1.0000 0.35540  0.63250  0.01720  Biso   1.000  F
  F36      1.0000 0.64460  0.36750  0.98280  Biso   1.000  F
  F37      1.0000 0.78340  0.53730  0.19890  Biso   1.000  F
  F38      1.0000 0.21660  0.46270  0.80110  Biso   1.000  F
  F39      1.0000 0.76940  0.93560  0.25940  Biso   1.000  F
  F40      1.0000 0.23060  0.06440  0.74060  Biso   1.000  F
  F41      1.0000 0.59960  0.50130  0.25160  Biso   1.000  F
  F42      1.0000 0.40040  0.49870  0.74840  Biso   1.000  F
  F43      1.0000 0.92700  0.94300  0.22700  Biso   1.000  F
  F44      1.0000 0.07300  0.05700  0.77300  Biso   1.000  F
  F45      1.0000 0.67280  0.37820  0.21110  Biso   1.000  F
  F46      1.0000 0.32720  0.62180  0.78890  Biso   1.000  F
  F47      1.0000 0.85700  0.79820  0.26960  Biso   1.000  F
  F48      1.0000 0.14300  0.20180  0.73040  Biso   1.000  F
  F49      1.0000 0.86450  0.73820  0.67660  Biso   1.000  F
  F50      1.0000 0.13550  0.26180  0.32340  Biso   1.000  F
  F51      1.0000 0.67160  0.67910  0.59100  Biso   1.000  F
  F52      1.0000 0.32840  0.32090  0.40900  Biso   1.000  F
  F53      1.0000 0.72250  0.59150  0.69730  Biso   1.000  F
  F54      1.0000 0.27750  0.40850  0.30270  Biso   1.000  F
  F55      1.0000 0.24400  0.07790  0.22630  Biso   1.000  F
  F56      1.0000 0.75600  0.92210  0.77370  Biso   1.000  F
  F57      1.0000 0.10980  0.96960  0.09900  Biso   1.000  F
  F58      1.0000 0.89020  0.03040  0.90100  Biso   1.000  F
  F59      1.0000 0.14820  0.13390  0.11880  Biso   1.000  F
  F60      1.0000 0.85180  0.86610  0.88120  Biso   1.000  F
  H55      1.0000 0.98880  0.90830  0.61930  Biso   1.000  H
  H56      1.0000 0.01120  0.09170  0.38070  Biso   1.000  H
  H57      1.0000 0.87870  0.81530  0.44690  Biso   1.000  H
  H58      1.0000 0.12130  0.18470  0.55310  Biso   1.000  H
