data_image0
_cell_length_a       10.8445
_cell_length_b       13.3049
_cell_length_c       13.3647
_cell_angle_alpha    98.9
_cell_angle_beta     96.585
_cell_angle_gamma    112.372

_symmetry_space_group_name_H-M    "P 1"
_symmetry_int_tables_number       1

loop_
  _symmetry_equiv_pos_as_xyz
  'x, y, z'

loop_
  _atom_site_label
  _atom_site_occupancy
  _atom_site_fract_x
  _atom_site_fract_y
  _atom_site_fract_z
  _atom_site_thermal_displace_type
  _atom_site_B_iso_or_equiv
  _atom_site_type_symbol
  Cu1      1.0000 0.00000  0.50000  0.50000  Biso   1.000  Cu
  O1       1.0000 0.87050  0.47203  0.37378  Biso   1.000  O
  O2       1.0000 0.12950  0.52797  0.62622  Biso   1.000  O
  C1       1.0000 0.69790  0.47835  0.25602  Biso   1.000  C
  C2       1.0000 0.30210  0.52165  0.74398  Biso   1.000  C
  F1       1.0000 0.78138  0.53031  0.19751  Biso   1.000  F
  F2       1.0000 0.21862  0.46969  0.80249  Biso   1.000  F
  F3       1.0000 0.60100  0.50500  0.25030  Biso   1.000  F
  F4       1.0000 0.39900  0.49500  0.74970  Biso   1.000  F
  F5       1.0000 0.64300  0.36500  0.22450  Biso   1.000  F
  F6       1.0000 0.35700  0.63500  0.77550  Biso   1.000  F
  F7       1.0000 0.34800  0.62600  0.79400  Biso   1.000  F
  F8       1.0000 0.65200  0.37400  0.20600  Biso   1.000  F
  C3       1.0000 0.77443  0.50265  0.36708  Biso   1.000  C
  C4       1.0000 0.22557  0.49735  0.63292  Biso   1.000  C
  C5       1.0000 0.73268  0.55547  0.44581  Biso   1.000  C
  C6       1.0000 0.26732  0.44453  0.55419  Biso   1.000  C
  H1       1.0000 0.65790  0.57460  0.42970  Biso   1.000  H
  H2       1.0000 0.34210  0.42540  0.57030  Biso   1.000  H
  C7       1.0000 0.79841  0.58084  0.54780  Biso   1.000  C
  C8       1.0000 0.20159  0.41916  0.45220  Biso   1.000  C
  C9       1.0000 0.75020  0.64338  0.62998  Biso   1.000  C
  C10      1.0000 0.24980  0.35662  0.37002  Biso   1.000  C
  F9       1.0000 0.80850  0.74780  0.63960  Biso   1.000  F
  F10      1.0000 0.19150  0.25220  0.36040  Biso   1.000  F
  F11      1.0000 0.61330  0.61520  0.60040  Biso   1.000  F
  F12      1.0000 0.38670  0.38480  0.39960  Biso   1.000  F
  F13      1.0000 0.75950  0.61120  0.71620  Biso   1.000  F
  F14      1.0000 0.24050  0.38880  0.28380  Biso   1.000  F
  O3       1.0000 0.89704  0.56102  0.58375  Biso   1.000  O
  O4       1.0000 0.10296  0.43898  0.41625  Biso   1.000  O
  Cu2      1.0000 0.50000  0.00000  0.00000  Biso   1.000  Cu
  O5       1.0000 0.34586  0.99899  0.06127  Biso   1.000  O
  O6       1.0000 0.65414  0.00101  0.93873  Biso   1.000  O
  C11      1.0000 0.18700  0.05410  0.12669  Biso   1.000  C
  C12      1.0000 0.81300  0.94590  0.87331  Biso   1.000  C
  F15      1.0000 0.14880  0.12960  0.13510  Biso   1.000  F
  F16      1.0000 0.85120  0.87040  0.86490  Biso   1.000  F
  F17      1.0000 0.21600  0.03500  0.22560  Biso   1.000  F
  F18      1.0000 0.78400  0.96500  0.77440  Biso   1.000  F
  F19      1.0000 0.08346  0.95949  0.07906  Biso   1.000  F
  F20      1.0000 0.91654  0.04051  0.92094  Biso   1.000  F
  C13      1.0000 0.30627  0.07727  0.07023  Biso   1.000  C
  C14      1.0000 0.69373  0.92273  0.92977  Biso   1.000  C
  C15      1.0000 0.35760  0.17543  0.03711  Biso   1.000  C
  C16      1.0000 0.64240  0.82457  0.96289  Biso   1.000  C
  H3       1.0000 0.31960  0.22830  0.05210  Biso   1.000  H
  H4       1.0000 0.68040  0.77170  0.94790  Biso   1.000  H
  C17      1.0000 0.46350  0.19995  0.98231  Biso   1.000  C
  C18      1.0000 0.53650  0.80005  0.01769  Biso   1.000  C
  C19      1.0000 0.51440  0.31212  0.94904  Biso   1.000  C
  C20      1.0000 0.48560  0.68788  0.05096  Biso   1.000  C
  F21      1.0000 0.49950  0.38900  0.00880  Biso   1.000  F
  F22      1.0000 0.50050  0.61100  0.99120  Biso   1.000  F
  F23      1.0000 0.46340  0.30010  0.85790  Biso   1.000  F
  F24      1.0000 0.53660  0.69990  0.14210  Biso   1.000  F
  F25      1.0000 0.65320  0.35390  0.95890  Biso   1.000  F
  F26      1.0000 0.34680  0.64610  0.04110  Biso   1.000  F
  O7       1.0000 0.52500  0.14038  0.95500  Biso   1.000  O
  O8       1.0000 0.47500  0.85962  0.04500  Biso   1.000  O
  O9       1.0000 0.90361  0.31563  0.52269  Biso   1.000  O
  O10      1.0000 0.09639  0.68437  0.47731  Biso   1.000  O
  N1       1.0000 0.77589  0.26488  0.52734  Biso   1.000  N
  N2       1.0000 0.22411  0.73512  0.47266  Biso   1.000  N
  C21      1.0000 0.72909  0.24952  0.62799  Biso   1.000  C
  C22      1.0000 0.27091  0.75048  0.37201  Biso   1.000  C
  C23      1.0000 0.76880  0.15974  0.66151  Biso   1.000  C
  C24      1.0000 0.23120  0.84026  0.33849  Biso   1.000  C
  H5       1.0000 0.72310  0.09030  0.60920  Biso   1.000  H
  H6       1.0000 0.27690  0.90970  0.39080  Biso   1.000  H
  H7       1.0000 0.74150  0.14760  0.72750  Biso   1.000  H
  H8       1.0000 0.25850  0.85240  0.27250  Biso   1.000  H
  H9       1.0000 0.86740  0.18370  0.66930  Biso   1.000  H
  H10      1.0000 0.13260  0.81630  0.33070  Biso   1.000  H
  C25      1.0000 0.79930  0.35802  0.70885  Biso   1.000  C
  C26      1.0000 0.20070  0.64198  0.29115  Biso   1.000  C
  H11      1.0000 0.89620  0.37480  0.72690  Biso   1.000  H
  H12      1.0000 0.10380  0.62520  0.27310  Biso   1.000  H
  H13      1.0000 0.75870  0.35050  0.77060  Biso   1.000  H
  H14      1.0000 0.24130  0.64950  0.22940  Biso   1.000  H
  H15      1.0000 0.78800  0.41860  0.68100  Biso   1.000  H
  H16      1.0000 0.21200  0.58140  0.31900  Biso   1.000  H
  C27      1.0000 0.57355  0.21171  0.59261  Biso   1.000  C
  C28      1.0000 0.42645  0.78829  0.40739  Biso   1.000  C
  C29      1.0000 0.52680  0.30677  0.59900  Biso   1.000  C
  C30      1.0000 0.47320  0.69323  0.40100  Biso   1.000  C
  H17      1.0000 0.58510  0.36440  0.56720  Biso   1.000  H
  H18      1.0000 0.41490  0.63560  0.43280  Biso   1.000  H
  H19      1.0000 0.53280  0.33870  0.67150  Biso   1.000  H
  H20      1.0000 0.46720  0.66130  0.32850  Biso   1.000  H
  H21      1.0000 0.43260  0.27830  0.56240  Biso   1.000  H
  H22      1.0000 0.56740  0.72170  0.43760  Biso   1.000  H
  C31      1.0000 0.48460  0.12002  0.64035  Biso   1.000  C
  C32      1.0000 0.51540  0.87998  0.35965  Biso   1.000  C
  H23      1.0000 0.38880  0.10250  0.61470  Biso   1.000  H
  H24      1.0000 0.61120  0.89750  0.38530  Biso   1.000  H
  H25      1.0000 0.50520  0.14510  0.71560  Biso   1.000  H
  H26      1.0000 0.49480  0.85490  0.28440  Biso   1.000  H
  H27      1.0000 0.50240  0.05330  0.62150  Biso   1.000  H
  H28      1.0000 0.49760  0.94670  0.37850  Biso   1.000  H
  N3       1.0000 0.55720  0.16594  0.47972  Biso   1.000  N
  N4       1.0000 0.44280  0.83406  0.52028  Biso   1.000  N
  O11      1.0000 0.44102  0.10868  0.42221  Biso   1.000  O
  O12      1.0000 0.55898  0.89132  0.57779  Biso   1.000  O
  C33      1.0000 0.67608  0.20543  0.44548  Biso   1.000  C
  C34      1.0000 0.32392  0.79457  0.55452  Biso   1.000  C
  C35      1.0000 0.69102  0.18469  0.34023  Biso   1.000  C
  C36      1.0000 0.30898  0.81531  0.65977  Biso   1.000  C
  C37      1.0000 0.58967  0.11772  0.25272  Biso   1.000  C
  C38      1.0000 0.41033  0.88228  0.74728  Biso   1.000  C
  H29      1.0000 0.49670  0.07810  0.25490  Biso   1.000  H
  H30      1.0000 0.50330  0.92190  0.74510  Biso   1.000  H
  N5       1.0000 0.64120  0.11745  0.16751  Biso   1.000  N
  N6       1.0000 0.35880  0.88255  0.83249  Biso   1.000  N
  N7       1.0000 0.77631  0.18510  0.19902  Biso   1.000  N
  N8       1.0000 0.22369  0.81490  0.80098  Biso   1.000  N
  C39      1.0000 0.85690  0.20810  0.12370  Biso   1.000  C
  C40      1.0000 0.14310  0.79190  0.87630  Biso   1.000  C
  H31      1.0000 0.79680  0.18020  0.05490  Biso   1.000  H
  H32      1.0000 0.20320  0.81980  0.94510  Biso   1.000  H
  H33      1.0000 0.91570  0.16670  0.12630  Biso   1.000  H
  H34      1.0000 0.08430  0.83330  0.87370  Biso   1.000  H
  C41      1.0000 0.94820  0.33380  0.13560  Biso   1.000  C
  C42      1.0000 0.05180  0.66620  0.86440  Biso   1.000  C
  H35      1.0000 0.03870  0.35600  0.17870  Biso   1.000  H
  H36      1.0000 0.96130  0.64400  0.82130  Biso   1.000  H
  H37      1.0000 0.90450  0.38230  0.16350  Biso   1.000  H
  H38      1.0000 0.09550  0.61770  0.83650  Biso   1.000  H
  C43      1.0000 0.12400  0.78810  0.87560  Biso   1.000  C
  C44      1.0000 0.87600  0.21190  0.12440  Biso   1.000  C
  H39      1.0000 0.87180  0.36950  0.14420  Biso   1.000  H
  H40      1.0000 0.12820  0.63050  0.85580  Biso   1.000  H
  C45      1.0000 0.04480  0.35540  0.06050  Biso   1.000  C
  C46      1.0000 0.95520  0.64460  0.93950  Biso   1.000  C
  H41      1.0000 0.10470  0.43470  0.08950  Biso   1.000  H
  H42      1.0000 0.89530  0.56530  0.91050  Biso   1.000  H
  H43      1.0000 0.09040  0.30630  0.07600  Biso   1.000  H
  H44      1.0000 0.90960  0.69370  0.92400  Biso   1.000  H
  C47      1.0000 0.97850  0.33120  0.94870  Biso   1.000  C
  C48      1.0000 0.02150  0.66880  0.05130  Biso   1.000  C
  H45      1.0000 0.04840  0.34620  0.90590  Biso   1.000  H
  H46      1.0000 0.95160  0.65380  0.09410  Biso   1.000  H
  H47      1.0000 0.92960  0.37890  0.94030  Biso   1.000  H
  H48      1.0000 0.07040  0.62110  0.05970  Biso   1.000  H
  H49      1.0000 0.91460  0.25290  0.92730  Biso   1.000  H
  H50      1.0000 0.08540  0.74710  0.07270  Biso   1.000  H
  C49      1.0000 0.80886  0.22566  0.30073  Biso   1.000  C
  C50      1.0000 0.19114  0.77434  0.69927  Biso   1.000  C
  H51      1.0000 0.89670  0.27380  0.33910  Biso   1.000  H
  H52      1.0000 0.10330  0.72620  0.66090  Biso   1.000  H
  C51      1.0000 0.15000  0.13120  0.70610  Biso   1.000  C
  C52      1.0000 0.85000  0.86880  0.29390  Biso   1.000  C
  F27      1.0000 0.05400  0.14460  0.76300  Biso   1.000  F
  F28      1.0000 0.94600  0.85540  0.23700  Biso   1.000  F
  F29      1.0000 0.24600  0.23330  0.69480  Biso   1.000  F
  F30      1.0000 0.75400  0.76670  0.30520  Biso   1.000  F
  F31      1.0000 0.21520  0.07880  0.75260  Biso   1.000  F
  F32      1.0000 0.78480  0.92120  0.24740  Biso   1.000  F
  C53      1.0000 0.05760  0.05250  0.58200  Biso   1.000  C
  C54      1.0000 0.94240  0.94750  0.41800  Biso   1.000  C
  C55      1.0000 0.05600  0.95700  0.57220  Biso   1.000  C
  C56      1.0000 0.94400  0.04300  0.42780  Biso   1.000  C
  H53      1.0000 0.10160  0.93040  0.62030  Biso   1.000  H
  H54      1.0000 0.89840  0.06960  0.37970  Biso   1.000  H
  C57      1.0000 0.02200  0.10100  0.52000  Biso   1.000  C
  C58      1.0000 0.97800  0.89900  0.48000  Biso   1.000  C
  H55      1.0000 0.05030  0.17950  0.53800  Biso   1.000  H
  H56      1.0000 0.94970  0.82050  0.46200  Biso   1.000  H
  C59      1.0000 0.04340  0.66810  0.00330  Biso   1.000  C
  C60      1.0000 0.95660  0.33190  0.99670  Biso   1.000  C
  C61      1.0000 0.89660  0.63960  0.97180  Biso   1.000  C
  C62      1.0000 0.10340  0.36040  0.02820  Biso   1.000  C
  C63      1.0000 0.13400  0.12330  0.69430  Biso   1.000  C
  C64      1.0000 0.86600  0.87670  0.30570  Biso   1.000  C
  C65      1.0000 0.08100  0.06850  0.60930  Biso   1.000  C
  C66      1.0000 0.91900  0.93150  0.39070  Biso   1.000  C
  C67      1.0000 0.04200  0.94500  0.56630  Biso   1.000  C
  C68      1.0000 0.95800  0.05500  0.43370  Biso   1.000  C
  C69      1.0000 0.12130  0.68590  0.91110  Biso   1.000  C
  C70      1.0000 0.87870  0.31410  0.08890  Biso   1.000  C
  C71      1.0000 0.98000  0.88040  0.46620  Biso   1.000  C
  C72      1.0000 0.02000  0.11960  0.53380  Biso   1.000  C
  F33      1.0000 0.42050  0.35870  0.95460  Biso   1.000  F
  F34      1.0000 0.57950  0.64130  0.04540  Biso   1.000  F
  F35      1.0000 0.47940  0.69510  0.14650  Biso   1.000  F
  F36      1.0000 0.52060  0.30490  0.85350  Biso   1.000  F
  F37      1.0000 0.37830  0.62050  0.00080  Biso   1.000  F
  F38      1.0000 0.62170  0.37950  0.99920  Biso   1.000  F
  F39      1.0000 0.20270  0.08160  0.75630  Biso   1.000  F
  F40      1.0000 0.79730  0.91840  0.24370  Biso   1.000  F
  F41      1.0000 0.59000  0.51510  0.24860  Biso   1.000  F
  F42      1.0000 0.41000  0.48490  0.75140  Biso   1.000  F
  F43      1.0000 0.07360  0.15510  0.75920  Biso   1.000  F
  F44      1.0000 0.92640  0.84490  0.24080  Biso   1.000  F
  F45      1.0000 0.22760  0.22090  0.70480  Biso   1.000  F
  F46      1.0000 0.77240  0.77910  0.29520  Biso   1.000  F
  F47      1.0000 0.85780  0.74630  0.67250  Biso   1.000  F
  F48      1.0000 0.14220  0.25370  0.32750  Biso   1.000  F
  F49      1.0000 0.64850  0.66340  0.59840  Biso   1.000  F
  F50      1.0000 0.35150  0.33660  0.40160  Biso   1.000  F
  F51      1.0000 0.73100  0.59900  0.70970  Biso   1.000  F
  F52      1.0000 0.26900  0.40100  0.29030  Biso   1.000  F
  F53      1.0000 0.22800  0.05580  0.21890  Biso   1.000  F
  F54      1.0000 0.77200  0.94420  0.78110  Biso   1.000  F
  F55      1.0000 0.13080  0.13680  0.13170  Biso   1.000  F
  F56      1.0000 0.86920  0.86320  0.86830  Biso   1.000  F
  H57      1.0000 0.09470  0.74210  0.04990  Biso   1.000  H
  H58      1.0000 0.90530  0.25790  0.95010  Biso   1.000  H
  H59      1.0000 0.06400  0.60950  0.02960  Biso   1.000  H
  H60      1.0000 0.93600  0.39050  0.97040  Biso   1.000  H
  H61      1.0000 0.85340  0.63300  0.03240  Biso   1.000  H
  H62      1.0000 0.14660  0.36700  0.96760  Biso   1.000  H
  H63      1.0000 0.88460  0.69820  0.94090  Biso   1.000  H
  H64      1.0000 0.11540  0.30180  0.05910  Biso   1.000  H
  H65      1.0000 0.85460  0.56860  0.92120  Biso   1.000  H
  H66      1.0000 0.14540  0.43140  0.07880  Biso   1.000  H
  H67      1.0000 0.03250  0.77520  0.84050  Biso   1.000  H
  H68      1.0000 0.96750  0.22480  0.15950  Biso   1.000  H
  H69      1.0000 0.15400  0.85130  0.93550  Biso   1.000  H
  H70      1.0000 0.84600  0.14870  0.06450  Biso   1.000  H
  H71      1.0000 0.06160  0.90600  0.61480  Biso   1.000  H
  H72      1.0000 0.93840  0.09400  0.38520  Biso   1.000  H
  H73      1.0000 0.19170  0.70310  0.97280  Biso   1.000  H
  H74      1.0000 0.80830  0.29690  0.02720  Biso   1.000  H
  H75      1.0000 0.97670  0.80760  0.44650  Biso   1.000  H
  H76      1.0000 0.02330  0.19240  0.55350  Biso   1.000  H
