data_image0
_cell_length_a       10.5673
_cell_length_b       13.1006
_cell_length_c       13.4701
_cell_angle_alpha    98.726
_cell_angle_beta     108.913
_cell_angle_gamma    99.893

_symmetry_space_group_name_H-M    "P 1"
_symmetry_int_tables_number       1

loop_
  _symmetry_equiv_pos_as_xyz
  'x, y, z'

loop_
  _atom_site_label
  _atom_site_occupancy
  _atom_site_fract_x
  _atom_site_fract_y
  _atom_site_fract_z
  _atom_site_thermal_displace_type
  _atom_site_B_iso_or_equiv
  _atom_site_type_symbol
  Cu1      1.0000 0.00000  0.00000  0.00000  Biso   1.000  Cu
  O1       1.0000 0.15180  0.13240  0.03550  Biso   1.000  O
  O2       1.0000 0.84820  0.86760  0.96450  Biso   1.000  O
  C1       1.0000 0.32840  0.25620  0.02550  Biso   1.000  C
  C2       1.0000 0.67160  0.74380  0.97450  Biso   1.000  C
  F1       1.0000 0.25500  0.31090  0.95280  Biso   1.000  F
  F2       1.0000 0.74500  0.68910  0.04720  Biso   1.000  F
  F3       1.0000 0.35330  0.31710  0.12030  Biso   1.000  F
  F4       1.0000 0.64670  0.68290  0.87970  Biso   1.000  F
  F5       1.0000 0.43700  0.27000  0.99420  Biso   1.000  F
  F6       1.0000 0.56300  0.73000  0.00580  Biso   1.000  F
  C3       1.0000 0.25050  0.14210  0.00220  Biso   1.000  C
  C4       1.0000 0.74950  0.85790  0.99780  Biso   1.000  C
  C5       1.0000 0.29320  0.06280  0.94730  Biso   1.000  C
  C6       1.0000 0.70680  0.93720  0.05270  Biso   1.000  C
  H1       1.0000 0.36910  0.08210  0.92530  Biso   1.000  H
  H2       1.0000 0.63090  0.91790  0.07470  Biso   1.000  H
  C7       1.0000 0.22550  0.95640  0.92480  Biso   1.000  C
  C8       1.0000 0.77450  0.04360  0.07520  Biso   1.000  C
  C9       1.0000 0.27680  0.87730  0.85900  Biso   1.000  C
  C10      1.0000 0.72320  0.12270  0.14100  Biso   1.000  C
  F7       1.0000 0.17480  0.82760  0.76620  Biso   1.000  F
  F8       1.0000 0.82520  0.17240  0.23380  Biso   1.000  F
  F9       1.0000 0.31150  0.80170  0.91180  Biso   1.000  F
  F10      1.0000 0.68850  0.19830  0.08820  Biso   1.000  F
  F11      1.0000 0.38450  0.92020  0.83560  Biso   1.000  F
  F12      1.0000 0.61550  0.07980  0.16440  Biso   1.000  F
  O3       1.0000 0.12950  0.91450  0.94940  Biso   1.000  O
  O4       1.0000 0.87050  0.08550  0.05060  Biso   1.000  O
  Cu2      1.0000 0.50000  0.50000  0.50000  Biso   1.000  Cu
  O5       1.0000 0.51060  0.44300  0.62940  Biso   1.000  O
  O6       1.0000 0.48940  0.55700  0.37060  Biso   1.000  O
  C11      1.0000 0.48800  0.42880  0.79410  Biso   1.000  C
  C12      1.0000 0.51200  0.57120  0.20590  Biso   1.000  C
  F13      1.0000 0.62290  0.43700  0.83600  Biso   1.000  F
  F14      1.0000 0.37710  0.56300  0.16400  Biso   1.000  F
  F15      1.0000 0.42500  0.32550  0.77580  Biso   1.000  F
  F16      1.0000 0.57500  0.67450  0.22420  Biso   1.000  F
  F17      1.0000 0.45400  0.48110  0.87190  Biso   1.000  F
  F18      1.0000 0.54600  0.51890  0.12810  Biso   1.000  F
  C13      1.0000 0.44530  0.46930  0.69080  Biso   1.000  C
  C14      1.0000 0.55470  0.53070  0.30920  Biso   1.000  C
  C15      1.0000 0.34580  0.52650  0.67300  Biso   1.000  C
  C16      1.0000 0.65420  0.47350  0.32700  Biso   1.000  C
  H3       1.0000 0.30700  0.54090  0.72660  Biso   1.000  H
  H4       1.0000 0.69300  0.45910  0.27340  Biso   1.000  H
  C17      1.0000 0.29930  0.56420  0.57960  Biso   1.000  C
  C18      1.0000 0.70070  0.43580  0.42040  Biso   1.000  C
  C19      1.0000 0.18760  0.62470  0.56340  Biso   1.000  C
  C20      1.0000 0.81240  0.37530  0.43660  Biso   1.000  C
  F19      1.0000 0.12980  0.62300  0.63940  Biso   1.000  F
  F20      1.0000 0.87020  0.37700  0.36060  Biso   1.000  F
  F21      1.0000 0.23760  0.72790  0.56940  Biso   1.000  F
  F22      1.0000 0.76240  0.27210  0.43060  Biso   1.000  F
  F23      1.0000 0.08670  0.58550  0.46800  Biso   1.000  F
  F24      1.0000 0.91330  0.41450  0.53200  Biso   1.000  F
  O7       1.0000 0.34440  0.55730  0.50340  Biso   1.000  O
  O8       1.0000 0.65560  0.44270  0.49660  Biso   1.000  O
  O9       1.0000 0.05920  0.98500  0.15780  Biso   1.000  O
  O10      1.0000 0.94080  0.01500  0.84220  Biso   1.000  O
  N1       1.0000 0.17930  0.96950  0.21040  Biso   1.000  N
  N2       1.0000 0.82070  0.03050  0.78960  Biso   1.000  N
  C21      1.0000 0.20010  0.86250  0.23070  Biso   1.000  C
  C22      1.0000 0.79990  0.13750  0.76930  Biso   1.000  C
  C23      1.0000 0.12540  0.77650  0.12530  Biso   1.000  C
  C24      1.0000 0.87460  0.22350  0.87470  Biso   1.000  C
  H5       1.0000 0.02570  0.76880  0.10400  Biso   1.000  H
  H6       1.0000 0.97430  0.23120  0.89600  Biso   1.000  H
  H7       1.0000 0.14750  0.70850  0.13680  Biso   1.000  H
  H8       1.0000 0.85250  0.29150  0.86320  Biso   1.000  H
  H9       1.0000 0.15550  0.79750  0.06830  Biso   1.000  H
  H10      1.0000 0.84450  0.20250  0.93170  Biso   1.000  H
  C25      1.0000 0.13320  0.84070  0.31200  Biso   1.000  C
  C26      1.0000 0.86680  0.15930  0.68800  Biso   1.000  C
  H11      1.0000 0.17950  0.89550  0.37870  Biso   1.000  H
  H12      1.0000 0.82050  0.10450  0.62130  Biso   1.000  H
  H13      1.0000 0.14120  0.77080  0.32720  Biso   1.000  H
  H14      1.0000 0.85880  0.22920  0.67280  Biso   1.000  H
  H15      1.0000 0.03570  0.84180  0.28260  Biso   1.000  H
  H16      1.0000 0.96430  0.15820  0.71740  Biso   1.000  H
  C27      1.0000 0.35710  0.88340  0.27410  Biso   1.000  C
  C28      1.0000 0.64290  0.11660  0.72590  Biso   1.000  C
  C29      1.0000 0.41920  0.86990  0.18600  Biso   1.000  C
  C30      1.0000 0.58080  0.13010  0.81400  Biso   1.000  C
  H17      1.0000 0.51970  0.88470  0.21930  Biso   1.000  H
  H18      1.0000 0.48030  0.11530  0.78070  Biso   1.000  H
  H19      1.0000 0.39390  0.91950  0.13950  Biso   1.000  H
  H20      1.0000 0.60610  0.08050  0.86050  Biso   1.000  H
  H21      1.0000 0.38380  0.79690  0.14290  Biso   1.000  H
  H22      1.0000 0.61620  0.20310  0.85710  Biso   1.000  H
  C31      1.0000 0.41820  0.82670  0.36080  Biso   1.000  C
  C32      1.0000 0.58180  0.17330  0.63920  Biso   1.000  C
  H23      1.0000 0.51880  0.84550  0.38340  Biso   1.000  H
  H24      1.0000 0.48120  0.15450  0.61660  Biso   1.000  H
  H25      1.0000 0.38410  0.74980  0.33280  Biso   1.000  H
  H26      1.0000 0.61590  0.25020  0.66720  Biso   1.000  H
  H27      1.0000 0.39150  0.84810  0.42260  Biso   1.000  H
  H28      1.0000 0.60850  0.15190  0.57740  Biso   1.000  H
  N3       1.0000 0.39340  0.00090  0.31960  Biso   1.000  N
  N4       1.0000 0.60660  0.99910  0.68040  Biso   1.000  N
  O11      1.0000 0.51360  0.05200  0.38330  Biso   1.000  O
  O12      1.0000 0.48640  0.94800  0.61670  Biso   1.000  O
  C33      1.0000 0.28780  0.04700  0.27650  Biso   1.000  C
  C34      1.0000 0.71220  0.95300  0.72350  Biso   1.000  C
  C35      1.0000 0.29140  0.15830  0.29920  Biso   1.000  C
  C36      1.0000 0.70860  0.84170  0.70080  Biso   1.000  C
  C37      1.0000 0.40190  0.24200  0.37180  Biso   1.000  C
  C38      1.0000 0.59810  0.75800  0.62820  Biso   1.000  C
  H29      1.0000 0.48950  0.23310  0.41300  Biso   1.000  H
  H30      1.0000 0.51050  0.76690  0.58700  Biso   1.000  H
  N5       1.0000 0.36580  0.33510  0.37410  Biso   1.000  N
  N6       1.0000 0.63420  0.66490  0.62590  Biso   1.000  N
  N7       1.0000 0.23490  0.31140  0.30550  Biso   1.000  N
  N8       1.0000 0.76510  0.68860  0.69450  Biso   1.000  N
  C39      1.0000 0.16020  0.39730  0.28900  Biso   1.000  C
  C40      1.0000 0.83980  0.60270  0.71100  Biso   1.000  C
  H31      1.0000 0.22780  0.46420  0.29950  Biso   1.000  H
  H32      1.0000 0.77220  0.53580  0.70050  Biso   1.000  H
  H33      1.0000 0.11910  0.40760  0.34510  Biso   1.000  H
  H34      1.0000 0.88090  0.59240  0.65490  Biso   1.000  H
  C41      1.0000 0.04900  0.37820  0.18130  Biso   1.000  C
  C42      1.0000 0.95100  0.62180  0.81870  Biso   1.000  C
  H35      1.0000 0.97760  0.31370  0.17100  Biso   1.000  H
  H36      1.0000 0.02240  0.68630  0.82900  Biso   1.000  H
  H37      1.0000 0.08790  0.36650  0.12400  Biso   1.000  H
  H38      1.0000 0.91210  0.63350  0.87600  Biso   1.000  H
  C43      1.0000 0.98410  0.47390  0.17330  Biso   1.000  C
  C44      1.0000 0.01590  0.52610  0.82670  Biso   1.000  C
  H39      1.0000 0.95460  0.48920  0.23550  Biso   1.000  H
  H40      1.0000 0.04540  0.51080  0.76450  Biso   1.000  H
  H41      1.0000 0.05520  0.53660  0.17840  Biso   1.000  H
  H42      1.0000 0.94480  0.46340  0.82160  Biso   1.000  H
  C45      1.0000 0.86160  0.45910  0.07070  Biso   1.000  C
  C46      1.0000 0.13840  0.54090  0.92930  Biso   1.000  C
  H43      1.0000 0.82580  0.52330  0.07180  Biso   1.000  H
  H44      1.0000 0.17420  0.47670  0.92820  Biso   1.000  H
  H45      1.0000 0.78960  0.39820  0.06550  Biso   1.000  H
  H46      1.0000 0.21040  0.60180  0.93450  Biso   1.000  H
  H47      1.0000 0.89020  0.44610  0.00850  Biso   1.000  H
  H48      1.0000 0.10980  0.55390  0.99150  Biso   1.000  H
  C47      1.0000 0.18480  0.20700  0.26000  Biso   1.000  C
  C48      1.0000 0.81520  0.79300  0.74000  Biso   1.000  C
  H49      1.0000 0.09440  0.17350  0.21080  Biso   1.000  H
  H50      1.0000 0.90560  0.82650  0.78920  Biso   1.000  H
  C49      1.0000 0.12810  0.22080  0.53390  Biso   1.000  C
  C50      1.0000 0.87190  0.77920  0.46610  Biso   1.000  C
  F25      1.0000 0.06930  0.26680  0.45530  Biso   1.000  F
  F26      1.0000 0.93070  0.73320  0.54470  Biso   1.000  F
  F27      1.0000 0.12370  0.27600  0.62520  Biso   1.000  F
  F28      1.0000 0.87630  0.72400  0.37480  Biso   1.000  F
  F29      1.0000 0.26290  0.23670  0.54770  Biso   1.000  F
  F30      1.0000 0.73710  0.76330  0.45230  Biso   1.000  F
  C51      1.0000 0.06140  0.10490  0.51430  Biso   1.000  C
  C52      1.0000 0.93860  0.89510  0.48570  Biso   1.000  C
  C53      1.0000 0.92920  0.06550  0.44590  Biso   1.000  C
  C54      1.0000 0.07080  0.93450  0.55410  Biso   1.000  C
  H51      1.0000 0.88060  0.11040  0.40740  Biso   1.000  H
  H52      1.0000 0.11940  0.88960  0.59260  Biso   1.000  H
  C55      1.0000 0.13460  0.03880  0.56810  Biso   1.000  C
  C56      1.0000 0.86540  0.96120  0.43190  Biso   1.000  C
  H53      1.0000 0.22820  0.06570  0.61420  Biso   1.000  H
  H54      1.0000 0.77180  0.93430  0.38580  Biso   1.000  H
  F31      1.0000 0.75300  0.68240  0.00430  Biso   1.000  F
  F32      1.0000 0.24700  0.31760  0.99570  Biso   1.000  F
  F33      1.0000 0.60110  0.71280  0.86720  Biso   1.000  F
  F34      1.0000 0.39890  0.28720  0.13280  Biso   1.000  F
