data_image0
_cell_length_a       10.3612
_cell_length_b       13.0926
_cell_length_c       13.62
_cell_angle_alpha    98.996
_cell_angle_beta     104.929
_cell_angle_gamma    103.443

_symmetry_space_group_name_H-M    "P 1"
_symmetry_int_tables_number       1

loop_
  _symmetry_equiv_pos_as_xyz
  'x, y, z'

loop_
  _atom_site_label
  _atom_site_occupancy
  _atom_site_fract_x
  _atom_site_fract_y
  _atom_site_fract_z
  _atom_site_thermal_displace_type
  _atom_site_B_iso_or_equiv
  _atom_site_type_symbol
  Cu1      1.0000 0.50000  0.50000  0.50000  Biso   1.000  Cu
  O1       1.0000 0.66517  0.64416  0.54073  Biso   1.000  O
  O2       1.0000 0.33483  0.35584  0.45927  Biso   1.000  O
  C1       1.0000 0.85850  0.77300  0.53511  Biso   1.000  C
  C2       1.0000 0.14150  0.22700  0.46489  Biso   1.000  C
  F1       1.0000 0.78228  0.83786  0.50820  Biso   1.000  F
  F2       1.0000 0.21772  0.16214  0.49180  Biso   1.000  F
  F3       1.0000 0.92210  0.80467  0.63666  Biso   1.000  F
  F4       1.0000 0.07790  0.19533  0.36334  Biso   1.000  F
  F5       1.0000 0.95638  0.78851  0.48809  Biso   1.000  F
  F6       1.0000 0.04362  0.21149  0.51191  Biso   1.000  F
  C3       1.0000 0.76850  0.65582  0.50764  Biso   1.000  C
  C4       1.0000 0.23150  0.34418  0.49236  Biso   1.000  C
  C5       1.0000 0.80930  0.57675  0.45292  Biso   1.000  C
  C6       1.0000 0.19070  0.42325  0.54708  Biso   1.000  C
  H1       1.0000 0.88680  0.59820  0.42810  Biso   1.000  H
  H2       1.0000 0.11320  0.40180  0.57190  Biso   1.000  H
  C7       1.0000 0.74110  0.46781  0.43322  Biso   1.000  C
  C8       1.0000 0.25890  0.53219  0.56678  Biso   1.000  C
  C9       1.0000 0.79510  0.38760  0.37403  Biso   1.000  C
  C10      1.0000 0.20490  0.61240  0.62597  Biso   1.000  C
  F7       1.0000 0.81600  0.30980  0.43400  Biso   1.000  F
  F8       1.0000 0.18400  0.69020  0.56600  Biso   1.000  F
  F9       1.0000 0.69500  0.33820  0.28410  Biso   1.000  F
  F10      1.0000 0.30500  0.66180  0.71590  Biso   1.000  F
  F11      1.0000 0.90200  0.42770  0.35900  Biso   1.000  F
  F12      1.0000 0.09800  0.57230  0.64100  Biso   1.000  F
  O3       1.0000 0.63730  0.42267  0.45863  Biso   1.000  O
  O4       1.0000 0.36270  0.57733  0.54137  Biso   1.000  O
  Cu2      1.0000 0.00000  0.00000  0.00000  Biso   1.000  Cu
  O5       1.0000 0.98473  0.93435  0.11993  Biso   1.000  O
  O6       1.0000 0.01527  0.06565  0.88007  Biso   1.000  O
  C11      1.0000 0.93680  0.90930  0.27380  Biso   1.000  C
  C12      1.0000 0.06320  0.09070  0.72620  Biso   1.000  C
  F13      1.0000 0.06350  0.93880  0.32910  Biso   1.000  F
  F14      1.0000 0.93650  0.06120  0.67090  Biso   1.000  F
  F15      1.0000 0.91700  0.81160  0.25950  Biso   1.000  F
  F16      1.0000 0.08300  0.18840  0.74050  Biso   1.000  F
  F17      1.0000 0.85640  0.93130  0.32850  Biso   1.000  F
  F18      1.0000 0.14360  0.06870  0.67150  Biso   1.000  F
  C13      1.0000 0.91440  0.95743  0.17708  Biso   1.000  C
  C14      1.0000 0.08560  0.04257  0.82292  Biso   1.000  C
  C15      1.0000 0.82020  0.01787  0.16285  Biso   1.000  C
  C16      1.0000 0.17980  0.98213  0.83715  Biso   1.000  C
  H3       1.0000 0.77280  0.02830  0.21310  Biso   1.000  H
  H4       1.0000 0.22720  0.97170  0.78690  Biso   1.000  H
  C17      1.0000 0.79360  0.06335  0.07736  Biso   1.000  C
  C18      1.0000 0.20640  0.93665  0.92264  Biso   1.000  C
  C19      1.0000 0.69160  0.13144  0.06709  Biso   1.000  C
  C20      1.0000 0.30840  0.86856  0.93291  Biso   1.000  C
  F19      1.0000 0.75942  0.23451  0.08153  Biso   1.000  F
  F20      1.0000 0.24058  0.76549  0.91847  Biso   1.000  F
  F21      1.0000 0.61400  0.13200  0.13250  Biso   1.000  F
  F22      1.0000 0.38600  0.86800  0.86750  Biso   1.000  F
  F23      1.0000 0.60900  0.10700  0.97190  Biso   1.000  F
  F24      1.0000 0.39100  0.89300  0.02810  Biso   1.000  F
  O7       1.0000 0.84632  0.05968  0.00389  Biso   1.000  O
  O8       1.0000 0.15368  0.94032  0.99611  Biso   1.000  O
  O9       1.0000 0.53649  0.48421  0.65023  Biso   1.000  O
  O10      1.0000 0.46351  0.51579  0.34977  Biso   1.000  O
  N1       1.0000 0.64931  0.46681  0.70601  Biso   1.000  N
  N2       1.0000 0.35069  0.53319  0.29399  Biso   1.000  N
  C21      1.0000 0.65240  0.35601  0.72148  Biso   1.000  C
  C22      1.0000 0.34760  0.64399  0.27852  Biso   1.000  C
  C23      1.0000 0.56180  0.32987  0.79201  Biso   1.000  C
  C24      1.0000 0.43820  0.67013  0.20799  Biso   1.000  C
  H5       1.0000 0.60270  0.38200  0.85960  Biso   1.000  H
  H6       1.0000 0.39730  0.61800  0.14040  Biso   1.000  H
  H7       1.0000 0.46780  0.33400  0.75900  Biso   1.000  H
  H8       1.0000 0.53220  0.66600  0.24100  Biso   1.000  H
  H9       1.0000 0.55690  0.25690  0.80260  Biso   1.000  H
  H10      1.0000 0.44310  0.74310  0.19740  Biso   1.000  H
  C25      1.0000 0.59340  0.27341  0.61787  Biso   1.000  C
  C26      1.0000 0.40660  0.72659  0.38213  Biso   1.000  C
  H11      1.0000 0.49280  0.26290  0.59070  Biso   1.000  H
  H12      1.0000 0.50720  0.73710  0.40930  Biso   1.000  H
  H13      1.0000 0.63870  0.29930  0.56790  Biso   1.000  H
  H14      1.0000 0.36130  0.70070  0.43210  Biso   1.000  H
  H15      1.0000 0.61060  0.20470  0.62810  Biso   1.000  H
  H16      1.0000 0.38940  0.79530  0.37190  Biso   1.000  H
  C27      1.0000 0.81130  0.37729  0.77631  Biso   1.000  C
  C28      1.0000 0.18870  0.62271  0.22369  Biso   1.000  C
  C29      1.0000 0.89470  0.36354  0.69987  Biso   1.000  C
  C30      1.0000 0.10530  0.63646  0.30013  Biso   1.000  C
  H17      1.0000 0.99350  0.37940  0.73890  Biso   1.000  H
  H18      1.0000 0.00650  0.62060  0.26110  Biso   1.000  H
  H19      1.0000 0.86050  0.28910  0.65810  Biso   1.000  H
  H20      1.0000 0.13950  0.71090  0.34190  Biso   1.000  H
  H21      1.0000 0.88340  0.41330  0.65360  Biso   1.000  H
  H22      1.0000 0.11660  0.58670  0.34640  Biso   1.000  H
  C31      1.0000 0.84810  0.31783  0.86182  Biso   1.000  C
  C32      1.0000 0.15190  0.68217  0.13818  Biso   1.000  C
  H23      1.0000 0.94970  0.33540  0.89030  Biso   1.000  H
  H24      1.0000 0.05030  0.66460  0.10970  Biso   1.000  H
  H25      1.0000 0.80950  0.33980  0.91760  Biso   1.000  H
  H26      1.0000 0.19050  0.66020  0.08240  Biso   1.000  H
  H27      1.0000 0.80890  0.23990  0.83290  Biso   1.000  H
  H28      1.0000 0.19110  0.76010  0.16710  Biso   1.000  H
  N3       1.0000 0.85164  0.49629  0.82299  Biso   1.000  N
  N4       1.0000 0.14836  0.50371  0.17701  Biso   1.000  N
  O11      1.0000 0.96861  0.54603  0.89019  Biso   1.000  O
  O12      1.0000 0.03139  0.45397  0.10981  Biso   1.000  O
  C33      1.0000 0.75710  0.54379  0.77447  Biso   1.000  C
  C34      1.0000 0.24290  0.45621  0.22553  Biso   1.000  C
  C35      1.0000 0.77140  0.65714  0.79830  Biso   1.000  C
  C36      1.0000 0.22860  0.34286  0.20170  Biso   1.000  C
  C37      1.0000 0.88260  0.74003  0.87134  Biso   1.000  C
  C38      1.0000 0.11740  0.25997  0.12866  Biso   1.000  C
  H29      1.0000 0.96480  0.72920  0.91330  Biso   1.000  H
  H30      1.0000 0.03520  0.27080  0.08670  Biso   1.000  H
  N5       1.0000 0.85760  0.83492  0.87387  Biso   1.000  N
  N6       1.0000 0.14240  0.16508  0.12613  Biso   1.000  N
  N7       1.0000 0.72990  0.81415  0.80155  Biso   1.000  N
  N8       1.0000 0.27010  0.18585  0.19845  Biso   1.000  N
  C39      1.0000 0.67120  0.90394  0.78573  Biso   1.000  C
  C40      1.0000 0.32880  0.09606  0.21427  Biso   1.000  C
  H31      1.0000 0.63800  0.92530  0.84560  Biso   1.000  H
  H32      1.0000 0.36200  0.07470  0.15440  Biso   1.000  H
  H33      1.0000 0.74620  0.96640  0.78530  Biso   1.000  H
  H34      1.0000 0.25380  0.03360  0.21470  Biso   1.000  H
  C41      1.0000 0.55290  0.87933  0.68675  Biso   1.000  C
  C42      1.0000 0.44710  0.12067  0.31325  Biso   1.000  C
  H35      1.0000 0.58410  0.85610  0.62620  Biso   1.000  H
  H36      1.0000 0.41590  0.14390  0.37380  Biso   1.000  H
  H37      1.0000 0.47520  0.81950  0.68780  Biso   1.000  H
  H38      1.0000 0.52480  0.18050  0.31220  Biso   1.000  H
  C43      1.0000 0.50270  0.97817  0.67513  Biso   1.000  C
  C44      1.0000 0.49730  0.02183  0.32487  Biso   1.000  C
  H39      1.0000 0.57850  0.03480  0.66680  Biso   1.000  H
  H40      1.0000 0.42150  0.96520  0.33320  Biso   1.000  H
  H41      1.0000 0.48370  0.00620  0.74020  Biso   1.000  H
  H42      1.0000 0.51630  0.99380  0.25980  Biso   1.000  H
  C45      1.0000 0.37330  0.95770  0.58398  Biso   1.000  C
  C46      1.0000 0.62670  0.04230  0.41602  Biso   1.000  C
  H43      1.0000 0.34910  0.02540  0.58030  Biso   1.000  H
  H44      1.0000 0.65090  0.97460  0.41970  Biso   1.000  H
  H45      1.0000 0.39070  0.92960  0.51910  Biso   1.000  H
  H46      1.0000 0.60930  0.07040  0.48090  Biso   1.000  H
  H47      1.0000 0.29600  0.90480  0.59340  Biso   1.000  H
  H48      1.0000 0.70400  0.09520  0.40660  Biso   1.000  H
  C47      1.0000 0.67600  0.71012  0.75682  Biso   1.000  C
  C48      1.0000 0.32400  0.28988  0.24318  Biso   1.000  C
  H49      1.0000 0.58780  0.67740  0.70550  Biso   1.000  H
  H50      1.0000 0.41220  0.32260  0.29450  Biso   1.000  H
  C49      1.0000 0.42860  0.59756  0.92704  Biso   1.000  C
  C50      1.0000 0.57140  0.40244  0.07296  Biso   1.000  C
  H51      1.0000 0.42770  0.66540  0.91030  Biso   1.000  H
  H52      1.0000 0.57230  0.33460  0.08970  Biso   1.000  H
  C51      1.0000 0.30310  0.51540  0.90840  Biso   1.000  C
  C52      1.0000 0.69690  0.48460  0.09160  Biso   1.000  C
  H53      1.0000 0.22620  0.53940  0.91730  Biso   1.000  H
  H54      1.0000 0.77380  0.46060  0.08270  Biso   1.000  H
  C53      1.0000 0.31170  0.42840  0.94260  Biso   1.000  C
  C54      1.0000 0.68830  0.57160  0.05740  Biso   1.000  C
  H55      1.0000 0.22890  0.37200  0.93060  Biso   1.000  H
  H56      1.0000 0.77110  0.62800  0.06940  Biso   1.000  H
  C55      1.0000 0.44000  0.41450  0.00040  Biso   1.000  C
  C56      1.0000 0.56000  0.58550  0.99960  Biso   1.000  C
  C57      1.0000 0.43350  0.30810  0.03060  Biso   1.000  C
  C58      1.0000 0.56650  0.69190  0.96940  Biso   1.000  C
  H57      1.0000 0.51130  0.29430  0.07350  Biso   1.000  H
  H58      1.0000 0.48870  0.70570  0.92650  Biso   1.000  H
  H59      1.0000 0.40280  0.25810  0.96540  Biso   1.000  H
  H60      1.0000 0.59720  0.74190  0.03460  Biso   1.000  H
  H61      1.0000 0.36100  0.29980  0.06180  Biso   1.000  H
  H62      1.0000 0.63900  0.70020  0.93820  Biso   1.000  H
  C59      1.0000 0.55870  0.49910  0.03290  Biso   1.000  C
  C60      1.0000 0.44130  0.50090  0.96710  Biso   1.000  C
  C61      1.0000 0.68580  0.48600  0.10150  Biso   1.000  C
  C62      1.0000 0.31420  0.51400  0.89850  Biso   1.000  C
  H63      1.0000 0.75750  0.55240  0.11870  Biso   1.000  H
  H64      1.0000 0.24250  0.44760  0.88130  Biso   1.000  H
  H65      1.0000 0.71480  0.42870  0.06960  Biso   1.000  H
  H66      1.0000 0.28520  0.57130  0.93040  Biso   1.000  H
  H67      1.0000 0.66610  0.47100  0.16230  Biso   1.000  H
  H68      1.0000 0.33390  0.52900  0.83770  Biso   1.000  H
  C63      1.0000 0.55800  0.59700  0.99510  Biso   1.000  C
  C64      1.0000 0.44200  0.40300  0.00490  Biso   1.000  C
  C65      1.0000 0.68220  0.68920  0.03230  Biso   1.000  C
  C66      1.0000 0.31780  0.31080  0.96770  Biso   1.000  C
  H69      1.0000 0.75850  0.67400  0.07560  Biso   1.000  H
  H70      1.0000 0.24150  0.32600  0.92440  Biso   1.000  H
  H71      1.0000 0.65940  0.74680  0.06990  Biso   1.000  H
  H72      1.0000 0.34060  0.25320  0.93010  Biso   1.000  H
  H73      1.0000 0.70620  0.70970  0.97460  Biso   1.000  H
  H74      1.0000 0.29380  0.29030  0.02540  Biso   1.000  H
  F25      1.0000 0.59000  0.09800  0.97180  Biso   1.000  F
  F26      1.0000 0.41000  0.90200  0.02820  Biso   1.000  F
  F27      1.0000 0.62500  0.11800  0.13740  Biso   1.000  F
  F28      1.0000 0.37500  0.88200  0.86260  Biso   1.000  F
  F29      1.0000 0.16800  0.67890  0.57860  Biso   1.000  F
  F30      1.0000 0.83200  0.32110  0.42140  Biso   1.000  F
  F31      1.0000 0.29700  0.67340  0.71660  Biso   1.000  F
  F32      1.0000 0.70300  0.32660  0.28340  Biso   1.000  F
  F33      1.0000 0.08200  0.56520  0.65500  Biso   1.000  F
  F34      1.0000 0.91800  0.43480  0.34500  Biso   1.000  F
  F35      1.0000 0.86930  0.80530  0.24370  Biso   1.000  F
  F36      1.0000 0.13070  0.19470  0.75630  Biso   1.000  F
  F37      1.0000 0.91920  0.07280  0.68000  Biso   1.000  F
  F38      1.0000 0.08080  0.92720  0.32000  Biso   1.000  F
  F39      1.0000 0.91070  0.96180  0.35280  Biso   1.000  F
  F40      1.0000 0.08930  0.03820  0.64720  Biso   1.000  F
