data_image0
_cell_length_a       10.61
_cell_length_b       13.202
_cell_length_c       14.083
_cell_angle_alpha    100.35
_cell_angle_beta     103.84
_cell_angle_gamma    103.09

_symmetry_space_group_name_H-M    "P 1"
_symmetry_int_tables_number       1

loop_
  _symmetry_equiv_pos_as_xyz
  'x, y, z'

loop_
  _atom_site_label
  _atom_site_occupancy
  _atom_site_fract_x
  _atom_site_fract_y
  _atom_site_fract_z
  _atom_site_thermal_displace_type
  _atom_site_B_iso_or_equiv
  _atom_site_type_symbol
  Cu1      1.0000 0.50000  0.50000  0.50000  Biso   1.000  Cu
  O1       1.0000 0.64490  0.63751  0.53054  Biso   1.000  O
  O2       1.0000 0.35510  0.36249  0.46946  Biso   1.000  O
  C1       1.0000 0.83610  0.76600  0.52870  Biso   1.000  C
  C2       1.0000 0.16390  0.23400  0.47130  Biso   1.000  C
  F1       1.0000 0.87040  0.81080  0.62420  Biso   1.000  F
  F2       1.0000 0.12960  0.18920  0.37580  Biso   1.000  F
  F3       1.0000 0.76590  0.82818  0.50260  Biso   1.000  F
  F4       1.0000 0.23410  0.17182  0.49740  Biso   1.000  F
  F5       1.0000 0.94100  0.77750  0.50150  Biso   1.000  F
  F6       1.0000 0.05900  0.22250  0.49850  Biso   1.000  F
  C3       1.0000 0.74820  0.64960  0.50130  Biso   1.000  C
  C4       1.0000 0.25180  0.35040  0.49870  Biso   1.000  C
  C5       1.0000 0.79300  0.57040  0.45350  Biso   1.000  C
  C6       1.0000 0.20700  0.42960  0.54650  Biso   1.000  C
  H1       1.0000 0.87180  0.59000  0.43500  Biso   1.000  H
  H2       1.0000 0.12820  0.41000  0.56500  Biso   1.000  H
  C7       1.0000 0.72500  0.46350  0.43230  Biso   1.000  C
  C8       1.0000 0.27500  0.53650  0.56770  Biso   1.000  C
  C9       1.0000 0.78610  0.38410  0.38420  Biso   1.000  C
  C10      1.0000 0.21390  0.61590  0.61580  Biso   1.000  C
  F7       1.0000 0.89450  0.42480  0.36070  Biso   1.000  F
  F8       1.0000 0.10550  0.57520  0.63930  Biso   1.000  F
  F9       1.0000 0.69870  0.32240  0.29987  Biso   1.000  F
  F10      1.0000 0.30130  0.67760  0.70013  Biso   1.000  F
  F11      1.0000 0.81460  0.31940  0.43850  Biso   1.000  F
  F12      1.0000 0.18540  0.68060  0.56150  Biso   1.000  F
  O3       1.0000 0.61988  0.42076  0.45326  Biso   1.000  O
  O4       1.0000 0.38012  0.57924  0.54674  Biso   1.000  O
  Cu2      1.0000 0.00000  0.00000  0.00000  Biso   1.000  Cu
  O5       1.0000 0.97960  0.93547  0.11571  Biso   1.000  O
  O6       1.0000 0.02040  0.06453  0.88429  Biso   1.000  O
  C11      1.0000 0.91900  0.90990  0.26130  Biso   1.000  C
  C12      1.0000 0.08100  0.09010  0.73870  Biso   1.000  C
  F13      1.0000 0.06600  0.92810  0.30980  Biso   1.000  F
  F14      1.0000 0.93400  0.07190  0.69020  Biso   1.000  F
  F15      1.0000 0.88650  0.95440  0.33500  Biso   1.000  F
  F16      1.0000 0.11350  0.04560  0.66500  Biso   1.000  F
  F17      1.0000 0.89050  0.81030  0.24750  Biso   1.000  F
  F18      1.0000 0.10950  0.18970  0.75250  Biso   1.000  F
  C13      1.0000 0.90650  0.95760  0.16850  Biso   1.000  C
  C14      1.0000 0.09350  0.04240  0.83150  Biso   1.000  C
  C15      1.0000 0.81710  0.01850  0.15320  Biso   1.000  C
  C16      1.0000 0.18290  0.98150  0.84680  Biso   1.000  C
  H3       1.0000 0.76810  0.02840  0.19900  Biso   1.000  H
  H4       1.0000 0.23190  0.97160  0.80100  Biso   1.000  H
  C17      1.0000 0.79690  0.06570  0.07220  Biso   1.000  C
  C18      1.0000 0.20310  0.93430  0.92780  Biso   1.000  C
  C19      1.0000 0.69710  0.13270  0.06240  Biso   1.000  C
  C20      1.0000 0.30290  0.86730  0.93760  Biso   1.000  C
  F19      1.0000 0.76410  0.23417  0.08390  Biso   1.000  F
  F20      1.0000 0.23590  0.76583  0.91610  Biso   1.000  F
  F21      1.0000 0.60510  0.09760  0.97690  Biso   1.000  F
  F22      1.0000 0.39490  0.90240  0.02310  Biso   1.000  F
  F23      1.0000 0.62330  0.12680  0.12370  Biso   1.000  F
  F24      1.0000 0.37670  0.87320  0.87630  Biso   1.000  F
  O7       1.0000 0.85320  0.06315  0.00369  Biso   1.000  O
  O8       1.0000 0.14680  0.93685  0.99631  Biso   1.000  O
  O9       1.0000 0.55260  0.48662  0.66234  Biso   1.000  O
  O10      1.0000 0.44740  0.51338  0.33766  Biso   1.000  O
  N1       1.0000 0.66060  0.47136  0.71756  Biso   1.000  N
  N2       1.0000 0.33940  0.52864  0.28244  Biso   1.000  N
  C21      1.0000 0.66670  0.36120  0.73100  Biso   1.000  C
  C22      1.0000 0.33330  0.63880  0.26900  Biso   1.000  C
  C23      1.0000 0.57470  0.33210  0.79620  Biso   1.000  C
  C24      1.0000 0.42530  0.66790  0.20380  Biso   1.000  C
  H5       1.0000 0.61140  0.38070  0.86200  Biso   1.000  H
  H6       1.0000 0.38860  0.61930  0.13800  Biso   1.000  H
  H7       1.0000 0.48610  0.33730  0.76530  Biso   1.000  H
  H8       1.0000 0.51390  0.66270  0.23470  Biso   1.000  H
  H9       1.0000 0.56870  0.26000  0.80240  Biso   1.000  H
  H10      1.0000 0.43130  0.74000  0.19760  Biso   1.000  H
  C25      1.0000 0.61180  0.28170  0.62740  Biso   1.000  C
  C26      1.0000 0.38820  0.71830  0.37260  Biso   1.000  C
  H11      1.0000 0.51630  0.27190  0.60180  Biso   1.000  H
  H12      1.0000 0.48370  0.72810  0.39820  Biso   1.000  H
  H13      1.0000 0.65670  0.30930  0.58190  Biso   1.000  H
  H14      1.0000 0.34330  0.69070  0.41810  Biso   1.000  H
  H15      1.0000 0.62780  0.21410  0.63340  Biso   1.000  H
  H16      1.0000 0.37220  0.78590  0.36660  Biso   1.000  H
  C27      1.0000 0.81980  0.38520  0.78360  Biso   1.000  C
  C28      1.0000 0.18020  0.61480  0.21640  Biso   1.000  C
  C29      1.0000 0.90260  0.37450  0.70790  Biso   1.000  C
  C30      1.0000 0.09740  0.62550  0.29210  Biso   1.000  C
  H17      1.0000 0.99650  0.38970  0.74400  Biso   1.000  H
  H18      1.0000 0.00350  0.61030  0.25600  Biso   1.000  H
  H19      1.0000 0.87100  0.30280  0.66560  Biso   1.000  H
  H20      1.0000 0.12900  0.69720  0.33440  Biso   1.000  H
  H21      1.0000 0.89200  0.42450  0.66680  Biso   1.000  H
  H22      1.0000 0.10800  0.57550  0.33320  Biso   1.000  H
  C31      1.0000 0.85910  0.32660  0.86380  Biso   1.000  C
  C32      1.0000 0.14090  0.67340  0.13620  Biso   1.000  C
  H23      1.0000 0.95590  0.34510  0.88900  Biso   1.000  H
  H24      1.0000 0.04410  0.65490  0.11100  Biso   1.000  H
  H25      1.0000 0.82260  0.34680  0.91810  Biso   1.000  H
  H26      1.0000 0.17740  0.65320  0.08190  Biso   1.000  H
  H27      1.0000 0.82370  0.25060  0.83520  Biso   1.000  H
  H28      1.0000 0.17630  0.74940  0.16480  Biso   1.000  H
  N3       1.0000 0.85600  0.50288  0.83050  Biso   1.000  N
  N4       1.0000 0.14400  0.49712  0.16950  Biso   1.000  N
  O11      1.0000 0.97030  0.55328  0.89400  Biso   1.000  O
  O12      1.0000 0.02970  0.44672  0.10600  Biso   1.000  O
  C33      1.0000 0.76360  0.54730  0.78440  Biso   1.000  C
  C34      1.0000 0.23640  0.45270  0.21560  Biso   1.000  C
  C35      1.0000 0.77620  0.66070  0.80560  Biso   1.000  C
  C36      1.0000 0.22380  0.33930  0.19440  Biso   1.000  C
  C37      1.0000 0.87980  0.74230  0.87870  Biso   1.000  C
  C38      1.0000 0.12020  0.25770  0.12130  Biso   1.000  C
  H29      1.0000 0.95490  0.73200  0.92160  Biso   1.000  H
  H30      1.0000 0.04510  0.26800  0.07840  Biso   1.000  H
  N5       1.0000 0.85560  0.83669  0.87812  Biso   1.000  N
  N6       1.0000 0.14440  0.16331  0.12188  Biso   1.000  N
  N7       1.0000 0.73530  0.81579  0.80675  Biso   1.000  N
  N8       1.0000 0.26470  0.18421  0.19325  Biso   1.000  N
  C39      1.0000 0.68030  0.90330  0.78600  Biso   1.000  C
  C40      1.0000 0.31970  0.09670  0.21400  Biso   1.000  C
  H31      1.0000 0.75430  0.96080  0.78410  Biso   1.000  H
  H32      1.0000 0.24570  0.03920  0.21590  Biso   1.000  H
  H33      1.0000 0.65060  0.92960  0.84320  Biso   1.000  H
  H34      1.0000 0.34940  0.07040  0.15680  Biso   1.000  H
  C41      1.0000 0.57450  0.88590  0.69940  Biso   1.000  C
  C42      1.0000 0.42550  0.11410  0.30060  Biso   1.000  C
  H35      1.0000 0.60230  0.85790  0.64170  Biso   1.000  H
  H36      1.0000 0.39770  0.14210  0.35830  Biso   1.000  H
  H37      1.0000 0.49840  0.83070  0.70190  Biso   1.000  H
  H38      1.0000 0.50160  0.16930  0.29810  Biso   1.000  H
  C43      1.0000 0.52620  0.98140  0.68160  Biso   1.000  C
  C44      1.0000 0.47380  0.01860  0.31840  Biso   1.000  C
  H39      1.0000 0.59560  0.02980  0.66400  Biso   1.000  H
  H40      1.0000 0.40440  0.97020  0.33600  Biso   1.000  H
  H41      1.0000 0.51790  0.01890  0.74470  Biso   1.000  H
  H42      1.0000 0.48210  0.98110  0.25530  Biso   1.000  H
  C45      1.0000 0.40310  0.96090  0.60670  Biso   1.000  C
  C46      1.0000 0.59690  0.03910  0.39330  Biso   1.000  C
  H43      1.0000 0.38130  0.02710  0.60340  Biso   1.000  H
  H44      1.0000 0.61870  0.97290  0.39660  Biso   1.000  H
  H45      1.0000 0.41100  0.92800  0.54260  Biso   1.000  H
  H46      1.0000 0.58900  0.07200  0.45740  Biso   1.000  H
  H47      1.0000 0.33270  0.91350  0.62280  Biso   1.000  H
  H48      1.0000 0.66730  0.08650  0.37720  Biso   1.000  H
  C47      1.0000 0.68530  0.71068  0.76181  Biso   1.000  C
  C48      1.0000 0.31470  0.28932  0.23819  Biso   1.000  C
  H49      1.0000 0.60460  0.67780  0.71070  Biso   1.000  H
  H50      1.0000 0.39540  0.32220  0.28930  Biso   1.000  H
  C49      1.0000 0.55030  0.58451  0.99134  Biso   1.000  C
  C50      1.0000 0.44970  0.41549  0.00866  Biso   1.000  C
  C51      1.0000 0.44070  0.49307  0.96026  Biso   1.000  C
  C52      1.0000 0.55930  0.50693  0.03974  Biso   1.000  C
  C53      1.0000 0.44590  0.40785  0.00498  Biso   1.000  C
  C54      1.0000 0.55410  0.59215  0.99502  Biso   1.000  C
  C55      1.0000 0.56080  0.41405  0.08077  Biso   1.000  C
  C56      1.0000 0.43920  0.58595  0.91923  Biso   1.000  C
  H51      1.0000 0.56440  0.35520  0.11170  Biso   1.000  H
  H52      1.0000 0.43560  0.64480  0.88830  Biso   1.000  H
  C57      1.0000 0.67040  0.50548  0.11185  Biso   1.000  C
  C58      1.0000 0.32960  0.49452  0.88815  Biso   1.000  C
  H53      1.0000 0.74970  0.50980  0.16420  Biso   1.000  H
  H54      1.0000 0.25030  0.49020  0.83580  Biso   1.000  H
  C59      1.0000 0.66520  0.59071  0.06713  Biso   1.000  C
  C60      1.0000 0.33480  0.40929  0.93287  Biso   1.000  C
  H55      1.0000 0.74090  0.65390  0.08860  Biso   1.000  H
  H56      1.0000 0.25910  0.34610  0.91140  Biso   1.000  H
  C61      1.0000 0.53460  0.68067  0.95732  Biso   1.000  C
  C62      1.0000 0.46540  0.31933  0.04268  Biso   1.000  C
  H57      1.0000 0.45060  0.66300  0.90510  Biso   1.000  H
  H58      1.0000 0.54940  0.33700  0.09490  Biso   1.000  H
  H59      1.0000 0.60820  0.70740  0.93160  Biso   1.000  H
  H60      1.0000 0.39180  0.29260  0.06840  Biso   1.000  H
  H61      1.0000 0.53480  0.73470  0.01310  Biso   1.000  H
  H62      1.0000 0.46520  0.26530  0.98690  Biso   1.000  H
  C63      1.0000 0.30280  0.50570  0.91638  Biso   1.000  C
  C64      1.0000 0.69720  0.49430  0.08362  Biso   1.000  C
  H63      1.0000 0.23630  0.43720  0.89800  Biso   1.000  H
  H64      1.0000 0.76370  0.56280  0.10200  Biso   1.000  H
  H65      1.0000 0.30180  0.53310  0.85760  Biso   1.000  H
  H66      1.0000 0.69820  0.46690  0.14240  Biso   1.000  H
  H67      1.0000 0.28240  0.55480  0.96560  Biso   1.000  H
  H68      1.0000 0.71760  0.44520  0.03440  Biso   1.000  H
  C65      1.0000 0.33070  0.31193  0.97171  Biso   1.000  C
  C66      1.0000 0.66930  0.68807  0.02829  Biso   1.000  C
  H69      1.0000 0.26060  0.32100  0.91930  Biso   1.000  H
  H70      1.0000 0.73940  0.67900  0.08070  Biso   1.000  H
  H71      1.0000 0.29710  0.30080  0.02770  Biso   1.000  H
  H72      1.0000 0.70290  0.69920  0.97230  Biso   1.000  H
  H73      1.0000 0.35870  0.25090  0.94630  Biso   1.000  H
  H74      1.0000 0.64130  0.74910  0.05370  Biso   1.000  H
  F25      1.0000 0.63050  0.12370  0.97160  Biso   1.000  F
  F26      1.0000 0.36950  0.87630  0.02840  Biso   1.000  F
  F27      1.0000 0.08160  0.21540  0.37880  Biso   1.000  F
  F28      1.0000 0.91840  0.78460  0.62120  Biso   1.000  F
  F29      1.0000 0.08130  0.21710  0.53090  Biso   1.000  F
  F30      1.0000 0.91870  0.78290  0.46910  Biso   1.000  F
  F31      1.0000 0.77680  0.85970  0.25600  Biso   1.000  F
  F32      1.0000 0.22320  0.14030  0.74400  Biso   1.000  F
  F33      1.0000 0.94690  0.82970  0.24210  Biso   1.000  F
  F34      1.0000 0.05310  0.17030  0.75790  Biso   1.000  F
  F35      1.0000 0.95940  0.97410  0.33740  Biso   1.000  F
  F36      1.0000 0.04060  0.02590  0.66260  Biso   1.000  F
