data_image0
_cell_length_a       10.3066
_cell_length_b       13.097
_cell_length_c       13.5407
_cell_angle_alpha    99.057
_cell_angle_beta     104.945
_cell_angle_gamma    103.359

_symmetry_space_group_name_H-M    "P 1"
_symmetry_int_tables_number       1

loop_
  _symmetry_equiv_pos_as_xyz
  'x, y, z'

loop_
  _atom_site_label
  _atom_site_occupancy
  _atom_site_fract_x
  _atom_site_fract_y
  _atom_site_fract_z
  _atom_site_thermal_displace_type
  _atom_site_B_iso_or_equiv
  _atom_site_type_symbol
  Cu1      1.0000 0.50000  0.50000  0.50000  Biso   1.000  Cu
  O1       1.0000 0.66959  0.64736  0.54220  Biso   1.000  O
  O2       1.0000 0.33041  0.35264  0.45780  Biso   1.000  O
  C1       1.0000 0.86320  0.77510  0.53440  Biso   1.000  C
  C2       1.0000 0.13680  0.22490  0.46560  Biso   1.000  C
  F1       1.0000 0.78602  0.84036  0.50755  Biso   1.000  F
  F2       1.0000 0.21398  0.15964  0.49245  Biso   1.000  F
  F3       1.0000 0.92775  0.80853  0.63736  Biso   1.000  F
  F4       1.0000 0.07225  0.19147  0.36264  Biso   1.000  F
  F5       1.0000 0.96259  0.78991  0.48752  Biso   1.000  F
  F6       1.0000 0.03741  0.21009  0.51248  Biso   1.000  F
  C3       1.0000 0.77220  0.65810  0.50820  Biso   1.000  C
  C4       1.0000 0.22780  0.34190  0.49180  Biso   1.000  C
  C5       1.0000 0.81300  0.57800  0.45258  Biso   1.000  C
  C6       1.0000 0.18700  0.42200  0.54742  Biso   1.000  C
  H1       1.0000 0.89060  0.59870  0.42720  Biso   1.000  H
  H2       1.0000 0.10940  0.40130  0.57280  Biso   1.000  H
  C7       1.0000 0.74330  0.46920  0.43337  Biso   1.000  C
  C8       1.0000 0.25670  0.53080  0.56663  Biso   1.000  C
  C9       1.0000 0.79590  0.38830  0.37240  Biso   1.000  C
  C10      1.0000 0.20410  0.61170  0.62760  Biso   1.000  C
  F7       1.0000 0.81900  0.30880  0.43300  Biso   1.000  F
  F8       1.0000 0.18100  0.69120  0.56700  Biso   1.000  F
  F9       1.0000 0.70700  0.33330  0.27900  Biso   1.000  F
  F10      1.0000 0.29300  0.66670  0.72100  Biso   1.000  F
  F11      1.0000 0.90700  0.42800  0.35600  Biso   1.000  F
  F12      1.0000 0.09300  0.57200  0.64400  Biso   1.000  F
  O3       1.0000 0.63990  0.42448  0.46008  Biso   1.000  O
  O4       1.0000 0.36010  0.57552  0.53992  Biso   1.000  O
  Cu2      1.0000 0.00000  0.00000  0.00000  Biso   1.000  Cu
  O5       1.0000 0.98707  0.93510  0.12107  Biso   1.000  O
  O6       1.0000 0.01293  0.06490  0.87893  Biso   1.000  O
  C11      1.0000 0.94440  0.91380  0.27880  Biso   1.000  C
  C12      1.0000 0.05560  0.08620  0.72120  Biso   1.000  C
  F13      1.0000 0.07230  0.93020  0.32130  Biso   1.000  F
  F14      1.0000 0.92770  0.06980  0.67870  Biso   1.000  F
  F15      1.0000 0.86450  0.80160  0.24010  Biso   1.000  F
  F16      1.0000 0.13550  0.19840  0.75990  Biso   1.000  F
  F17      1.0000 0.90690  0.96060  0.35730  Biso   1.000  F
  F18      1.0000 0.09310  0.03940  0.64270  Biso   1.000  F
  C13      1.0000 0.91760  0.95889  0.17990  Biso   1.000  C
  C14      1.0000 0.08240  0.04111  0.82010  Biso   1.000  C
  C15      1.0000 0.82200  0.01917  0.16590  Biso   1.000  C
  C16      1.0000 0.17800  0.98083  0.83410  Biso   1.000  C
  H3       1.0000 0.77550  0.03010  0.21710  Biso   1.000  H
  H4       1.0000 0.22450  0.96990  0.78290  Biso   1.000  H
  C17      1.0000 0.79300  0.06353  0.07930  Biso   1.000  C
  C18      1.0000 0.20700  0.93647  0.92070  Biso   1.000  C
  C19      1.0000 0.68950  0.13110  0.06890  Biso   1.000  C
  C20      1.0000 0.31050  0.86890  0.93110  Biso   1.000  C
  F19      1.0000 0.75749  0.23462  0.08102  Biso   1.000  F
  F20      1.0000 0.24251  0.76538  0.91898  Biso   1.000  F
  F21      1.0000 0.61977  0.12660  0.13919  Biso   1.000  F
  F22      1.0000 0.38023  0.87340  0.86081  Biso   1.000  F
  F23      1.0000 0.58900  0.09720  0.97000  Biso   1.000  F
  F24      1.0000 0.41100  0.90280  0.03000  Biso   1.000  F
  O7       1.0000 0.84477  0.05883  0.00459  Biso   1.000  O
  O8       1.0000 0.15523  0.94117  0.99541  Biso   1.000  O
  O9       1.0000 0.53541  0.48406  0.64881  Biso   1.000  O
  O10      1.0000 0.46459  0.51594  0.35119  Biso   1.000  O
  N1       1.0000 0.64849  0.46637  0.70448  Biso   1.000  N
  N2       1.0000 0.35151  0.53363  0.29552  Biso   1.000  N
  C21      1.0000 0.65090  0.35474  0.71973  Biso   1.000  C
  C22      1.0000 0.34910  0.64526  0.28027  Biso   1.000  C
  C23      1.0000 0.55900  0.32970  0.79040  Biso   1.000  C
  C24      1.0000 0.44100  0.67030  0.20960  Biso   1.000  C
  H5       1.0000 0.60010  0.38200  0.85830  Biso   1.000  H
  H6       1.0000 0.39990  0.61800  0.14170  Biso   1.000  H
  H7       1.0000 0.46480  0.33420  0.75680  Biso   1.000  H
  H8       1.0000 0.53520  0.66580  0.24320  Biso   1.000  H
  H9       1.0000 0.55330  0.25680  0.80140  Biso   1.000  H
  H10      1.0000 0.44670  0.74320  0.19860  Biso   1.000  H
  C25      1.0000 0.59200  0.27187  0.61593  Biso   1.000  C
  C26      1.0000 0.40800  0.72813  0.38407  Biso   1.000  C
  H11      1.0000 0.49080  0.26120  0.58850  Biso   1.000  H
  H12      1.0000 0.50920  0.73880  0.41150  Biso   1.000  H
  H13      1.0000 0.63740  0.29750  0.56560  Biso   1.000  H
  H14      1.0000 0.36260  0.70250  0.43440  Biso   1.000  H
  H15      1.0000 0.60960  0.20340  0.62660  Biso   1.000  H
  H16      1.0000 0.39040  0.79660  0.37340  Biso   1.000  H
  C27      1.0000 0.81050  0.37576  0.77536  Biso   1.000  C
  C28      1.0000 0.18950  0.62424  0.22464  Biso   1.000  C
  C29      1.0000 0.89340  0.36090  0.69840  Biso   1.000  C
  C30      1.0000 0.10660  0.63910  0.30160  Biso   1.000  C
  H17      1.0000 0.99280  0.37680  0.73750  Biso   1.000  H
  H18      1.0000 0.00720  0.62320  0.26250  Biso   1.000  H
  H19      1.0000 0.85880  0.28620  0.65700  Biso   1.000  H
  H20      1.0000 0.14120  0.71380  0.34300  Biso   1.000  H
  H21      1.0000 0.88170  0.41000  0.65130  Biso   1.000  H
  H22      1.0000 0.11830  0.59000  0.34870  Biso   1.000  H
  C31      1.0000 0.84570  0.31640  0.86130  Biso   1.000  C
  C32      1.0000 0.15430  0.68360  0.13870  Biso   1.000  C
  H23      1.0000 0.94760  0.33350  0.89060  Biso   1.000  H
  H24      1.0000 0.05240  0.66650  0.10940  Biso   1.000  H
  H25      1.0000 0.80630  0.33880  0.91690  Biso   1.000  H
  H26      1.0000 0.19370  0.66120  0.08310  Biso   1.000  H
  H27      1.0000 0.80580  0.23860  0.83220  Biso   1.000  H
  H28      1.0000 0.19420  0.76140  0.16780  Biso   1.000  H
  N3       1.0000 0.85112  0.49530  0.82241  Biso   1.000  N
  N4       1.0000 0.14888  0.50470  0.17759  Biso   1.000  N
  O11      1.0000 0.96883  0.54491  0.89070  Biso   1.000  O
  O12      1.0000 0.03117  0.45509  0.10930  Biso   1.000  O
  C33      1.0000 0.75690  0.54278  0.77338  Biso   1.000  C
  C34      1.0000 0.24310  0.45722  0.22662  Biso   1.000  C
  C35      1.0000 0.77110  0.65652  0.79777  Biso   1.000  C
  C36      1.0000 0.22890  0.34348  0.20223  Biso   1.000  C
  C37      1.0000 0.88320  0.73931  0.87082  Biso   1.000  C
  C38      1.0000 0.11680  0.26069  0.12918  Biso   1.000  C
  H29      1.0000 0.96610  0.72840  0.91250  Biso   1.000  H
  H30      1.0000 0.03390  0.27160  0.08750  Biso   1.000  H
  N5       1.0000 0.85812  0.83429  0.87385  Biso   1.000  N
  N6       1.0000 0.14188  0.16571  0.12615  Biso   1.000  N
  N7       1.0000 0.72936  0.81335  0.80184  Biso   1.000  N
  N8       1.0000 0.27064  0.18665  0.19816  Biso   1.000  N
  C39      1.0000 0.67000  0.90347  0.78680  Biso   1.000  C
  C40      1.0000 0.33000  0.09653  0.21320  Biso   1.000  C
  H31      1.0000 0.63470  0.92330  0.84640  Biso   1.000  H
  H32      1.0000 0.36530  0.07670  0.15360  Biso   1.000  H
  H33      1.0000 0.74560  0.96660  0.78820  Biso   1.000  H
  H34      1.0000 0.25440  0.03340  0.21180  Biso   1.000  H
  C41      1.0000 0.55280  0.87967  0.68595  Biso   1.000  C
  C42      1.0000 0.44720  0.12033  0.31405  Biso   1.000  C
  H35      1.0000 0.58590  0.85780  0.62570  Biso   1.000  H
  H36      1.0000 0.41410  0.14220  0.37430  Biso   1.000  H
  H37      1.0000 0.47420  0.81930  0.68520  Biso   1.000  H
  H38      1.0000 0.52580  0.18070  0.31480  Biso   1.000  H
  C43      1.0000 0.50280  0.97920  0.67560  Biso   1.000  C
  C44      1.0000 0.49720  0.02080  0.32440  Biso   1.000  C
  H39      1.0000 0.48170  0.00570  0.74060  Biso   1.000  H
  H40      1.0000 0.51830  0.99430  0.25940  Biso   1.000  H
  H41      1.0000 0.57960  0.03660  0.66930  Biso   1.000  H
  H42      1.0000 0.42040  0.96340  0.33070  Biso   1.000  H
  C45      1.0000 0.37340  0.95970  0.58200  Biso   1.000  C
  C46      1.0000 0.62660  0.04030  0.41800  Biso   1.000  C
  H43      1.0000 0.34960  0.02750  0.57860  Biso   1.000  H
  H44      1.0000 0.65040  0.97250  0.42140  Biso   1.000  H
  H45      1.0000 0.39270  0.93240  0.51720  Biso   1.000  H
  H46      1.0000 0.60730  0.06760  0.48280  Biso   1.000  H
  H47      1.0000 0.29480  0.90660  0.58990  Biso   1.000  H
  H48      1.0000 0.70520  0.09340  0.41010  Biso   1.000  H
  C47      1.0000 0.67483  0.70952  0.75657  Biso   1.000  C
  C48      1.0000 0.32517  0.29048  0.24343  Biso   1.000  C
  H49      1.0000 0.58590  0.67700  0.70520  Biso   1.000  H
  H50      1.0000 0.41410  0.32300  0.29480  Biso   1.000  H
  C49      1.0000 0.43749  0.60696  0.93679  Biso   1.000  C
  C50      1.0000 0.56251  0.39304  0.06321  Biso   1.000  C
  H51      1.0000 0.42650  0.66480  0.91010  Biso   1.000  H
  H52      1.0000 0.57350  0.33520  0.08990  Biso   1.000  H
  C51      1.0000 0.30697  0.52221  0.90826  Biso   1.000  C
  C52      1.0000 0.69303  0.47779  0.09174  Biso   1.000  C
  H53      1.0000 0.23010  0.54610  0.91710  Biso   1.000  H
  H54      1.0000 0.76990  0.45390  0.08290  Biso   1.000  H
  C53      1.0000 0.31043  0.42946  0.94144  Biso   1.000  C
  C54      1.0000 0.68957  0.57054  0.05856  Biso   1.000  C
  H55      1.0000 0.22760  0.37310  0.92950  Biso   1.000  H
  H56      1.0000 0.77240  0.62690  0.07050  Biso   1.000  H
  C55      1.0000 0.43695  0.41156  0.99998  Biso   1.000  C
  C56      1.0000 0.56305  0.58844  0.00002  Biso   1.000  C
  C57      1.0000 0.43189  0.30723  0.02865  Biso   1.000  C
  C58      1.0000 0.56811  0.69277  0.97135  Biso   1.000  C
  H57      1.0000 0.50970  0.29340  0.07150  Biso   1.000  H
  H58      1.0000 0.49030  0.70660  0.92850  Biso   1.000  H
  H59      1.0000 0.40120  0.25720  0.96340  Biso   1.000  H
  H60      1.0000 0.59880  0.74280  0.03660  Biso   1.000  H
  H61      1.0000 0.35930  0.29890  0.05980  Biso   1.000  H
  H62      1.0000 0.64070  0.70110  0.94020  Biso   1.000  H
  C59      1.0000 0.55916  0.49801  0.03170  Biso   1.000  C
  C60      1.0000 0.44084  0.50199  0.96830  Biso   1.000  C
  C61      1.0000 0.69249  0.49074  0.10365  Biso   1.000  C
  C62      1.0000 0.30751  0.50926  0.89635  Biso   1.000  C
  H63      1.0000 0.76420  0.55710  0.12090  Biso   1.000  H
  H64      1.0000 0.23580  0.44290  0.87910  Biso   1.000  H
  H65      1.0000 0.72140  0.43340  0.07180  Biso   1.000  H
  H66      1.0000 0.27860  0.56660  0.92820  Biso   1.000  H
  H67      1.0000 0.67270  0.47570  0.16450  Biso   1.000  H
  H68      1.0000 0.32730  0.52430  0.83550  Biso   1.000  H
  C63      1.0000 0.55879  0.59314  0.99663  Biso   1.000  C
  C64      1.0000 0.44121  0.40686  0.00337  Biso   1.000  C
  C65      1.0000 0.68755  0.68908  0.03502  Biso   1.000  C
  C66      1.0000 0.31245  0.31092  0.96498  Biso   1.000  C
  H69      1.0000 0.76380  0.67390  0.07830  Biso   1.000  H
  H70      1.0000 0.23620  0.32610  0.92170  Biso   1.000  H
  H71      1.0000 0.66470  0.74670  0.07260  Biso   1.000  H
  H72      1.0000 0.33530  0.25330  0.92740  Biso   1.000  H
  H73      1.0000 0.71150  0.70970  0.97730  Biso   1.000  H
  H74      1.0000 0.28850  0.29030  0.02270  Biso   1.000  H
  F25      1.0000 0.60000  0.10200  0.97600  Biso   1.000  F
  F26      1.0000 0.40000  0.89800  0.02400  Biso   1.000  F
  F27      1.0000 0.16930  0.67870  0.58090  Biso   1.000  F
  F28      1.0000 0.83070  0.32130  0.41910  Biso   1.000  F
  F29      1.0000 0.31100  0.66520  0.71560  Biso   1.000  F
  F30      1.0000 0.68900  0.33480  0.28440  Biso   1.000  F
  F31      1.0000 0.08400  0.56500  0.65900  Biso   1.000  F
  F32      1.0000 0.91600  0.43500  0.34100  Biso   1.000  F
  F33      1.0000 0.91680  0.81460  0.26800  Biso   1.000  F
  F34      1.0000 0.08320  0.18540  0.73200  Biso   1.000  F
  F35      1.0000 0.90990  0.06660  0.67330  Biso   1.000  F
  F36      1.0000 0.09010  0.93340  0.32670  Biso   1.000  F
  F37      1.0000 0.88370  0.95090  0.34250  Biso   1.000  F
  F38      1.0000 0.11630  0.04910  0.65750  Biso   1.000  F
