data_image0
_cell_length_a       10.3823
_cell_length_b       13.0953
_cell_length_c       13.6544
_cell_angle_alpha    99.023
_cell_angle_beta     104.885
_cell_angle_gamma    103.411

_symmetry_space_group_name_H-M    "P 1"
_symmetry_int_tables_number       1

loop_
  _symmetry_equiv_pos_as_xyz
  'x, y, z'

loop_
  _atom_site_label
  _atom_site_occupancy
  _atom_site_fract_x
  _atom_site_fract_y
  _atom_site_fract_z
  _atom_site_thermal_displace_type
  _atom_site_B_iso_or_equiv
  _atom_site_type_symbol
  Cu1      1.0000 0.50000  0.50000  0.50000  Biso   1.000  Cu
  O1       1.0000 0.66190  0.64301  0.53938  Biso   1.000  O
  O2       1.0000 0.33810  0.35699  0.46062  Biso   1.000  O
  C1       1.0000 0.85530  0.77224  0.53495  Biso   1.000  C
  C2       1.0000 0.14470  0.22776  0.46505  Biso   1.000  C
  F1       1.0000 0.78160  0.84590  0.50890  Biso   1.000  F
  F2       1.0000 0.21840  0.15410  0.49110  Biso   1.000  F
  F3       1.0000 0.90530  0.80050  0.63420  Biso   1.000  F
  F4       1.0000 0.09470  0.19950  0.36580  Biso   1.000  F
  F5       1.0000 0.95890  0.78940  0.49410  Biso   1.000  F
  F6       1.0000 0.04110  0.21060  0.50590  Biso   1.000  F
  C3       1.0000 0.76560  0.65522  0.50720  Biso   1.000  C
  C4       1.0000 0.23440  0.34478  0.49280  Biso   1.000  C
  C5       1.0000 0.80750  0.57615  0.45308  Biso   1.000  C
  C6       1.0000 0.19250  0.42385  0.54692  Biso   1.000  C
  H1       1.0000 0.88530  0.59770  0.42890  Biso   1.000  H
  H2       1.0000 0.11470  0.40230  0.57110  Biso   1.000  H
  C7       1.0000 0.73960  0.46728  0.43332  Biso   1.000  C
  C8       1.0000 0.26040  0.53272  0.56668  Biso   1.000  C
  C9       1.0000 0.79470  0.38718  0.37501  Biso   1.000  C
  C10      1.0000 0.20530  0.61282  0.62499  Biso   1.000  C
  F7       1.0000 0.81800  0.31070  0.43720  Biso   1.000  F
  F8       1.0000 0.18200  0.68930  0.56280  Biso   1.000  F
  F9       1.0000 0.92200  0.43500  0.35000  Biso   1.000  F
  F10      1.0000 0.07800  0.56500  0.65000  Biso   1.000  F
  F11      1.0000 0.70600  0.32500  0.28380  Biso   1.000  F
  F12      1.0000 0.29400  0.67500  0.71620  Biso   1.000  F
  O3       1.0000 0.63526  0.42220  0.45767  Biso   1.000  O
  O4       1.0000 0.36474  0.57780  0.54233  Biso   1.000  O
  Cu2      1.0000 0.00000  0.00000  0.00000  Biso   1.000  Cu
  O5       1.0000 0.98412  0.93424  0.11964  Biso   1.000  O
  O6       1.0000 0.01588  0.06576  0.88036  Biso   1.000  O
  C11      1.0000 0.93590  0.90900  0.27310  Biso   1.000  C
  C12      1.0000 0.06410  0.09100  0.72690  Biso   1.000  C
  F13      1.0000 0.04940  0.94730  0.33220  Biso   1.000  F
  F14      1.0000 0.95060  0.05270  0.66780  Biso   1.000  F
  F15      1.0000 0.92180  0.81250  0.25860  Biso   1.000  F
  F16      1.0000 0.07820  0.18750  0.74140  Biso   1.000  F
  F17      1.0000 0.83660  0.91560  0.31630  Biso   1.000  F
  F18      1.0000 0.16340  0.08440  0.68370  Biso   1.000  F
  C13      1.0000 0.91280  0.95689  0.17599  Biso   1.000  C
  C14      1.0000 0.08720  0.04311  0.82401  Biso   1.000  C
  C15      1.0000 0.81870  0.01769  0.16167  Biso   1.000  C
  C16      1.0000 0.18130  0.98231  0.83833  Biso   1.000  C
  H3       1.0000 0.77080  0.02810  0.21140  Biso   1.000  H
  H4       1.0000 0.22920  0.97190  0.78860  Biso   1.000  H
  C17      1.0000 0.79350  0.06325  0.07649  Biso   1.000  C
  C18      1.0000 0.20650  0.93675  0.92351  Biso   1.000  C
  C19      1.0000 0.69130  0.13131  0.06607  Biso   1.000  C
  C20      1.0000 0.30870  0.86869  0.93393  Biso   1.000  C
  F19      1.0000 0.75969  0.23453  0.08170  Biso   1.000  F
  F20      1.0000 0.24031  0.76547  0.91830  Biso   1.000  F
  F21      1.0000 0.62180  0.13120  0.13350  Biso   1.000  F
  F22      1.0000 0.37820  0.86880  0.86650  Biso   1.000  F
  F23      1.0000 0.60730  0.10850  0.97360  Biso   1.000  F
  F24      1.0000 0.39270  0.89150  0.02640  Biso   1.000  F
  O7       1.0000 0.84695  0.05990  0.00386  Biso   1.000  O
  O8       1.0000 0.15305  0.94010  0.99614  Biso   1.000  O
  O9       1.0000 0.53793  0.48396  0.65202  Biso   1.000  O
  O10      1.0000 0.46207  0.51604  0.34798  Biso   1.000  O
  N1       1.0000 0.65028  0.46700  0.70778  Biso   1.000  N
  N2       1.0000 0.34972  0.53300  0.29222  Biso   1.000  N
  C21      1.0000 0.65420  0.35628  0.72281  Biso   1.000  C
  C22      1.0000 0.34580  0.64372  0.27719  Biso   1.000  C
  C23      1.0000 0.56340  0.32933  0.79325  Biso   1.000  C
  C24      1.0000 0.43660  0.67067  0.20675  Biso   1.000  C
  H5       1.0000 0.60390  0.38120  0.86080  Biso   1.000  H
  H6       1.0000 0.39610  0.61880  0.13920  Biso   1.000  H
  H7       1.0000 0.46950  0.33330  0.76050  Biso   1.000  H
  H8       1.0000 0.53050  0.66670  0.23950  Biso   1.000  H
  H9       1.0000 0.55880  0.25630  0.80350  Biso   1.000  H
  H10      1.0000 0.44120  0.74370  0.19650  Biso   1.000  H
  C25      1.0000 0.59510  0.27372  0.61941  Biso   1.000  C
  C26      1.0000 0.40490  0.72628  0.38059  Biso   1.000  C
  H11      1.0000 0.49480  0.26330  0.59250  Biso   1.000  H
  H12      1.0000 0.50520  0.73670  0.40750  Biso   1.000  H
  H13      1.0000 0.64020  0.29960  0.56950  Biso   1.000  H
  H14      1.0000 0.35980  0.70040  0.43050  Biso   1.000  H
  H15      1.0000 0.61220  0.20500  0.62950  Biso   1.000  H
  H16      1.0000 0.38780  0.79500  0.37050  Biso   1.000  H
  C27      1.0000 0.81240  0.37774  0.77706  Biso   1.000  C
  C28      1.0000 0.18760  0.62226  0.22294  Biso   1.000  C
  C29      1.0000 0.89510  0.36453  0.70068  Biso   1.000  C
  C30      1.0000 0.10490  0.63547  0.29932  Biso   1.000  C
  H17      1.0000 0.99370  0.38030  0.73940  Biso   1.000  H
  H18      1.0000 0.00630  0.61970  0.26060  Biso   1.000  H
  H19      1.0000 0.86100  0.29030  0.65870  Biso   1.000  H
  H20      1.0000 0.13900  0.70970  0.34130  Biso   1.000  H
  H21      1.0000 0.88360  0.41450  0.65490  Biso   1.000  H
  H22      1.0000 0.11640  0.58550  0.34510  Biso   1.000  H
  C31      1.0000 0.84970  0.31836  0.86221  Biso   1.000  C
  C32      1.0000 0.15030  0.68164  0.13779  Biso   1.000  C
  H23      1.0000 0.95110  0.33610  0.89040  Biso   1.000  H
  H24      1.0000 0.04890  0.66390  0.10960  Biso   1.000  H
  H25      1.0000 0.81130  0.34020  0.91800  Biso   1.000  H
  H26      1.0000 0.18870  0.65980  0.08200  Biso   1.000  H
  H27      1.0000 0.81090  0.24050  0.83330  Biso   1.000  H
  H28      1.0000 0.18910  0.75950  0.16670  Biso   1.000  H
  N3       1.0000 0.85291  0.49693  0.82367  Biso   1.000  N
  N4       1.0000 0.14709  0.50307  0.17633  Biso   1.000  N
  O11      1.0000 0.96945  0.54661  0.89026  Biso   1.000  O
  O12      1.0000 0.03055  0.45339  0.10974  Biso   1.000  O
  C33      1.0000 0.75800  0.54369  0.77577  Biso   1.000  C
  C34      1.0000 0.24200  0.45631  0.22423  Biso   1.000  C
  C35      1.0000 0.77220  0.65749  0.79918  Biso   1.000  C
  C36      1.0000 0.22780  0.34251  0.20082  Biso   1.000  C
  C37      1.0000 0.88300  0.74024  0.87212  Biso   1.000  C
  C38      1.0000 0.11700  0.25976  0.12788  Biso   1.000  C
  H29      1.0000 0.96490  0.72950  0.91420  Biso   1.000  H
  H30      1.0000 0.03510  0.27050  0.08580  Biso   1.000  H
  N5       1.0000 0.85782  0.83508  0.87424  Biso   1.000  N
  N6       1.0000 0.14218  0.16492  0.12576  Biso   1.000  N
  N7       1.0000 0.73099  0.81436  0.80201  Biso   1.000  N
  N8       1.0000 0.26901  0.18564  0.19799  Biso   1.000  N
  C39      1.0000 0.67280  0.90401  0.78530  Biso   1.000  C
  C40      1.0000 0.32720  0.09599  0.21470  Biso   1.000  C
  H31      1.0000 0.64100  0.92680  0.84540  Biso   1.000  H
  H32      1.0000 0.35900  0.07320  0.15460  Biso   1.000  H
  H33      1.0000 0.74750  0.96570  0.78350  Biso   1.000  H
  H34      1.0000 0.25250  0.03430  0.21650  Biso   1.000  H
  C41      1.0000 0.55430  0.87906  0.68795  Biso   1.000  C
  C42      1.0000 0.44570  0.12094  0.31205  Biso   1.000  C
  H35      1.0000 0.58410  0.85450  0.62720  Biso   1.000  H
  H36      1.0000 0.41590  0.14550  0.37280  Biso   1.000  H
  H37      1.0000 0.47690  0.81990  0.69030  Biso   1.000  H
  H38      1.0000 0.52310  0.18010  0.30970  Biso   1.000  H
  C43      1.0000 0.50430  0.97798  0.67530  Biso   1.000  C
  C44      1.0000 0.49570  0.02202  0.32470  Biso   1.000  C
  H39      1.0000 0.57940  0.03380  0.66560  Biso   1.000  H
  H40      1.0000 0.42060  0.96620  0.33440  Biso   1.000  H
  H41      1.0000 0.48660  0.00740  0.74040  Biso   1.000  H
  H42      1.0000 0.51340  0.99260  0.25960  Biso   1.000  H
  C45      1.0000 0.37430  0.95700  0.58541  Biso   1.000  C
  C46      1.0000 0.62570  0.04300  0.41459  Biso   1.000  C
  H43      1.0000 0.35000  0.02450  0.58160  Biso   1.000  H
  H44      1.0000 0.65000  0.97550  0.41840  Biso   1.000  H
  H45      1.0000 0.39070  0.92830  0.52040  Biso   1.000  H
  H46      1.0000 0.60930  0.07170  0.47960  Biso   1.000  H
  H47      1.0000 0.29780  0.90440  0.59590  Biso   1.000  H
  H48      1.0000 0.70220  0.09560  0.40410  Biso   1.000  H
  C47      1.0000 0.67720  0.71000  0.75730  Biso   1.000  C
  C48      1.0000 0.32280  0.29000  0.24270  Biso   1.000  C
  H49      1.0000 0.58940  0.67720  0.70590  Biso   1.000  H
  H50      1.0000 0.41060  0.32280  0.29410  Biso   1.000  H
  C49      1.0000 0.42980  0.59744  0.92752  Biso   1.000  C
  C50      1.0000 0.57020  0.40256  0.07248  Biso   1.000  C
  H51      1.0000 0.42880  0.66530  0.91080  Biso   1.000  H
  H52      1.0000 0.57120  0.33470  0.08920  Biso   1.000  H
  C51      1.0000 0.30810  0.51700  0.90760  Biso   1.000  C
  C52      1.0000 0.69190  0.48300  0.09240  Biso   1.000  C
  H53      1.0000 0.23130  0.54090  0.91650  Biso   1.000  H
  H54      1.0000 0.76870  0.45910  0.08350  Biso   1.000  H
  C53      1.0000 0.31240  0.42670  0.94250  Biso   1.000  C
  C54      1.0000 0.68760  0.57330  0.05750  Biso   1.000  C
  H55      1.0000 0.22960  0.37030  0.93060  Biso   1.000  H
  H56      1.0000 0.77040  0.62970  0.06940  Biso   1.000  H
  C55      1.0000 0.44150  0.41400  0.00300  Biso   1.000  C
  C56      1.0000 0.55850  0.58600  0.99700  Biso   1.000  C
  C57      1.0000 0.43440  0.30820  0.03150  Biso   1.000  C
  C58      1.0000 0.56560  0.69180  0.96850  Biso   1.000  C
  H57      1.0000 0.51220  0.29440  0.07430  Biso   1.000  H
  H58      1.0000 0.48780  0.70560  0.92570  Biso   1.000  H
  H59      1.0000 0.40360  0.25820  0.96620  Biso   1.000  H
  H60      1.0000 0.59640  0.74180  0.03380  Biso   1.000  H
  H61      1.0000 0.36180  0.29990  0.06270  Biso   1.000  H
  H62      1.0000 0.63820  0.70010  0.93730  Biso   1.000  H
  C59      1.0000 0.55690  0.49940  0.03260  Biso   1.000  C
  C60      1.0000 0.44310  0.50060  0.96740  Biso   1.000  C
  C61      1.0000 0.68960  0.49290  0.10570  Biso   1.000  C
  C62      1.0000 0.31040  0.50710  0.89430  Biso   1.000  C
  H63      1.0000 0.76130  0.55930  0.12290  Biso   1.000  H
  H64      1.0000 0.23870  0.44070  0.87710  Biso   1.000  H
  H65      1.0000 0.71860  0.43550  0.07380  Biso   1.000  H
  H66      1.0000 0.28140  0.56450  0.92620  Biso   1.000  H
  H67      1.0000 0.66990  0.47780  0.16650  Biso   1.000  H
  H68      1.0000 0.33010  0.52220  0.83350  Biso   1.000  H
  C63      1.0000 0.55800  0.59500  0.99780  Biso   1.000  C
  C64      1.0000 0.44200  0.40500  0.00220  Biso   1.000  C
  C65      1.0000 0.68060  0.68990  0.03160  Biso   1.000  C
  C66      1.0000 0.31940  0.31010  0.96840  Biso   1.000  C
  H69      1.0000 0.75680  0.67480  0.07490  Biso   1.000  H
  H70      1.0000 0.24320  0.32520  0.92510  Biso   1.000  H
  H71      1.0000 0.65770  0.74760  0.06910  Biso   1.000  H
  H72      1.0000 0.34230  0.25240  0.93090  Biso   1.000  H
  H73      1.0000 0.70450  0.71050  0.97390  Biso   1.000  H
  H74      1.0000 0.29550  0.28950  0.02610  Biso   1.000  H
  F25      1.0000 0.59540  0.09800  0.96900  Biso   1.000  F
  F26      1.0000 0.40460  0.90200  0.03100  Biso   1.000  F
  F27      1.0000 0.61630  0.11800  0.13310  Biso   1.000  F
  F28      1.0000 0.38370  0.88200  0.86690  Biso   1.000  F
  F29      1.0000 0.22190  0.17390  0.49240  Biso   1.000  F
  F30      1.0000 0.77810  0.82610  0.50760  Biso   1.000  F
  F31      1.0000 0.07150  0.19330  0.36330  Biso   1.000  F
  F32      1.0000 0.92850  0.80670  0.63670  Biso   1.000  F
  F33      1.0000 0.05290  0.21340  0.51710  Biso   1.000  F
  F34      1.0000 0.94710  0.78660  0.48290  Biso   1.000  F
  F35      1.0000 0.17200  0.67940  0.57890  Biso   1.000  F
  F36      1.0000 0.82800  0.32060  0.42110  Biso   1.000  F
  F37      1.0000 0.30400  0.66140  0.71350  Biso   1.000  F
  F38      1.0000 0.69600  0.33860  0.28650  Biso   1.000  F
  F39      1.0000 0.10200  0.57200  0.64400  Biso   1.000  F
  F40      1.0000 0.89800  0.42800  0.35600  Biso   1.000  F
  F41      1.0000 0.86950  0.80540  0.24360  Biso   1.000  F
  F42      1.0000 0.13050  0.19460  0.75640  Biso   1.000  F
  F43      1.0000 0.92250  0.07520  0.68070  Biso   1.000  F
  F44      1.0000 0.07750  0.92480  0.31930  Biso   1.000  F
  F45      1.0000 0.90950  0.96220  0.35180  Biso   1.000  F
  F46      1.0000 0.09050  0.03780  0.64820  Biso   1.000  F
