data_image0
_cell_length_a       10.5061
_cell_length_b       13.1523
_cell_length_c       13.9207
_cell_angle_alpha    99.488
_cell_angle_beta     104.245
_cell_angle_gamma    103.517

_symmetry_space_group_name_H-M    "P 1"
_symmetry_int_tables_number       1

loop_
  _symmetry_equiv_pos_as_xyz
  'x, y, z'

loop_
  _atom_site_label
  _atom_site_occupancy
  _atom_site_fract_x
  _atom_site_fract_y
  _atom_site_fract_z
  _atom_site_thermal_displace_type
  _atom_site_B_iso_or_equiv
  _atom_site_type_symbol
  Cu1      1.0000 0.50000  0.50000  0.50000  Biso   1.000  Cu
  O1       1.0000 0.64807  0.63914  0.53305  Biso   1.000  O
  O2       1.0000 0.35193  0.36086  0.46695  Biso   1.000  O
  C1       1.0000 0.84120  0.76850  0.53160  Biso   1.000  C
  C2       1.0000 0.15880  0.23150  0.46840  Biso   1.000  C
  F1       1.0000 0.76880  0.84490  0.50710  Biso   1.000  F
  F2       1.0000 0.23120  0.15510  0.49290  Biso   1.000  F
  F3       1.0000 0.91700  0.79830  0.62600  Biso   1.000  F
  F4       1.0000 0.08300  0.20170  0.37400  Biso   1.000  F
  F5       1.0000 0.92650  0.78470  0.47650  Biso   1.000  F
  F6       1.0000 0.07350  0.21530  0.52350  Biso   1.000  F
  C3       1.0000 0.75270  0.65190  0.50405  Biso   1.000  C
  C4       1.0000 0.24730  0.34810  0.49595  Biso   1.000  C
  C5       1.0000 0.79730  0.57320  0.45414  Biso   1.000  C
  C6       1.0000 0.20270  0.42680  0.54586  Biso   1.000  C
  H1       1.0000 0.87560  0.59420  0.43400  Biso   1.000  H
  H2       1.0000 0.12440  0.40580  0.56600  Biso   1.000  H
  C7       1.0000 0.72980  0.46500  0.43317  Biso   1.000  C
  C8       1.0000 0.27020  0.53500  0.56683  Biso   1.000  C
  C9       1.0000 0.78960  0.38490  0.38140  Biso   1.000  C
  C10      1.0000 0.21040  0.61510  0.61860  Biso   1.000  C
  F7       1.0000 0.80300  0.31000  0.43420  Biso   1.000  F
  F8       1.0000 0.19700  0.69000  0.56580  Biso   1.000  F
  F9       1.0000 0.68660  0.32340  0.28720  Biso   1.000  F
  F10      1.0000 0.31340  0.67660  0.71280  Biso   1.000  F
  F11      1.0000 0.91450  0.42480  0.37110  Biso   1.000  F
  F12      1.0000 0.08550  0.57520  0.62890  Biso   1.000  F
  O3       1.0000 0.62330  0.42090  0.45355  Biso   1.000  O
  O4       1.0000 0.37670  0.57910  0.54645  Biso   1.000  O
  Cu2      1.0000 0.00000  0.00000  0.00000  Biso   1.000  Cu
  O5       1.0000 0.97941  0.93367  0.11684  Biso   1.000  O
  O6       1.0000 0.02059  0.06633  0.88316  Biso   1.000  O
  C11      1.0000 0.92030  0.90710  0.26410  Biso   1.000  C
  C12      1.0000 0.07970  0.09290  0.73590  Biso   1.000  C
  F13      1.0000 0.06930  0.92310  0.31380  Biso   1.000  F
  F14      1.0000 0.93070  0.07690  0.68620  Biso   1.000  F
  F15      1.0000 0.89740  0.95920  0.34160  Biso   1.000  F
  F16      1.0000 0.10260  0.04080  0.65840  Biso   1.000  F
  F17      1.0000 0.87740  0.80920  0.24950  Biso   1.000  F
  F18      1.0000 0.12260  0.19080  0.75050  Biso   1.000  F
  C13      1.0000 0.90540  0.95570  0.17080  Biso   1.000  C
  C14      1.0000 0.09460  0.04430  0.82920  Biso   1.000  C
  C15      1.0000 0.81530  0.01650  0.15520  Biso   1.000  C
  C16      1.0000 0.18470  0.98350  0.84480  Biso   1.000  C
  H3       1.0000 0.76650  0.02620  0.20170  Biso   1.000  H
  H4       1.0000 0.23350  0.97380  0.79830  Biso   1.000  H
  C17      1.0000 0.79410  0.06363  0.07350  Biso   1.000  C
  C18      1.0000 0.20590  0.93637  0.92650  Biso   1.000  C
  C19      1.0000 0.69400  0.13260  0.06280  Biso   1.000  C
  C20      1.0000 0.30600  0.86740  0.93720  Biso   1.000  C
  F19      1.0000 0.76190  0.23180  0.07370  Biso   1.000  F
  F20      1.0000 0.23810  0.76820  0.92630  Biso   1.000  F
  F21      1.0000 0.62140  0.13630  0.12660  Biso   1.000  F
  F22      1.0000 0.37860  0.86370  0.87340  Biso   1.000  F
  F23      1.0000 0.60200  0.09420  0.97360  Biso   1.000  F
  F24      1.0000 0.39800  0.90580  0.02640  Biso   1.000  F
  O7       1.0000 0.85039  0.06133  0.00407  Biso   1.000  O
  O8       1.0000 0.14961  0.93867  0.99593  Biso   1.000  O
  O9       1.0000 0.54796  0.48514  0.66144  Biso   1.000  O
  O10      1.0000 0.45204  0.51486  0.33856  Biso   1.000  O
  N1       1.0000 0.65726  0.46914  0.71645  Biso   1.000  N
  N2       1.0000 0.34274  0.53086  0.28355  Biso   1.000  N
  C21      1.0000 0.66270  0.35896  0.72939  Biso   1.000  C
  C22      1.0000 0.33730  0.64104  0.27061  Biso   1.000  C
  C23      1.0000 0.57240  0.33000  0.79740  Biso   1.000  C
  C24      1.0000 0.42760  0.67000  0.20260  Biso   1.000  C
  H5       1.0000 0.61070  0.37970  0.86300  Biso   1.000  H
  H6       1.0000 0.38930  0.62030  0.13700  Biso   1.000  H
  H7       1.0000 0.48180  0.33390  0.76650  Biso   1.000  H
  H8       1.0000 0.51820  0.66610  0.23350  Biso   1.000  H
  H9       1.0000 0.56790  0.25830  0.80560  Biso   1.000  H
  H10      1.0000 0.43210  0.74170  0.19440  Biso   1.000  H
  C25      1.0000 0.60650  0.27795  0.62681  Biso   1.000  C
  C26      1.0000 0.39350  0.72205  0.37319  Biso   1.000  C
  H11      1.0000 0.50980  0.26770  0.60060  Biso   1.000  H
  H12      1.0000 0.49020  0.73230  0.39940  Biso   1.000  H
  H13      1.0000 0.65160  0.30440  0.57990  Biso   1.000  H
  H14      1.0000 0.34840  0.69560  0.42010  Biso   1.000  H
  H15      1.0000 0.62260  0.21060  0.63510  Biso   1.000  H
  H16      1.0000 0.37740  0.78940  0.36490  Biso   1.000  H
  C27      1.0000 0.81860  0.38152  0.78131  Biso   1.000  C
  C28      1.0000 0.18140  0.61848  0.21869  Biso   1.000  C
  C29      1.0000 0.90040  0.37120  0.70540  Biso   1.000  C
  C30      1.0000 0.09960  0.62880  0.29460  Biso   1.000  C
  H17      1.0000 0.99560  0.38620  0.74170  Biso   1.000  H
  H18      1.0000 0.00440  0.61380  0.25830  Biso   1.000  H
  H19      1.0000 0.86750  0.29940  0.66310  Biso   1.000  H
  H20      1.0000 0.13250  0.70060  0.33690  Biso   1.000  H
  H21      1.0000 0.88940  0.42150  0.66340  Biso   1.000  H
  H22      1.0000 0.11060  0.57850  0.33660  Biso   1.000  H
  C31      1.0000 0.85800  0.32250  0.86350  Biso   1.000  C
  C32      1.0000 0.14200  0.67750  0.13650  Biso   1.000  C
  H23      1.0000 0.95600  0.34100  0.88920  Biso   1.000  H
  H24      1.0000 0.04400  0.65900  0.11080  Biso   1.000  H
  H25      1.0000 0.82130  0.34280  0.91800  Biso   1.000  H
  H26      1.0000 0.17870  0.65720  0.08200  Biso   1.000  H
  H27      1.0000 0.82160  0.24630  0.83530  Biso   1.000  H
  H28      1.0000 0.17840  0.75370  0.16470  Biso   1.000  H
  N3       1.0000 0.85630  0.50021  0.82849  Biso   1.000  N
  N4       1.0000 0.14370  0.49979  0.17151  Biso   1.000  N
  O11      1.0000 0.97240  0.55076  0.89159  Biso   1.000  O
  O12      1.0000 0.02760  0.44924  0.10841  Biso   1.000  O
  C33      1.0000 0.76250  0.54580  0.78233  Biso   1.000  C
  C34      1.0000 0.23750  0.45420  0.21767  Biso   1.000  C
  C35      1.0000 0.77620  0.65963  0.80435  Biso   1.000  C
  C36      1.0000 0.22380  0.34037  0.19565  Biso   1.000  C
  C37      1.0000 0.88280  0.74217  0.87670  Biso   1.000  C
  C38      1.0000 0.11720  0.25783  0.12330  Biso   1.000  C
  H29      1.0000 0.96050  0.73210  0.91850  Biso   1.000  H
  H30      1.0000 0.03950  0.26790  0.08150  Biso   1.000  H
  N5       1.0000 0.85790  0.83633  0.87750  Biso   1.000  N
  N6       1.0000 0.14210  0.16367  0.12250  Biso   1.000  N
  N7       1.0000 0.73550  0.81552  0.80522  Biso   1.000  N
  N8       1.0000 0.26450  0.18448  0.19478  Biso   1.000  N
  C39      1.0000 0.68030  0.90460  0.78460  Biso   1.000  C
  C40      1.0000 0.31970  0.09540  0.21540  Biso   1.000  C
  H31      1.0000 0.75360  0.96150  0.77900  Biso   1.000  H
  H32      1.0000 0.24640  0.03850  0.22100  Biso   1.000  H
  H33      1.0000 0.65380  0.93240  0.84340  Biso   1.000  H
  H34      1.0000 0.34620  0.06760  0.15660  Biso   1.000  H
  C41      1.0000 0.56520  0.88190  0.69550  Biso   1.000  C
  C42      1.0000 0.43480  0.11810  0.30450  Biso   1.000  C
  H35      1.0000 0.58940  0.85170  0.63640  Biso   1.000  H
  H36      1.0000 0.41060  0.14830  0.36360  Biso   1.000  H
  H37      1.0000 0.48930  0.82790  0.70210  Biso   1.000  H
  H38      1.0000 0.51070  0.17210  0.29790  Biso   1.000  H
  C43      1.0000 0.51830  0.97900  0.67700  Biso   1.000  C
  C44      1.0000 0.48170  0.02100  0.32300  Biso   1.000  C
  H39      1.0000 0.58900  0.02770  0.65940  Biso   1.000  H
  H40      1.0000 0.41100  0.97230  0.34060  Biso   1.000  H
  H41      1.0000 0.50950  0.01610  0.74020  Biso   1.000  H
  H42      1.0000 0.49050  0.98390  0.25980  Biso   1.000  H
  C45      1.0000 0.38970  0.95670  0.59770  Biso   1.000  C
  C46      1.0000 0.61030  0.04330  0.40230  Biso   1.000  C
  H43      1.0000 0.36610  0.02250  0.59400  Biso   1.000  H
  H44      1.0000 0.63390  0.97750  0.40600  Biso   1.000  H
  H45      1.0000 0.39910  0.92540  0.53340  Biso   1.000  H
  H46      1.0000 0.60090  0.07460  0.46660  Biso   1.000  H
  H47      1.0000 0.31880  0.90740  0.61320  Biso   1.000  H
  H48      1.0000 0.68120  0.09260  0.38680  Biso   1.000  H
  C47      1.0000 0.68400  0.71016  0.76075  Biso   1.000  C
  C48      1.0000 0.31600  0.28984  0.23925  Biso   1.000  C
  H49      1.0000 0.60130  0.67730  0.70980  Biso   1.000  H
  H50      1.0000 0.39870  0.32270  0.29020  Biso   1.000  H
  C49      1.0000 0.43670  0.59760  0.93097  Biso   1.000  C
  C50      1.0000 0.56330  0.40240  0.06903  Biso   1.000  C
  H51      1.0000 0.43570  0.66540  0.91430  Biso   1.000  H
  H52      1.0000 0.56430  0.33460  0.08570  Biso   1.000  H
  C51      1.0000 0.68300  0.48700  0.09480  Biso   1.000  C
  C52      1.0000 0.31700  0.51300  0.90520  Biso   1.000  C
  H53      1.0000 0.24040  0.53680  0.91400  Biso   1.000  H
  H54      1.0000 0.75960  0.46320  0.08600  Biso   1.000  H
  C53      1.0000 0.31990  0.41880  0.94220  Biso   1.000  C
  C54      1.0000 0.68010  0.58120  0.05780  Biso   1.000  C
  H55      1.0000 0.23700  0.36240  0.93020  Biso   1.000  H
  H56      1.0000 0.76300  0.63760  0.06980  Biso   1.000  H
  C55      1.0000 0.54750  0.58910  0.99310  Biso   1.000  C
  C56      1.0000 0.45250  0.41090  0.00690  Biso   1.000  C
  C57      1.0000 0.44970  0.31750  0.03830  Biso   1.000  C
  C58      1.0000 0.55030  0.68250  0.96170  Biso   1.000  C
  H57      1.0000 0.52750  0.30370  0.08120  Biso   1.000  H
  H58      1.0000 0.47250  0.69630  0.91880  Biso   1.000  H
  H59      1.0000 0.41900  0.26750  0.97300  Biso   1.000  H
  H60      1.0000 0.58100  0.73250  0.02700  Biso   1.000  H
  H61      1.0000 0.37710  0.30920  0.06950  Biso   1.000  H
  H62      1.0000 0.62290  0.69080  0.93050  Biso   1.000  H
  C59      1.0000 0.55800  0.49680  0.03680  Biso   1.000  C
  C60      1.0000 0.44200  0.50320  0.96320  Biso   1.000  C
  C61      1.0000 0.30400  0.49600  0.88770  Biso   1.000  C
  C62      1.0000 0.69600  0.50400  0.11230  Biso   1.000  C
  H63      1.0000 0.76750  0.57050  0.12960  Biso   1.000  H
  H64      1.0000 0.23250  0.42950  0.87040  Biso   1.000  H
  H65      1.0000 0.72480  0.44680  0.08040  Biso   1.000  H
  H66      1.0000 0.27520  0.55320  0.91960  Biso   1.000  H
  H67      1.0000 0.67610  0.48900  0.17310  Biso   1.000  H
  H68      1.0000 0.32390  0.51100  0.82690  Biso   1.000  H
  C63      1.0000 0.43000  0.41500  0.99400  Biso   1.000  C
  C64      1.0000 0.57000  0.58500  0.00600  Biso   1.000  C
  C65      1.0000 0.66740  0.68440  0.02530  Biso   1.000  C
  C66      1.0000 0.33260  0.31560  0.97470  Biso   1.000  C
  H69      1.0000 0.74370  0.66930  0.06860  Biso   1.000  H
  H70      1.0000 0.25630  0.33070  0.93140  Biso   1.000  H
  H71      1.0000 0.64460  0.74210  0.06280  Biso   1.000  H
  H72      1.0000 0.35540  0.25790  0.93720  Biso   1.000  H
  H73      1.0000 0.69140  0.70500  0.96760  Biso   1.000  H
  H74      1.0000 0.30860  0.29500  0.03240  Biso   1.000  H
  F25      1.0000 0.62090  0.11930  0.96920  Biso   1.000  F
  F26      1.0000 0.37910  0.88070  0.03080  Biso   1.000  F
  F27      1.0000 0.75990  0.23640  0.09370  Biso   1.000  F
  F28      1.0000 0.24010  0.76360  0.90630  Biso   1.000  F
  F29      1.0000 0.61310  0.10960  0.12190  Biso   1.000  F
  F30      1.0000 0.38690  0.89040  0.87810  Biso   1.000  F
  F31      1.0000 0.23070  0.18370  0.49780  Biso   1.000  F
  F32      1.0000 0.76930  0.81630  0.50220  Biso   1.000  F
  F33      1.0000 0.11830  0.19640  0.37200  Biso   1.000  F
  F34      1.0000 0.88170  0.80360  0.62800  Biso   1.000  F
  F35      1.0000 0.05360  0.21600  0.50270  Biso   1.000  F
  F36      1.0000 0.94640  0.78400  0.49730  Biso   1.000  F
  F37      1.0000 0.16800  0.67270  0.56080  Biso   1.000  F
  F38      1.0000 0.83200  0.32730  0.43920  Biso   1.000  F
  F39      1.0000 0.28320  0.67070  0.69500  Biso   1.000  F
  F40      1.0000 0.71680  0.32930  0.30500  Biso   1.000  F
  F41      1.0000 0.11200  0.57010  0.65090  Biso   1.000  F
  F42      1.0000 0.88800  0.42990  0.34910  Biso   1.000  F
  F43      1.0000 0.77970  0.86570  0.26870  Biso   1.000  F
  F44      1.0000 0.22030  0.13430  0.73130  Biso   1.000  F
  F45      1.0000 0.93820  0.81900  0.24520  Biso   1.000  F
  F46      1.0000 0.06180  0.18100  0.75480  Biso   1.000  F
  F47      1.0000 0.96900  0.96850  0.33850  Biso   1.000  F
  F48      1.0000 0.03100  0.03150  0.66150  Biso   1.000  F
