data_image0
_cell_length_a       10.7592
_cell_length_b       13.2163
_cell_length_c       13.8207
_cell_angle_alpha    99.285
_cell_angle_beta     106.566
_cell_angle_gamma    100.756

_symmetry_space_group_name_H-M    "P 1"
_symmetry_int_tables_number       1

loop_
  _symmetry_equiv_pos_as_xyz
  'x, y, z'

loop_
  _atom_site_label
  _atom_site_occupancy
  _atom_site_fract_x
  _atom_site_fract_y
  _atom_site_fract_z
  _atom_site_thermal_displace_type
  _atom_site_B_iso_or_equiv
  _atom_site_type_symbol
  Cu1      1.0000 0.50000  0.50000  0.50000  Biso   1.000  Cu
  O1       1.0000 0.64050  0.63383  0.53185  Biso   1.000  O
  O2       1.0000 0.35950  0.36617  0.46815  Biso   1.000  O
  C1       1.0000 0.82400  0.75790  0.52830  Biso   1.000  C
  C2       1.0000 0.17600  0.24210  0.47170  Biso   1.000  C
  F1       1.0000 0.75410  0.82290  0.51400  Biso   1.000  F
  F2       1.0000 0.24590  0.17710  0.48600  Biso   1.000  F
  F3       1.0000 0.90500  0.78410  0.62630  Biso   1.000  F
  F4       1.0000 0.09500  0.21590  0.37370  Biso   1.000  F
  F5       1.0000 0.89570  0.77330  0.47260  Biso   1.000  F
  F6       1.0000 0.10430  0.22670  0.52740  Biso   1.000  F
  C3       1.0000 0.74100  0.64400  0.50300  Biso   1.000  C
  C4       1.0000 0.25900  0.35600  0.49700  Biso   1.000  C
  C5       1.0000 0.78610  0.56630  0.45360  Biso   1.000  C
  C6       1.0000 0.21390  0.43370  0.54640  Biso   1.000  C
  H1       1.0000 0.86150  0.58570  0.43420  Biso   1.000  H
  H2       1.0000 0.13850  0.41430  0.56580  Biso   1.000  H
  C7       1.0000 0.72180  0.46040  0.43230  Biso   1.000  C
  C8       1.0000 0.27820  0.53960  0.56770  Biso   1.000  C
  C9       1.0000 0.77970  0.38210  0.37750  Biso   1.000  C
  C10      1.0000 0.22030  0.61790  0.62250  Biso   1.000  C
  F7       1.0000 0.80270  0.30900  0.42660  Biso   1.000  F
  F8       1.0000 0.19730  0.69100  0.57340  Biso   1.000  F
  F9       1.0000 0.67330  0.32410  0.27830  Biso   1.000  F
  F10      1.0000 0.32670  0.67590  0.72170  Biso   1.000  F
  F11      1.0000 0.90190  0.42640  0.35340  Biso   1.000  F
  F12      1.0000 0.09810  0.57360  0.64660  Biso   1.000  F
  O3       1.0000 0.62060  0.41885  0.45203  Biso   1.000  O
  O4       1.0000 0.37940  0.58115  0.54797  Biso   1.000  O
  Cu2      1.0000 0.00000  0.00000  0.00000  Biso   1.000  Cu
  O5       1.0000 0.99740  0.94426  0.12357  Biso   1.000  O
  O6       1.0000 0.00260  0.05574  0.87643  Biso   1.000  O
  C11      1.0000 0.96080  0.93100  0.28050  Biso   1.000  C
  C12      1.0000 0.03920  0.06900  0.71950  Biso   1.000  C
  F13      1.0000 0.09960  0.94490  0.32730  Biso   1.000  F
  F14      1.0000 0.90040  0.05510  0.67270  Biso   1.000  F
  F15      1.0000 0.89460  0.95370  0.33880  Biso   1.000  F
  F16      1.0000 0.10540  0.04630  0.66120  Biso   1.000  F
  F17      1.0000 0.92380  0.82140  0.25570  Biso   1.000  F
  F18      1.0000 0.07620  0.17860  0.74430  Biso   1.000  F
  C13      1.0000 0.93170  0.97020  0.18040  Biso   1.000  C
  C14      1.0000 0.06830  0.02980  0.81960  Biso   1.000  C
  C15      1.0000 0.83960  0.03180  0.16370  Biso   1.000  C
  C16      1.0000 0.16040  0.96820  0.83630  Biso   1.000  C
  H3       1.0000 0.79840  0.04620  0.21330  Biso   1.000  H
  H4       1.0000 0.20160  0.95380  0.78670  Biso   1.000  H
  C17      1.0000 0.80700  0.07250  0.07680  Biso   1.000  C
  C18      1.0000 0.19300  0.92750  0.92320  Biso   1.000  C
  C19      1.0000 0.70040  0.13590  0.06260  Biso   1.000  C
  C20      1.0000 0.29960  0.86410  0.93740  Biso   1.000  C
  F19      1.0000 0.75400  0.21870  0.07690  Biso   1.000  F
  F20      1.0000 0.24600  0.78130  0.92310  Biso   1.000  F
  F21      1.0000 0.62680  0.12010  0.12470  Biso   1.000  F
  F22      1.0000 0.37320  0.87990  0.87530  Biso   1.000  F
  F23      1.0000 0.62410  0.12480  0.96720  Biso   1.000  F
  F24      1.0000 0.37590  0.87520  0.03280  Biso   1.000  F
  O7       1.0000 0.85489  0.06565  0.00469  Biso   1.000  O
  O8       1.0000 0.14511  0.93435  0.99531  Biso   1.000  O
  O9       1.0000 0.55670  0.48672  0.66422  Biso   1.000  O
  O10      1.0000 0.44330  0.51328  0.33578  Biso   1.000  O
  N1       1.0000 0.66840  0.47169  0.71840  Biso   1.000  N
  N2       1.0000 0.33160  0.52831  0.28160  Biso   1.000  N
  C21      1.0000 0.68500  0.36360  0.73430  Biso   1.000  C
  C22      1.0000 0.31500  0.63640  0.26570  Biso   1.000  C
  C23      1.0000 0.60900  0.33810  0.80890  Biso   1.000  C
  C24      1.0000 0.39100  0.66190  0.19110  Biso   1.000  C
  H5       1.0000 0.64960  0.38910  0.87380  Biso   1.000  H
  H6       1.0000 0.35040  0.61090  0.12620  Biso   1.000  H
  H7       1.0000 0.51760  0.34060  0.77970  Biso   1.000  H
  H8       1.0000 0.48240  0.65940  0.22030  Biso   1.000  H
  H9       1.0000 0.61210  0.26870  0.82000  Biso   1.000  H
  H10      1.0000 0.38790  0.73130  0.18000  Biso   1.000  H
  C25      1.0000 0.62290  0.28220  0.63130  Biso   1.000  C
  C26      1.0000 0.37710  0.71780  0.36870  Biso   1.000  C
  H11      1.0000 0.52780  0.27400  0.60770  Biso   1.000  H
  H12      1.0000 0.47220  0.72600  0.39230  Biso   1.000  H
  H13      1.0000 0.65980  0.30590  0.58100  Biso   1.000  H
  H14      1.0000 0.34020  0.69410  0.41900  Biso   1.000  H
  H15      1.0000 0.64190  0.21560  0.64050  Biso   1.000  H
  H16      1.0000 0.35810  0.78440  0.35950  Biso   1.000  H
  C27      1.0000 0.83840  0.38650  0.78040  Biso   1.000  C
  C28      1.0000 0.16160  0.61350  0.21960  Biso   1.000  C
  C29      1.0000 0.90910  0.37650  0.69890  Biso   1.000  C
  C30      1.0000 0.09090  0.62350  0.30110  Biso   1.000  C
  H17      1.0000 0.00380  0.39090  0.73280  Biso   1.000  H
  H18      1.0000 0.99620  0.60910  0.26720  Biso   1.000  H
  H19      1.0000 0.87740  0.30600  0.65620  Biso   1.000  H
  H20      1.0000 0.12260  0.69400  0.34380  Biso   1.000  H
  H21      1.0000 0.89030  0.42620  0.65650  Biso   1.000  H
  H22      1.0000 0.10970  0.57380  0.34350  Biso   1.000  H
  C31      1.0000 0.89010  0.32780  0.86330  Biso   1.000  C
  C32      1.0000 0.10990  0.67220  0.13670  Biso   1.000  C
  H23      1.0000 0.98620  0.34710  0.88740  Biso   1.000  H
  H24      1.0000 0.01380  0.65290  0.11260  Biso   1.000  H
  H25      1.0000 0.85810  0.34620  0.92020  Biso   1.000  H
  H26      1.0000 0.14190  0.65380  0.07980  Biso   1.000  H
  H27      1.0000 0.85890  0.25300  0.83460  Biso   1.000  H
  H28      1.0000 0.14110  0.74700  0.16540  Biso   1.000  H
  N3       1.0000 0.87020  0.50290  0.82760  Biso   1.000  N
  N4       1.0000 0.12980  0.49710  0.17240  Biso   1.000  N
  O11      1.0000 0.98650  0.55261  0.88890  Biso   1.000  O
  O12      1.0000 0.01350  0.44739  0.11110  Biso   1.000  O
  C33      1.0000 0.77220  0.54730  0.78380  Biso   1.000  C
  C34      1.0000 0.22780  0.45270  0.21620  Biso   1.000  C
  C35      1.0000 0.77880  0.65950  0.80660  Biso   1.000  C
  C36      1.0000 0.22120  0.34050  0.19340  Biso   1.000  C
  C37      1.0000 0.88310  0.74070  0.87750  Biso   1.000  C
  C38      1.0000 0.11690  0.25930  0.12250  Biso   1.000  C
  H29      1.0000 0.96340  0.73090  0.91800  Biso   1.000  H
  H30      1.0000 0.03660  0.26910  0.08200  Biso   1.000  H
  N5       1.0000 0.85260  0.83331  0.87944  Biso   1.000  N
  N6       1.0000 0.14740  0.16669  0.12056  Biso   1.000  N
  N7       1.0000 0.72840  0.81209  0.80906  Biso   1.000  N
  N8       1.0000 0.27160  0.18791  0.19094  Biso   1.000  N
  C39      1.0000 0.66440  0.89850  0.79070  Biso   1.000  C
  C40      1.0000 0.33560  0.10150  0.20930  Biso   1.000  C
  H31      1.0000 0.73370  0.96040  0.79760  Biso   1.000  H
  H32      1.0000 0.26630  0.03960  0.20240  Biso   1.000  H
  H33      1.0000 0.62690  0.91460  0.84580  Biso   1.000  H
  H34      1.0000 0.37310  0.08540  0.15420  Biso   1.000  H
  C41      1.0000 0.56380  0.88440  0.69660  Biso   1.000  C
  C42      1.0000 0.43620  0.11560  0.30340  Biso   1.000  C
  H35      1.0000 0.59900  0.86560  0.64080  Biso   1.000  H
  H36      1.0000 0.40100  0.13440  0.35920  Biso   1.000  H
  H37      1.0000 0.49130  0.82530  0.69070  Biso   1.000  H
  H38      1.0000 0.50870  0.17470  0.30930  Biso   1.000  H
  C43      1.0000 0.50730  0.98030  0.68210  Biso   1.000  C
  C44      1.0000 0.49270  0.01970  0.31790  Biso   1.000  C
  H39      1.0000 0.57470  0.03400  0.67250  Biso   1.000  H
  H40      1.0000 0.42530  0.96600  0.32750  Biso   1.000  H
  H41      1.0000 0.49150  0.00870  0.74560  Biso   1.000  H
  H42      1.0000 0.50850  0.99130  0.25440  Biso   1.000  H
  C45      1.0000 0.38870  0.96240  0.59940  Biso   1.000  C
  C46      1.0000 0.61130  0.03760  0.40060  Biso   1.000  C
  H43      1.0000 0.36380  0.02800  0.59520  Biso   1.000  H
  H44      1.0000 0.63620  0.97200  0.40480  Biso   1.000  H
  H45      1.0000 0.40220  0.93350  0.53590  Biso   1.000  H
  H46      1.0000 0.59780  0.06650  0.46410  Biso   1.000  H
  H47      1.0000 0.31890  0.91340  0.61030  Biso   1.000  H
  H48      1.0000 0.68110  0.08660  0.38970  Biso   1.000  H
  C47      1.0000 0.68140  0.70900  0.76480  Biso   1.000  C
  C48      1.0000 0.31860  0.29100  0.23520  Biso   1.000  C
  H49      1.0000 0.59850  0.67680  0.71500  Biso   1.000  H
  H50      1.0000 0.40150  0.32320  0.28500  Biso   1.000  H
  C49      1.0000 0.41100  0.37220  0.97150  Biso   1.000  C
  C50      1.0000 0.58900  0.62780  0.02850  Biso   1.000  C
  C51      1.0000 0.52190  0.42650  0.05430  Biso   1.000  C
  C52      1.0000 0.47810  0.57350  0.94570  Biso   1.000  C
  H51      1.0000 0.57090  0.38500  0.09410  Biso   1.000  H
  H52      1.0000 0.42910  0.61500  0.90590  Biso   1.000  H
  C53      1.0000 0.59560  0.52470  0.05530  Biso   1.000  C
  C54      1.0000 0.40440  0.47530  0.94470  Biso   1.000  C
  C55      1.0000 0.53800  0.58650  0.99080  Biso   1.000  C
  C56      1.0000 0.46200  0.41350  0.00920  Biso   1.000  C
  C57      1.0000 0.40800  0.53730  0.92950  Biso   1.000  C
  C58      1.0000 0.59200  0.46270  0.07050  Biso   1.000  C
  H53      1.0000 0.36250  0.57870  0.88700  Biso   1.000  H
  H54      1.0000 0.63750  0.42130  0.11300  Biso   1.000  H
  C59      1.0000 0.34490  0.43260  0.91510  Biso   1.000  C
  C60      1.0000 0.65510  0.56740  0.08490  Biso   1.000  C
  H55      1.0000 0.26010  0.39680  0.86380  Biso   1.000  H
  H56      1.0000 0.73990  0.60320  0.13620  Biso   1.000  H
  C61      1.0000 0.33710  0.26170  0.96110  Biso   1.000  C
  C62      1.0000 0.66290  0.73830  0.03890  Biso   1.000  C
  H57      1.0000 0.39130  0.23330  0.01280  Biso   1.000  H
  H58      1.0000 0.60870  0.76670  0.98720  Biso   1.000  H
  H59      1.0000 0.32990  0.22410  0.89340  Biso   1.000  H
  H60      1.0000 0.67010  0.77590  0.10660  Biso   1.000  H
  H61      1.0000 0.24960  0.25400  0.96760  Biso   1.000  H
  H62      1.0000 0.75040  0.74600  0.03240  Biso   1.000  H
  C63      1.0000 0.72900  0.56900  0.14020  Biso   1.000  C
  C64      1.0000 0.27100  0.43100  0.85980  Biso   1.000  C
  H63      1.0000 0.75260  0.51550  0.17630  Biso   1.000  H
  H64      1.0000 0.24740  0.48450  0.82370  Biso   1.000  H
  H65      1.0000 0.72520  0.62850  0.18830  Biso   1.000  H
  H66      1.0000 0.27480  0.37150  0.81170  Biso   1.000  H
  H67      1.0000 0.79510  0.59110  0.10860  Biso   1.000  H
  H68      1.0000 0.20490  0.40890  0.89140  Biso   1.000  H
  C65      1.0000 0.59160  0.70230  0.00180  Biso   1.000  C
  C66      1.0000 0.40840  0.29770  0.99820  Biso   1.000  C
  H69      1.0000 0.54190  0.73650  0.95330  Biso   1.000  H
  H70      1.0000 0.45810  0.26350  0.04670  Biso   1.000  H
  H71      1.0000 0.67790  0.70510  0.99380  Biso   1.000  H
  H72      1.0000 0.32210  0.29490  0.00620  Biso   1.000  H
  H73      1.0000 0.60270  0.73770  0.07110  Biso   1.000  H
  H74      1.0000 0.39730  0.26230  0.92890  Biso   1.000  H
  F25      1.0000 0.60190  0.08600  0.98110  Biso   1.000  F
  F26      1.0000 0.39810  0.91400  0.01890  Biso   1.000  F
  F27      1.0000 0.75470  0.24860  0.07140  Biso   1.000  F
  F28      1.0000 0.24530  0.75140  0.92860  Biso   1.000  F
  F29      1.0000 0.65130  0.15210  0.13370  Biso   1.000  F
  F30      1.0000 0.34870  0.84790  0.86630  Biso   1.000  F
  F31      1.0000 0.25000  0.19030  0.53510  Biso   1.000  F
  F32      1.0000 0.75000  0.80970  0.46490  Biso   1.000  F
  F33      1.0000 0.16150  0.19410  0.38310  Biso   1.000  F
  F34      1.0000 0.83850  0.80590  0.61690  Biso   1.000  F
  F35      1.0000 0.06270  0.23020  0.49160  Biso   1.000  F
  F36      1.0000 0.93730  0.76980  0.50840  Biso   1.000  F
  F37      1.0000 0.27970  0.66130  0.69640  Biso   1.000  F
  F38      1.0000 0.72030  0.33870  0.30360  Biso   1.000  F
  F39      1.0000 0.13070  0.58960  0.63250  Biso   1.000  F
  F40      1.0000 0.86930  0.41040  0.36750  Biso   1.000  F
  F41      1.0000 0.86800  0.84460  0.26180  Biso   1.000  F
  F42      1.0000 0.13200  0.15540  0.73820  Biso   1.000  F
  F43      1.0000 0.95200  0.09800  0.69720  Biso   1.000  F
  F44      1.0000 0.04800  0.90200  0.30280  Biso   1.000  F
  F45      1.0000 0.95230  0.98980  0.35650  Biso   1.000  F
  F46      1.0000 0.04770  0.01020  0.64350  Biso   1.000  F
