data_image0
_cell_length_a       10.662
_cell_length_b       13.1113
_cell_length_c       13.6593
_cell_angle_alpha    98.893
_cell_angle_beta     106.584
_cell_angle_gamma    100.975

_symmetry_space_group_name_H-M    "P 1"
_symmetry_int_tables_number       1

loop_
  _symmetry_equiv_pos_as_xyz
  'x, y, z'

loop_
  _atom_site_label
  _atom_site_occupancy
  _atom_site_fract_x
  _atom_site_fract_y
  _atom_site_fract_z
  _atom_site_thermal_displace_type
  _atom_site_B_iso_or_equiv
  _atom_site_type_symbol
  Cu1      1.0000 0.50000  0.50000  0.50000  Biso   1.000  Cu
  O1       1.0000 0.64701  0.63495  0.53561  Biso   1.000  O
  O2       1.0000 0.35299  0.36505  0.46439  Biso   1.000  O
  C1       1.0000 0.83150  0.76060  0.53130  Biso   1.000  C
  C2       1.0000 0.16850  0.23940  0.46870  Biso   1.000  C
  F1       1.0000 0.75150  0.83480  0.50030  Biso   1.000  F
  F2       1.0000 0.24850  0.16520  0.49970  Biso   1.000  F
  F3       1.0000 0.90660  0.78780  0.62980  Biso   1.000  F
  F4       1.0000 0.09340  0.21220  0.37020  Biso   1.000  F
  F5       1.0000 0.91340  0.77780  0.48060  Biso   1.000  F
  F6       1.0000 0.08660  0.22220  0.51940  Biso   1.000  F
  C3       1.0000 0.74800  0.64560  0.50497  Biso   1.000  C
  C4       1.0000 0.25200  0.35440  0.49503  Biso   1.000  C
  C5       1.0000 0.79230  0.56870  0.45320  Biso   1.000  C
  C6       1.0000 0.20770  0.43130  0.54680  Biso   1.000  C
  H1       1.0000 0.86850  0.58960  0.43260  Biso   1.000  H
  H2       1.0000 0.13150  0.41040  0.56740  Biso   1.000  H
  C7       1.0000 0.72800  0.46130  0.43037  Biso   1.000  C
  C8       1.0000 0.27200  0.53870  0.56963  Biso   1.000  C
  C9       1.0000 0.78440  0.38290  0.37320  Biso   1.000  C
  C10      1.0000 0.21560  0.61710  0.62680  Biso   1.000  C
  F7       1.0000 0.81030  0.30869  0.42414  Biso   1.000  F
  F8       1.0000 0.18970  0.69131  0.57586  Biso   1.000  F
  F9       1.0000 0.67770  0.32920  0.27610  Biso   1.000  F
  F10      1.0000 0.32230  0.67080  0.72390  Biso   1.000  F
  F11      1.0000 0.87630  0.41450  0.35560  Biso   1.000  F
  F12      1.0000 0.12370  0.58550  0.64440  Biso   1.000  F
  O3       1.0000 0.62708  0.41819  0.45244  Biso   1.000  O
  O4       1.0000 0.37292  0.58181  0.54756  Biso   1.000  O
  Cu2      1.0000 0.00000  0.00000  0.00000  Biso   1.000  Cu
  O5       1.0000 0.99723  0.94336  0.12498  Biso   1.000  O
  O6       1.0000 0.00277  0.05664  0.87502  Biso   1.000  O
  C11      1.0000 0.95790  0.92760  0.28150  Biso   1.000  C
  C12      1.0000 0.04210  0.07240  0.71850  Biso   1.000  C
  F13      1.0000 0.10390  0.93760  0.32790  Biso   1.000  F
  F14      1.0000 0.89610  0.06240  0.67210  Biso   1.000  F
  F15      1.0000 0.90100  0.95830  0.34620  Biso   1.000  F
  F16      1.0000 0.09900  0.04170  0.65380  Biso   1.000  F
  F17      1.0000 0.92170  0.82230  0.25870  Biso   1.000  F
  F18      1.0000 0.07830  0.17770  0.74130  Biso   1.000  F
  C13      1.0000 0.93190  0.97008  0.18300  Biso   1.000  C
  C14      1.0000 0.06810  0.02992  0.81700  Biso   1.000  C
  C15      1.0000 0.83770  0.03080  0.16570  Biso   1.000  C
  C16      1.0000 0.16230  0.96920  0.83430  Biso   1.000  C
  H3       1.0000 0.79520  0.04440  0.21620  Biso   1.000  H
  H4       1.0000 0.20480  0.95560  0.78380  Biso   1.000  H
  C17      1.0000 0.80400  0.07186  0.07810  Biso   1.000  C
  C18      1.0000 0.19600  0.92814  0.92190  Biso   1.000  C
  C19      1.0000 0.69770  0.13590  0.06310  Biso   1.000  C
  C20      1.0000 0.30230  0.86410  0.93690  Biso   1.000  C
  F19      1.0000 0.75800  0.22530  0.07840  Biso   1.000  F
  F20      1.0000 0.24200  0.77470  0.92160  Biso   1.000  F
  F21      1.0000 0.62530  0.12330  0.12470  Biso   1.000  F
  F22      1.0000 0.37470  0.87670  0.87530  Biso   1.000  F
  F23      1.0000 0.59780  0.10470  0.95380  Biso   1.000  F
  F24      1.0000 0.40220  0.89530  0.04620  Biso   1.000  F
  O7       1.0000 0.85258  0.06506  0.00404  Biso   1.000  O
  O8       1.0000 0.14742  0.93494  0.99596  Biso   1.000  O
  O9       1.0000 0.55079  0.48515  0.66002  Biso   1.000  O
  O10      1.0000 0.44921  0.51485  0.33998  Biso   1.000  O
  N1       1.0000 0.66410  0.46898  0.71493  Biso   1.000  N
  N2       1.0000 0.33590  0.53102  0.28507  Biso   1.000  N
  C21      1.0000 0.67700  0.35934  0.73030  Biso   1.000  C
  C22      1.0000 0.32300  0.64066  0.26970  Biso   1.000  C
  C23      1.0000 0.59950  0.33450  0.80590  Biso   1.000  C
  C24      1.0000 0.40050  0.66550  0.19410  Biso   1.000  C
  H5       1.0000 0.64110  0.38650  0.87190  Biso   1.000  H
  H6       1.0000 0.35890  0.61350  0.12810  Biso   1.000  H
  H7       1.0000 0.50650  0.33740  0.77580  Biso   1.000  H
  H8       1.0000 0.49350  0.66260  0.22420  Biso   1.000  H
  H9       1.0000 0.60180  0.26380  0.81790  Biso   1.000  H
  H10      1.0000 0.39820  0.73620  0.18210  Biso   1.000  H
  C25      1.0000 0.61380  0.27794  0.62700  Biso   1.000  C
  C26      1.0000 0.38620  0.72206  0.37300  Biso   1.000  C
  H11      1.0000 0.51690  0.26980  0.60310  Biso   1.000  H
  H12      1.0000 0.48310  0.73020  0.39690  Biso   1.000  H
  H13      1.0000 0.65130  0.30200  0.57520  Biso   1.000  H
  H14      1.0000 0.34870  0.69800  0.42480  Biso   1.000  H
  H15      1.0000 0.63290  0.21000  0.63650  Biso   1.000  H
  H16      1.0000 0.36710  0.79000  0.36350  Biso   1.000  H
  C27      1.0000 0.83140  0.38126  0.77770  Biso   1.000  C
  C28      1.0000 0.16860  0.61874  0.22230  Biso   1.000  C
  C29      1.0000 0.90390  0.37070  0.69630  Biso   1.000  C
  C30      1.0000 0.09610  0.62930  0.30370  Biso   1.000  C
  H17      1.0000 0.00040  0.38560  0.73170  Biso   1.000  H
  H18      1.0000 0.99960  0.61440  0.26830  Biso   1.000  H
  H19      1.0000 0.87190  0.29880  0.65340  Biso   1.000  H
  H20      1.0000 0.12810  0.70120  0.34660  Biso   1.000  H
  H21      1.0000 0.88550  0.42100  0.65220  Biso   1.000  H
  H22      1.0000 0.11450  0.57900  0.34780  Biso   1.000  H
  C31      1.0000 0.88210  0.32150  0.86180  Biso   1.000  C
  C32      1.0000 0.11790  0.67850  0.13820  Biso   1.000  C
  H23      1.0000 0.98000  0.34070  0.88690  Biso   1.000  H
  H24      1.0000 0.02000  0.65930  0.11310  Biso   1.000  H
  H25      1.0000 0.84890  0.34020  0.91960  Biso   1.000  H
  H26      1.0000 0.15110  0.65980  0.08040  Biso   1.000  H
  H27      1.0000 0.84960  0.24540  0.83270  Biso   1.000  H
  H28      1.0000 0.15040  0.75460  0.16730  Biso   1.000  H
  N3       1.0000 0.86650  0.49849  0.82534  Biso   1.000  N
  N4       1.0000 0.13350  0.50151  0.17466  Biso   1.000  N
  O11      1.0000 0.98350  0.54811  0.88836  Biso   1.000  O
  O12      1.0000 0.01650  0.45189  0.11164  Biso   1.000  O
  C33      1.0000 0.76840  0.54455  0.78068  Biso   1.000  C
  C34      1.0000 0.23160  0.45545  0.21932  Biso   1.000  C
  C35      1.0000 0.77670  0.65741  0.80429  Biso   1.000  C
  C36      1.0000 0.22330  0.34259  0.19571  Biso   1.000  C
  C37      1.0000 0.88370  0.73905  0.87574  Biso   1.000  C
  C38      1.0000 0.11630  0.26095  0.12426  Biso   1.000  C
  H29      1.0000 0.96560  0.72850  0.91660  Biso   1.000  H
  H30      1.0000 0.03440  0.27150  0.08340  Biso   1.000  H
  N5       1.0000 0.85390  0.83288  0.87788  Biso   1.000  N
  N6       1.0000 0.14610  0.16712  0.12212  Biso   1.000  N
  N7       1.0000 0.72800  0.81194  0.80729  Biso   1.000  N
  N8       1.0000 0.27200  0.18806  0.19271  Biso   1.000  N
  C39      1.0000 0.66420  0.90020  0.79050  Biso   1.000  C
  C40      1.0000 0.33580  0.09980  0.20950  Biso   1.000  C
  H31      1.0000 0.73400  0.96250  0.79390  Biso   1.000  H
  H32      1.0000 0.26600  0.03750  0.20610  Biso   1.000  H
  H33      1.0000 0.62950  0.91810  0.84840  Biso   1.000  H
  H34      1.0000 0.37050  0.08190  0.15160  Biso   1.000  H
  C41      1.0000 0.55380  0.88110  0.69190  Biso   1.000  C
  C42      1.0000 0.44620  0.11890  0.30810  Biso   1.000  C
  H35      1.0000 0.58690  0.86160  0.63340  Biso   1.000  H
  H36      1.0000 0.41310  0.13840  0.36660  Biso   1.000  H
  H37      1.0000 0.48170  0.82080  0.68910  Biso   1.000  H
  H38      1.0000 0.51830  0.17920  0.31090  Biso   1.000  H
  C43      1.0000 0.49590  0.97710  0.67860  Biso   1.000  C
  C44      1.0000 0.50410  0.02290  0.32140  Biso   1.000  C
  H39      1.0000 0.56560  0.03420  0.67280  Biso   1.000  H
  H40      1.0000 0.43440  0.96580  0.32720  Biso   1.000  H
  H41      1.0000 0.47490  0.00220  0.74210  Biso   1.000  H
  H42      1.0000 0.52510  0.99780  0.25790  Biso   1.000  H
  C45      1.0000 0.37400  0.95890  0.58790  Biso   1.000  C
  C46      1.0000 0.62600  0.04110  0.41210  Biso   1.000  C
  H43      1.0000 0.34820  0.02550  0.58330  Biso   1.000  H
  H44      1.0000 0.65180  0.97450  0.41670  Biso   1.000  H
  H45      1.0000 0.39220  0.93160  0.52450  Biso   1.000  H
  H46      1.0000 0.60780  0.06840  0.47550  Biso   1.000  H
  H47      1.0000 0.30110  0.90750  0.59580  Biso   1.000  H
  H48      1.0000 0.69890  0.09250  0.40420  Biso   1.000  H
  C47      1.0000 0.67900  0.70849  0.76267  Biso   1.000  C
  C48      1.0000 0.32100  0.29151  0.23733  Biso   1.000  C
  H49      1.0000 0.59390  0.67640  0.71230  Biso   1.000  H
  H50      1.0000 0.40610  0.32360  0.28770  Biso   1.000  H
  C49      1.0000 0.40800  0.37220  0.97880  Biso   1.000  C
  C50      1.0000 0.59200  0.62780  0.02120  Biso   1.000  C
  C51      1.0000 0.53570  0.42550  0.04780  Biso   1.000  C
  C52      1.0000 0.46430  0.57450  0.95220  Biso   1.000  C
  H51      1.0000 0.53880  0.36370  0.07430  Biso   1.000  H
  H52      1.0000 0.46120  0.63630  0.92570  Biso   1.000  H
  C53      1.0000 0.59500  0.52620  0.05410  Biso   1.000  C
  C54      1.0000 0.40500  0.47380  0.94590  Biso   1.000  C
  C55      1.0000 0.52360  0.58470  0.98780  Biso   1.000  C
  C56      1.0000 0.47640  0.41530  0.01220  Biso   1.000  C
  C57      1.0000 0.39520  0.53430  0.92200  Biso   1.000  C
  C58      1.0000 0.60480  0.46570  0.07800  Biso   1.000  C
  H53      1.0000 0.31980  0.54500  0.87270  Biso   1.000  H
  H54      1.0000 0.68020  0.45500  0.12730  Biso   1.000  H
  C59      1.0000 0.33390  0.43390  0.91120  Biso   1.000  C
  C60      1.0000 0.66610  0.56610  0.08880  Biso   1.000  C
  H55      1.0000 0.33540  0.36910  0.93230  Biso   1.000  H
  H56      1.0000 0.66460  0.63090  0.06770  Biso   1.000  H
  C61      1.0000 0.33820  0.25340  0.96540  Biso   1.000  C
  C62      1.0000 0.66180  0.74660  0.03460  Biso   1.000  C
  H57      1.0000 0.34090  0.18400  0.98100  Biso   1.000  H
  H58      1.0000 0.65910  0.81600  0.01900  Biso   1.000  H
  H59      1.0000 0.26380  0.27600  0.98210  Biso   1.000  H
  H60      1.0000 0.73620  0.72400  0.01790  Biso   1.000  H
  H61      1.0000 0.32570  0.24910  0.89150  Biso   1.000  H
  H62      1.0000 0.67430  0.75090  0.10850  Biso   1.000  H
  C63      1.0000 0.74000  0.57680  0.13440  Biso   1.000  C
  C64      1.0000 0.26000  0.42320  0.86560  Biso   1.000  C
  H63      1.0000 0.74750  0.51250  0.16000  Biso   1.000  H
  H64      1.0000 0.25250  0.48750  0.84000  Biso   1.000  H
  H65      1.0000 0.81150  0.59670  0.10500  Biso   1.000  H
  H66      1.0000 0.18850  0.40330  0.89500  Biso   1.000  H
  H67      1.0000 0.74800  0.63400  0.19190  Biso   1.000  H
  H68      1.0000 0.25200  0.36600  0.80810  Biso   1.000  H
  C65      1.0000 0.59930  0.70860  0.00380  Biso   1.000  C
  C66      1.0000 0.40070  0.29140  0.99620  Biso   1.000  C
  H69      1.0000 0.60800  0.63730  0.00950  Biso   1.000  H
  H70      1.0000 0.39200  0.36270  0.99050  Biso   1.000  H
  H71      1.0000 0.52730  0.72380  0.02940  Biso   1.000  H
  H72      1.0000 0.47270  0.27620  0.97060  Biso   1.000  H
  H73      1.0000 0.57850  0.71370  0.93110  Biso   1.000  H
  H74      1.0000 0.42150  0.28630  0.06890  Biso   1.000  H
  F25      1.0000 0.61900  0.10530  0.98480  Biso   1.000  F
  F26      1.0000 0.38100  0.89470  0.01520  Biso   1.000  F
  F27      1.0000 0.74690  0.24620  0.06980  Biso   1.000  F
  F28      1.0000 0.25310  0.75380  0.93020  Biso   1.000  F
  F29      1.0000 0.63640  0.14060  0.13310  Biso   1.000  F
  F30      1.0000 0.36360  0.85940  0.86690  Biso   1.000  F
  F31      1.0000 0.23540  0.19290  0.50760  Biso   1.000  F
  F32      1.0000 0.76460  0.80710  0.49240  Biso   1.000  F
  F33      1.0000 0.14010  0.19450  0.37230  Biso   1.000  F
  F34      1.0000 0.85990  0.80550  0.62770  Biso   1.000  F
  F35      1.0000 0.06070  0.22550  0.49620  Biso   1.000  F
  F36      1.0000 0.93930  0.77450  0.50380  Biso   1.000  F
  F37      1.0000 0.28400  0.66500  0.70810  Biso   1.000  F
  F38      1.0000 0.71600  0.33500  0.29190  Biso   1.000  F
  F39      1.0000 0.09280  0.56850  0.64790  Biso   1.000  F
  F40      1.0000 0.90720  0.43150  0.35210  Biso   1.000  F
  F41      1.0000 0.87890  0.83330  0.26600  Biso   1.000  F
  F42      1.0000 0.12110  0.16670  0.73400  Biso   1.000  F
  F43      1.0000 0.93770  0.07490  0.68110  Biso   1.000  F
  F44      1.0000 0.06230  0.92510  0.31890  Biso   1.000  F
  F45      1.0000 0.94050  0.98530  0.35980  Biso   1.000  F
  F46      1.0000 0.05950  0.01470  0.64020  Biso   1.000  F
