data_image0
_cell_length_a       10.4659
_cell_length_b       13.0407
_cell_length_c       13.4625
_cell_angle_alpha    98.788
_cell_angle_beta     106.123
_cell_angle_gamma    101.592

_symmetry_space_group_name_H-M    "P 1"
_symmetry_int_tables_number       1

loop_
  _symmetry_equiv_pos_as_xyz
  'x, y, z'

loop_
  _atom_site_label
  _atom_site_occupancy
  _atom_site_fract_x
  _atom_site_fract_y
  _atom_site_fract_z
  _atom_site_thermal_displace_type
  _atom_site_B_iso_or_equiv
  _atom_site_type_symbol
  Cu1      1.0000 0.50000  0.50000  0.50000  Biso   1.000  Cu
  O1       1.0000 0.66019  0.63639  0.53992  Biso   1.000  O
  O2       1.0000 0.33981  0.36361  0.46008  Biso   1.000  O
  C1       1.0000 0.84640  0.76430  0.53270  Biso   1.000  C
  C2       1.0000 0.15360  0.23570  0.46730  Biso   1.000  C
  F1       1.0000 0.76960  0.84140  0.50380  Biso   1.000  F
  F2       1.0000 0.23040  0.15860  0.49620  Biso   1.000  F
  F3       1.0000 0.91960  0.79950  0.63880  Biso   1.000  F
  F4       1.0000 0.08040  0.20050  0.36120  Biso   1.000  F
  F5       1.0000 0.93600  0.77810  0.48400  Biso   1.000  F
  F6       1.0000 0.06400  0.22190  0.51600  Biso   1.000  F
  C3       1.0000 0.76190  0.64848  0.50641  Biso   1.000  C
  C4       1.0000 0.23810  0.35152  0.49359  Biso   1.000  C
  C5       1.0000 0.80450  0.57036  0.45076  Biso   1.000  C
  C6       1.0000 0.19550  0.42964  0.54924  Biso   1.000  C
  H1       1.0000 0.88150  0.59200  0.42760  Biso   1.000  H
  H2       1.0000 0.11850  0.40800  0.57240  Biso   1.000  H
  C7       1.0000 0.73850  0.46157  0.42771  Biso   1.000  C
  C8       1.0000 0.26150  0.53843  0.57229  Biso   1.000  C
  C9       1.0000 0.79130  0.38310  0.36430  Biso   1.000  C
  C10      1.0000 0.20870  0.61690  0.63570  Biso   1.000  C
  F7       1.0000 0.81240  0.31150  0.42470  Biso   1.000  F
  F8       1.0000 0.18760  0.68850  0.57530  Biso   1.000  F
  F9       1.0000 0.91100  0.43070  0.34700  Biso   1.000  F
  F10      1.0000 0.08900  0.56930  0.65300  Biso   1.000  F
  F11      1.0000 0.70500  0.32700  0.27070  Biso   1.000  F
  F12      1.0000 0.29500  0.67300  0.72930  Biso   1.000  F
  O3       1.0000 0.63848  0.41676  0.45306  Biso   1.000  O
  O4       1.0000 0.36152  0.58324  0.54694  Biso   1.000  O
  Cu2      1.0000 0.00000  0.00000  0.00000  Biso   1.000  Cu
  O5       1.0000 0.99492  0.94228  0.12625  Biso   1.000  O
  O6       1.0000 0.00508  0.05772  0.87375  Biso   1.000  O
  C11      1.0000 0.95670  0.92490  0.28610  Biso   1.000  C
  C12      1.0000 0.04330  0.07510  0.71390  Biso   1.000  C
  F13      1.0000 0.09950  0.93760  0.33140  Biso   1.000  F
  F14      1.0000 0.90050  0.06240  0.66860  Biso   1.000  F
  F15      1.0000 0.90700  0.96570  0.35700  Biso   1.000  F
  F16      1.0000 0.09300  0.03430  0.64300  Biso   1.000  F
  F17      1.0000 0.90790  0.81870  0.26530  Biso   1.000  F
  F18      1.0000 0.09210  0.18130  0.73470  Biso   1.000  F
  C13      1.0000 0.92790  0.96869  0.18518  Biso   1.000  C
  C14      1.0000 0.07210  0.03131  0.81482  Biso   1.000  C
  C15      1.0000 0.83230  0.02994  0.16820  Biso   1.000  C
  C16      1.0000 0.16770  0.97006  0.83180  Biso   1.000  C
  H3       1.0000 0.78940  0.04470  0.22040  Biso   1.000  H
  H4       1.0000 0.21060  0.95530  0.77960  Biso   1.000  H
  C17      1.0000 0.79800  0.06982  0.07794  Biso   1.000  C
  C18      1.0000 0.20200  0.93018  0.92206  Biso   1.000  C
  C19      1.0000 0.69000  0.13430  0.06250  Biso   1.000  C
  C20      1.0000 0.31000  0.86570  0.93750  Biso   1.000  C
  F19      1.0000 0.74200  0.22560  0.06800  Biso   1.000  F
  F20      1.0000 0.25800  0.77440  0.93200  Biso   1.000  F
  F21      1.0000 0.58210  0.09650  0.95680  Biso   1.000  F
  F22      1.0000 0.41790  0.90350  0.04320  Biso   1.000  F
  F23      1.0000 0.62080  0.13180  0.13670  Biso   1.000  F
  F24      1.0000 0.37920  0.86820  0.86330  Biso   1.000  F
  O7       1.0000 0.84770  0.06312  0.00280  Biso   1.000  O
  O8       1.0000 0.15230  0.93688  0.99720  Biso   1.000  O
  O9       1.0000 0.54133  0.48435  0.65142  Biso   1.000  O
  O10      1.0000 0.45867  0.51565  0.34858  Biso   1.000  O
  N1       1.0000 0.65604  0.46644  0.70659  Biso   1.000  N
  N2       1.0000 0.34396  0.53356  0.29341  Biso   1.000  N
  C21      1.0000 0.66370  0.35557  0.72244  Biso   1.000  C
  C22      1.0000 0.33630  0.64443  0.27756  Biso   1.000  C
  C23      1.0000 0.58050  0.33189  0.79740  Biso   1.000  C
  C24      1.0000 0.41950  0.66811  0.20260  Biso   1.000  C
  H5       1.0000 0.62260  0.38480  0.86490  Biso   1.000  H
  H6       1.0000 0.37740  0.61520  0.13510  Biso   1.000  H
  H7       1.0000 0.48590  0.33590  0.76520  Biso   1.000  H
  H8       1.0000 0.51410  0.66410  0.23480  Biso   1.000  H
  H9       1.0000 0.57970  0.25980  0.81000  Biso   1.000  H
  H10      1.0000 0.42030  0.74020  0.19000  Biso   1.000  H
  C25      1.0000 0.60050  0.27323  0.61793  Biso   1.000  C
  C26      1.0000 0.39950  0.72677  0.38207  Biso   1.000  C
  H11      1.0000 0.50080  0.26450  0.59300  Biso   1.000  H
  H12      1.0000 0.49920  0.73550  0.40700  Biso   1.000  H
  H13      1.0000 0.64040  0.29780  0.56530  Biso   1.000  H
  H14      1.0000 0.35960  0.70220  0.43470  Biso   1.000  H
  H15      1.0000 0.61950  0.20430  0.62810  Biso   1.000  H
  H16      1.0000 0.38050  0.79570  0.37190  Biso   1.000  H
  C27      1.0000 0.82050  0.37565  0.77334  Biso   1.000  C
  C28      1.0000 0.17950  0.62435  0.22666  Biso   1.000  C
  C29      1.0000 0.89690  0.36167  0.69247  Biso   1.000  C
  C30      1.0000 0.10310  0.63833  0.30753  Biso   1.000  C
  H17      1.0000 0.99580  0.37710  0.72970  Biso   1.000  H
  H18      1.0000 0.00420  0.62290  0.27030  Biso   1.000  H
  H19      1.0000 0.86370  0.28770  0.65050  Biso   1.000  H
  H20      1.0000 0.13630  0.71230  0.34950  Biso   1.000  H
  H21      1.0000 0.88010  0.41130  0.64530  Biso   1.000  H
  H22      1.0000 0.11990  0.58870  0.35470  Biso   1.000  H
  C31      1.0000 0.86600  0.31536  0.85951  Biso   1.000  C
  C32      1.0000 0.13400  0.68464  0.14049  Biso   1.000  C
  H23      1.0000 0.96670  0.33370  0.88670  Biso   1.000  H
  H24      1.0000 0.03330  0.66630  0.11330  Biso   1.000  H
  H25      1.0000 0.82990  0.33560  0.91740  Biso   1.000  H
  H26      1.0000 0.17010  0.66440  0.08260  Biso   1.000  H
  H27      1.0000 0.83070  0.23790  0.82990  Biso   1.000  H
  H28      1.0000 0.16930  0.76210  0.17010  Biso   1.000  H
  N3       1.0000 0.85981  0.49377  0.82123  Biso   1.000  N
  N4       1.0000 0.14019  0.50623  0.17877  Biso   1.000  N
  O11      1.0000 0.97752  0.54247  0.88785  Biso   1.000  O
  O12      1.0000 0.02248  0.45753  0.11215  Biso   1.000  O
  C33      1.0000 0.76290  0.54207  0.77463  Biso   1.000  C
  C34      1.0000 0.23710  0.45793  0.22537  Biso   1.000  C
  C35      1.0000 0.77380  0.65544  0.79979  Biso   1.000  C
  C36      1.0000 0.22620  0.34456  0.20021  Biso   1.000  C
  C37      1.0000 0.88450  0.73688  0.87233  Biso   1.000  C
  C38      1.0000 0.11550  0.26312  0.12767  Biso   1.000  C
  H29      1.0000 0.96780  0.72520  0.91350  Biso   1.000  H
  H30      1.0000 0.03220  0.27480  0.08650  Biso   1.000  H
  N5       1.0000 0.85692  0.83230  0.87556  Biso   1.000  N
  N6       1.0000 0.14308  0.16770  0.12444  Biso   1.000  N
  N7       1.0000 0.72807  0.81198  0.80420  Biso   1.000  N
  N8       1.0000 0.27193  0.18802  0.19580  Biso   1.000  N
  C39      1.0000 0.66480  0.90174  0.78907  Biso   1.000  C
  C40      1.0000 0.33520  0.09826  0.21093  Biso   1.000  C
  H31      1.0000 0.62940  0.91980  0.84870  Biso   1.000  H
  H32      1.0000 0.37060  0.08020  0.15130  Biso   1.000  H
  H33      1.0000 0.73680  0.96530  0.79170  Biso   1.000  H
  H34      1.0000 0.26320  0.03470  0.20830  Biso   1.000  H
  C41      1.0000 0.54950  0.87978  0.68692  Biso   1.000  C
  C42      1.0000 0.45050  0.12022  0.31308  Biso   1.000  C
  H35      1.0000 0.58340  0.86110  0.62660  Biso   1.000  H
  H36      1.0000 0.41660  0.13890  0.37340  Biso   1.000  H
  H37      1.0000 0.47530  0.81790  0.68430  Biso   1.000  H
  H38      1.0000 0.52470  0.18210  0.31570  Biso   1.000  H
  C43      1.0000 0.49270  0.97754  0.67720  Biso   1.000  C
  C44      1.0000 0.50730  0.02246  0.32280  Biso   1.000  C
  H39      1.0000 0.56640  0.03760  0.67560  Biso   1.000  H
  H40      1.0000 0.43360  0.96240  0.32440  Biso   1.000  H
  H41      1.0000 0.46670  0.99920  0.74110  Biso   1.000  H
  H42      1.0000 0.53330  0.00080  0.25890  Biso   1.000  H
  C45      1.0000 0.36880  0.96000  0.57970  Biso   1.000  C
  C46      1.0000 0.63120  0.04000  0.42030  Biso   1.000  C
  H43      1.0000 0.34320  0.02780  0.57550  Biso   1.000  H
  H44      1.0000 0.65680  0.97220  0.42450  Biso   1.000  H
  H45      1.0000 0.39170  0.93420  0.51610  Biso   1.000  H
  H46      1.0000 0.60830  0.06580  0.48390  Biso   1.000  H
  H47      1.0000 0.29160  0.90650  0.58450  Biso   1.000  H
  H48      1.0000 0.70840  0.09350  0.41550  Biso   1.000  H
  C47      1.0000 0.67540  0.70823  0.75872  Biso   1.000  C
  C48      1.0000 0.32460  0.29177  0.24128  Biso   1.000  C
  H49      1.0000 0.58720  0.67630  0.70780  Biso   1.000  H
  H50      1.0000 0.41280  0.32370  0.29220  Biso   1.000  H
  C49      1.0000 0.40730  0.37230  0.98120  Biso   1.000  C
  C50      1.0000 0.59270  0.62770  0.01880  Biso   1.000  C
  C51      1.0000 0.54100  0.42680  0.04660  Biso   1.000  C
  C52      1.0000 0.45900  0.57320  0.95340  Biso   1.000  C
  H51      1.0000 0.54880  0.36250  0.07000  Biso   1.000  H
  H52      1.0000 0.45120  0.63750  0.93000  Biso   1.000  H
  C53      1.0000 0.59970  0.52680  0.04930  Biso   1.000  C
  C54      1.0000 0.40030  0.47320  0.95070  Biso   1.000  C
  C55      1.0000 0.52010  0.58550  0.98500  Biso   1.000  C
  C56      1.0000 0.47990  0.41450  0.01500  Biso   1.000  C
  C57      1.0000 0.38860  0.53490  0.92410  Biso   1.000  C
  C58      1.0000 0.61140  0.46510  0.07590  Biso   1.000  C
  H53      1.0000 0.31070  0.54600  0.87480  Biso   1.000  H
  H54      1.0000 0.68930  0.45400  0.12520  Biso   1.000  H
  C59      1.0000 0.32680  0.43180  0.91750  Biso   1.000  C
  C60      1.0000 0.67320  0.56820  0.08250  Biso   1.000  C
  H55      1.0000 0.33470  0.36350  0.93060  Biso   1.000  H
  H56      1.0000 0.66530  0.63650  0.06940  Biso   1.000  H
  C61      1.0000 0.33940  0.25180  0.97100  Biso   1.000  C
  C62      1.0000 0.66060  0.74820  0.02900  Biso   1.000  C
  H57      1.0000 0.34580  0.18260  0.98910  Biso   1.000  H
  H58      1.0000 0.65420  0.81740  0.01090  Biso   1.000  H
  H59      1.0000 0.26230  0.27280  0.98880  Biso   1.000  H
  H60      1.0000 0.73770  0.72720  0.01120  Biso   1.000  H
  H61      1.0000 0.32440  0.24530  0.89490  Biso   1.000  H
  H62      1.0000 0.67560  0.75470  0.10510  Biso   1.000  H
  C63      1.0000 0.74940  0.57750  0.12130  Biso   1.000  C
  C64      1.0000 0.25060  0.42250  0.87870  Biso   1.000  C
  H63      1.0000 0.75840  0.51260  0.14780  Biso   1.000  H
  H64      1.0000 0.24160  0.48740  0.85220  Biso   1.000  H
  H65      1.0000 0.81500  0.59370  0.08260  Biso   1.000  H
  H66      1.0000 0.18500  0.40630  0.91740  Biso   1.000  H
  H67      1.0000 0.76860  0.63780  0.18110  Biso   1.000  H
  H68      1.0000 0.23140  0.36220  0.81890  Biso   1.000  H
  C65      1.0000 0.59390  0.70570  0.99770  Biso   1.000  C
  C66      1.0000 0.40610  0.29430  0.00230  Biso   1.000  C
  H69      1.0000 0.60620  0.63450  0.00550  Biso   1.000  H
  H70      1.0000 0.39380  0.36550  0.99450  Biso   1.000  H
  H71      1.0000 0.51980  0.71950  0.02490  Biso   1.000  H
  H72      1.0000 0.48020  0.28050  0.97510  Biso   1.000  H
  H73      1.0000 0.56990  0.70850  0.92270  Biso   1.000  H
  H74      1.0000 0.43010  0.29150  0.07730  Biso   1.000  H
  F25      1.0000 0.61240  0.10280  0.97600  Biso   1.000  F
  F26      1.0000 0.38760  0.89720  0.02400  Biso   1.000  F
  F27      1.0000 0.62330  0.12880  0.12920  Biso   1.000  F
  F28      1.0000 0.37670  0.87120  0.87080  Biso   1.000  F
  F29      1.0000 0.75300  0.24760  0.07500  Biso   1.000  F
  F30      1.0000 0.24700  0.75240  0.92500  Biso   1.000  F
  F31      1.0000 0.23200  0.18620  0.50100  Biso   1.000  F
  F32      1.0000 0.76800  0.81380  0.49900  Biso   1.000  F
  F33      1.0000 0.10900  0.20080  0.36630  Biso   1.000  F
  F34      1.0000 0.89100  0.79920  0.63370  Biso   1.000  F
  F35      1.0000 0.04300  0.21700  0.50200  Biso   1.000  F
  F36      1.0000 0.95700  0.78300  0.49800  Biso   1.000  F
  F37      1.0000 0.16730  0.69630  0.59310  Biso   1.000  F
  F38      1.0000 0.83270  0.30370  0.40690  Biso   1.000  F
  F39      1.0000 0.31600  0.66230  0.72430  Biso   1.000  F
  F40      1.0000 0.68400  0.33770  0.27570  Biso   1.000  F
  F41      1.0000 0.10900  0.57660  0.66600  Biso   1.000  F
  F42      1.0000 0.89100  0.42340  0.33400  Biso   1.000  F
  F43      1.0000 0.88880  0.82780  0.26340  Biso   1.000  F
  F44      1.0000 0.11120  0.17220  0.73660  Biso   1.000  F
  F45      1.0000 0.92000  0.06720  0.67240  Biso   1.000  F
  F46      1.0000 0.08000  0.93280  0.32760  Biso   1.000  F
  F47      1.0000 0.92650  0.98030  0.36270  Biso   1.000  F
  F48      1.0000 0.07350  0.01970  0.63730  Biso   1.000  F
