data_image0
_cell_length_a       10.4354
_cell_length_b       13.0352
_cell_length_c       13.4418
_cell_angle_alpha    98.783
_cell_angle_beta     105.985
_cell_angle_gamma    101.687

_symmetry_space_group_name_H-M    "P 1"
_symmetry_int_tables_number       1

loop_
  _symmetry_equiv_pos_as_xyz
  'x, y, z'

loop_
  _atom_site_label
  _atom_site_occupancy
  _atom_site_fract_x
  _atom_site_fract_y
  _atom_site_fract_z
  _atom_site_thermal_displace_type
  _atom_site_B_iso_or_equiv
  _atom_site_type_symbol
  Cu1      1.0000 0.50000  0.50000  0.50000  Biso   1.000  Cu
  O1       1.0000 0.66133  0.63665  0.54002  Biso   1.000  O
  O2       1.0000 0.33867  0.36335  0.45998  Biso   1.000  O
  C1       1.0000 0.84800  0.76491  0.53283  Biso   1.000  C
  C2       1.0000 0.15200  0.23509  0.46717  Biso   1.000  C
  F1       1.0000 0.77150  0.84000  0.50550  Biso   1.000  F
  F2       1.0000 0.22850  0.16000  0.49450  Biso   1.000  F
  F3       1.0000 0.92120  0.80040  0.63850  Biso   1.000  F
  F4       1.0000 0.07880  0.19960  0.36150  Biso   1.000  F
  F5       1.0000 0.93800  0.77820  0.48390  Biso   1.000  F
  F6       1.0000 0.06200  0.22180  0.51610  Biso   1.000  F
  C3       1.0000 0.76310  0.64837  0.50619  Biso   1.000  C
  C4       1.0000 0.23690  0.35163  0.49381  Biso   1.000  C
  C5       1.0000 0.80570  0.57003  0.45049  Biso   1.000  C
  C6       1.0000 0.19430  0.42997  0.54951  Biso   1.000  C
  H1       1.0000 0.88320  0.59160  0.42740  Biso   1.000  H
  H2       1.0000 0.11680  0.40840  0.57260  Biso   1.000  H
  C7       1.0000 0.73910  0.46122  0.42737  Biso   1.000  C
  C8       1.0000 0.26090  0.53878  0.57263  Biso   1.000  C
  C9       1.0000 0.79160  0.38279  0.36366  Biso   1.000  C
  C10      1.0000 0.20840  0.61721  0.63634  Biso   1.000  C
  F7       1.0000 0.81490  0.31070  0.42480  Biso   1.000  F
  F8       1.0000 0.18510  0.68930  0.57520  Biso   1.000  F
  F9       1.0000 0.91600  0.43090  0.34550  Biso   1.000  F
  F10      1.0000 0.08400  0.56910  0.65450  Biso   1.000  F
  F11      1.0000 0.71040  0.32920  0.27310  Biso   1.000  F
  F12      1.0000 0.28960  0.67080  0.72690  Biso   1.000  F
  O3       1.0000 0.63933  0.41641  0.45293  Biso   1.000  O
  O4       1.0000 0.36067  0.58359  0.54707  Biso   1.000  O
  Cu2      1.0000 0.00000  0.00000  0.00000  Biso   1.000  Cu
  O5       1.0000 0.99455  0.94209  0.12624  Biso   1.000  O
  O6       1.0000 0.00545  0.05791  0.87376  Biso   1.000  O
  C11      1.0000 0.95690  0.92490  0.28670  Biso   1.000  C
  C12      1.0000 0.04310  0.07510  0.71330  Biso   1.000  C
  F13      1.0000 0.09830  0.93800  0.33180  Biso   1.000  F
  F14      1.0000 0.90170  0.06200  0.66820  Biso   1.000  F
  F15      1.0000 0.90690  0.96580  0.35750  Biso   1.000  F
  F16      1.0000 0.09310  0.03420  0.64250  Biso   1.000  F
  F17      1.0000 0.90490  0.81790  0.26550  Biso   1.000  F
  F18      1.0000 0.09510  0.18210  0.73450  Biso   1.000  F
  C13      1.0000 0.92730  0.96876  0.18533  Biso   1.000  C
  C14      1.0000 0.07270  0.03124  0.81467  Biso   1.000  C
  C15      1.0000 0.83120  0.02985  0.16850  Biso   1.000  C
  C16      1.0000 0.16880  0.97015  0.83150  Biso   1.000  C
  H3       1.0000 0.78790  0.04450  0.22070  Biso   1.000  H
  H4       1.0000 0.21210  0.95550  0.77930  Biso   1.000  H
  C17      1.0000 0.79730  0.06961  0.07807  Biso   1.000  C
  C18      1.0000 0.20270  0.93039  0.92193  Biso   1.000  C
  C19      1.0000 0.68910  0.13420  0.06270  Biso   1.000  C
  C20      1.0000 0.31090  0.86580  0.93730  Biso   1.000  C
  F19      1.0000 0.74100  0.22640  0.06900  Biso   1.000  F
  F20      1.0000 0.25900  0.77360  0.93100  Biso   1.000  F
  F21      1.0000 0.58020  0.09500  0.96100  Biso   1.000  F
  F22      1.0000 0.41980  0.90500  0.03900  Biso   1.000  F
  F23      1.0000 0.61900  0.12500  0.14230  Biso   1.000  F
  F24      1.0000 0.38100  0.87500  0.85770  Biso   1.000  F
  O7       1.0000 0.84716  0.06283  0.00276  Biso   1.000  O
  O8       1.0000 0.15284  0.93717  0.99724  Biso   1.000  O
  O9       1.0000 0.54100  0.48436  0.65100  Biso   1.000  O
  O10      1.0000 0.45900  0.51564  0.34900  Biso   1.000  O
  N1       1.0000 0.65568  0.46627  0.70605  Biso   1.000  N
  N2       1.0000 0.34432  0.53373  0.29395  Biso   1.000  N
  C21      1.0000 0.66250  0.35494  0.72170  Biso   1.000  C
  C22      1.0000 0.33750  0.64506  0.27830  Biso   1.000  C
  C23      1.0000 0.57930  0.33154  0.79671  Biso   1.000  C
  C24      1.0000 0.42070  0.66846  0.20329  Biso   1.000  C
  H5       1.0000 0.62170  0.38460  0.86420  Biso   1.000  H
  H6       1.0000 0.37830  0.61540  0.13580  Biso   1.000  H
  H7       1.0000 0.48460  0.33560  0.76460  Biso   1.000  H
  H8       1.0000 0.51540  0.66440  0.23540  Biso   1.000  H
  H9       1.0000 0.57840  0.25940  0.80950  Biso   1.000  H
  H10      1.0000 0.42160  0.74060  0.19050  Biso   1.000  H
  C25      1.0000 0.59990  0.27288  0.61719  Biso   1.000  C
  C26      1.0000 0.40010  0.72712  0.38281  Biso   1.000  C
  H11      1.0000 0.50000  0.26400  0.59200  Biso   1.000  H
  H12      1.0000 0.50000  0.73600  0.40800  Biso   1.000  H
  H13      1.0000 0.64040  0.29770  0.56460  Biso   1.000  H
  H14      1.0000 0.35960  0.70230  0.43540  Biso   1.000  H
  H15      1.0000 0.61890  0.20390  0.62730  Biso   1.000  H
  H16      1.0000 0.38110  0.79610  0.37270  Biso   1.000  H
  C27      1.0000 0.82020  0.37503  0.77292  Biso   1.000  C
  C28      1.0000 0.17980  0.62497  0.22708  Biso   1.000  C
  C29      1.0000 0.89690  0.36071  0.69203  Biso   1.000  C
  C30      1.0000 0.10310  0.63929  0.30797  Biso   1.000  C
  H17      1.0000 0.99600  0.37620  0.72930  Biso   1.000  H
  H18      1.0000 0.00400  0.62380  0.27070  Biso   1.000  H
  H19      1.0000 0.86350  0.28660  0.65020  Biso   1.000  H
  H20      1.0000 0.13650  0.71340  0.34980  Biso   1.000  H
  H21      1.0000 0.88030  0.41020  0.64470  Biso   1.000  H
  H22      1.0000 0.11970  0.58980  0.35530  Biso   1.000  H
  C31      1.0000 0.86450  0.31457  0.85956  Biso   1.000  C
  C32      1.0000 0.13550  0.68543  0.14044  Biso   1.000  C
  H23      1.0000 0.96540  0.33260  0.88720  Biso   1.000  H
  H24      1.0000 0.03460  0.66740  0.11280  Biso   1.000  H
  H25      1.0000 0.82780  0.33510  0.91720  Biso   1.000  H
  H26      1.0000 0.17220  0.66490  0.08280  Biso   1.000  H
  H27      1.0000 0.82870  0.23710  0.83000  Biso   1.000  H
  H28      1.0000 0.17130  0.76290  0.17000  Biso   1.000  H
  N3       1.0000 0.85982  0.49341  0.82081  Biso   1.000  N
  N4       1.0000 0.14018  0.50659  0.17919  Biso   1.000  N
  O11      1.0000 0.97756  0.54191  0.88777  Biso   1.000  O
  O12      1.0000 0.02244  0.45809  0.11223  Biso   1.000  O
  C33      1.0000 0.76310  0.54197  0.77444  Biso   1.000  C
  C34      1.0000 0.23690  0.45803  0.22556  Biso   1.000  C
  C35      1.0000 0.77410  0.65535  0.79940  Biso   1.000  C
  C36      1.0000 0.22590  0.34465  0.20060  Biso   1.000  C
  C37      1.0000 0.88540  0.73683  0.87225  Biso   1.000  C
  C38      1.0000 0.11460  0.26317  0.12775  Biso   1.000  C
  H29      1.0000 0.96880  0.72520  0.91350  Biso   1.000  H
  H30      1.0000 0.03120  0.27480  0.08650  Biso   1.000  H
  N5       1.0000 0.85749  0.83204  0.87532  Biso   1.000  N
  N6       1.0000 0.14251  0.16796  0.12468  Biso   1.000  N
  N7       1.0000 0.72823  0.81201  0.80384  Biso   1.000  N
  N8       1.0000 0.27177  0.18799  0.19616  Biso   1.000  N
  C39      1.0000 0.66530  0.90173  0.78909  Biso   1.000  C
  C40      1.0000 0.33470  0.09827  0.21091  Biso   1.000  C
  H31      1.0000 0.62980  0.91970  0.84890  Biso   1.000  H
  H32      1.0000 0.37020  0.08030  0.15110  Biso   1.000  H
  H33      1.0000 0.73760  0.96530  0.79170  Biso   1.000  H
  H34      1.0000 0.26240  0.03470  0.20830  Biso   1.000  H
  C41      1.0000 0.54940  0.87978  0.68664  Biso   1.000  C
  C42      1.0000 0.45060  0.12022  0.31336  Biso   1.000  C
  H35      1.0000 0.58340  0.86100  0.62610  Biso   1.000  H
  H36      1.0000 0.41660  0.13900  0.37390  Biso   1.000  H
  H37      1.0000 0.47480  0.81790  0.68410  Biso   1.000  H
  H38      1.0000 0.52520  0.18210  0.31590  Biso   1.000  H
  C43      1.0000 0.49270  0.97763  0.67698  Biso   1.000  C
  C44      1.0000 0.50730  0.02237  0.32302  Biso   1.000  C
  H39      1.0000 0.56670  0.03770  0.67530  Biso   1.000  H
  H40      1.0000 0.43330  0.96230  0.32470  Biso   1.000  H
  H41      1.0000 0.46640  0.99920  0.74090  Biso   1.000  H
  H42      1.0000 0.53360  0.00080  0.25910  Biso   1.000  H
  C45      1.0000 0.36860  0.95991  0.57935  Biso   1.000  C
  C46      1.0000 0.63140  0.04009  0.42065  Biso   1.000  C
  H43      1.0000 0.34290  0.02770  0.57510  Biso   1.000  H
  H44      1.0000 0.65710  0.97230  0.42490  Biso   1.000  H
  H45      1.0000 0.39180  0.93420  0.51570  Biso   1.000  H
  H46      1.0000 0.60820  0.06580  0.48430  Biso   1.000  H
  H47      1.0000 0.29110  0.90630  0.58420  Biso   1.000  H
  H48      1.0000 0.70890  0.09370  0.41580  Biso   1.000  H
  C47      1.0000 0.67530  0.70790  0.75823  Biso   1.000  C
  C48      1.0000 0.32470  0.29210  0.24177  Biso   1.000  C
  H49      1.0000 0.58690  0.67580  0.70730  Biso   1.000  H
  H50      1.0000 0.41310  0.32420  0.29270  Biso   1.000  H
  C49      1.0000 0.40700  0.37330  0.98100  Biso   1.000  C
  C50      1.0000 0.59300  0.62670  0.01900  Biso   1.000  C
  C51      1.0000 0.54200  0.42570  0.04620  Biso   1.000  C
  C52      1.0000 0.45800  0.57430  0.95380  Biso   1.000  C
  H51      1.0000 0.55270  0.35950  0.06420  Biso   1.000  H
  H52      1.0000 0.44730  0.64050  0.93580  Biso   1.000  H
  C53      1.0000 0.59960  0.52740  0.04920  Biso   1.000  C
  C54      1.0000 0.40040  0.47260  0.95080  Biso   1.000  C
  C55      1.0000 0.52010  0.58520  0.98520  Biso   1.000  C
  C56      1.0000 0.47990  0.41480  0.01480  Biso   1.000  C
  C57      1.0000 0.38780  0.53380  0.92360  Biso   1.000  C
  C58      1.0000 0.61220  0.46620  0.07640  Biso   1.000  C
  H53      1.0000 0.30970  0.54290  0.87280  Biso   1.000  H
  H54      1.0000 0.69030  0.45710  0.12720  Biso   1.000  H
  C59      1.0000 0.32560  0.43120  0.91820  Biso   1.000  C
  C60      1.0000 0.67440  0.56880  0.08180  Biso   1.000  C
  H55      1.0000 0.33230  0.36330  0.93340  Biso   1.000  H
  H56      1.0000 0.66770  0.63670  0.06660  Biso   1.000  H
  C61      1.0000 0.33920  0.25300  0.97070  Biso   1.000  C
  C62      1.0000 0.66080  0.74700  0.02930  Biso   1.000  C
  H57      1.0000 0.34240  0.18260  0.98710  Biso   1.000  H
  H58      1.0000 0.65760  0.81740  0.01290  Biso   1.000  H
  H59      1.0000 0.26240  0.27510  0.98840  Biso   1.000  H
  H60      1.0000 0.73760  0.72490  0.01160  Biso   1.000  H
  H61      1.0000 0.32590  0.24820  0.89490  Biso   1.000  H
  H62      1.0000 0.67410  0.75180  0.10510  Biso   1.000  H
  C63      1.0000 0.74990  0.57820  0.12020  Biso   1.000  C
  C64      1.0000 0.25010  0.42180  0.87980  Biso   1.000  C
  H63      1.0000 0.75890  0.51320  0.14680  Biso   1.000  H
  H64      1.0000 0.24110  0.48680  0.85320  Biso   1.000  H
  H65      1.0000 0.81590  0.59460  0.08160  Biso   1.000  H
  H66      1.0000 0.18410  0.40540  0.91840  Biso   1.000  H
  H67      1.0000 0.76880  0.63850  0.18010  Biso   1.000  H
  H68      1.0000 0.23120  0.36150  0.81990  Biso   1.000  H
  C65      1.0000 0.59270  0.70550  0.99660  Biso   1.000  C
  C66      1.0000 0.40730  0.29450  0.00340  Biso   1.000  C
  H69      1.0000 0.60190  0.63330  0.00280  Biso   1.000  H
  H70      1.0000 0.39810  0.36670  0.99720  Biso   1.000  H
  H71      1.0000 0.51840  0.72030  0.02330  Biso   1.000  H
  H72      1.0000 0.48160  0.27970  0.97670  Biso   1.000  H
  H73      1.0000 0.57090  0.71020  0.92190  Biso   1.000  H
  H74      1.0000 0.42910  0.28980  0.07810  Biso   1.000  H
  F25      1.0000 0.61110  0.10300  0.97200  Biso   1.000  F
  F26      1.0000 0.38890  0.89700  0.02800  Biso   1.000  F
  F27      1.0000 0.62300  0.13500  0.12370  Biso   1.000  F
  F28      1.0000 0.37700  0.86500  0.87630  Biso   1.000  F
  F29      1.0000 0.75300  0.24700  0.07200  Biso   1.000  F
  F30      1.0000 0.24700  0.75300  0.92800  Biso   1.000  F
  F31      1.0000 0.23190  0.18310  0.50260  Biso   1.000  F
  F32      1.0000 0.76810  0.81690  0.49740  Biso   1.000  F
  F33      1.0000 0.10670  0.20080  0.36490  Biso   1.000  F
  F34      1.0000 0.89330  0.79920  0.63510  Biso   1.000  F
  F35      1.0000 0.04100  0.21640  0.50330  Biso   1.000  F
  F36      1.0000 0.95900  0.78360  0.49670  Biso   1.000  F
  F37      1.0000 0.16800  0.69590  0.59510  Biso   1.000  F
  F38      1.0000 0.83200  0.30410  0.40490  Biso   1.000  F
  F39      1.0000 0.32210  0.66460  0.72870  Biso   1.000  F
  F40      1.0000 0.67790  0.33540  0.27130  Biso   1.000  F
  F41      1.0000 0.11200  0.57670  0.66630  Biso   1.000  F
  F42      1.0000 0.88800  0.42330  0.33370  Biso   1.000  F
  F43      1.0000 0.89000  0.82850  0.26440  Biso   1.000  F
  F44      1.0000 0.11000  0.17150  0.73560  Biso   1.000  F
  F45      1.0000 0.91630  0.06750  0.67200  Biso   1.000  F
  F46      1.0000 0.08370  0.93250  0.32800  Biso   1.000  F
  F47      1.0000 0.92520  0.98120  0.36350  Biso   1.000  F
  F48      1.0000 0.07480  0.01880  0.63650  Biso   1.000  F
