data_image0
_cell_length_a       8.866
_cell_length_b       18.597
_cell_length_c       28.241
_cell_angle_alpha    90
_cell_angle_beta     90
_cell_angle_gamma    90

_symmetry_space_group_name_H-M    "P 1"
_symmetry_int_tables_number       1

loop_
  _symmetry_equiv_pos_as_xyz
  'x, y, z'

loop_
  _atom_site_label
  _atom_site_occupancy
  _atom_site_fract_x
  _atom_site_fract_y
  _atom_site_fract_z
  _atom_site_thermal_displace_type
  _atom_site_B_iso_or_equiv
  _atom_site_type_symbol
  C1       1.0000 0.58550  0.11250  0.69540  Biso   1.000  C
  C2       1.0000 0.91450  0.88750  0.19540  Biso   1.000  C
  C3       1.0000 0.08550  0.38750  0.30460  Biso   1.000  C
  C4       1.0000 0.41450  0.61250  0.80460  Biso   1.000  C
  C5       1.0000 0.70980  0.11580  0.73340  Biso   1.000  C
  C6       1.0000 0.79020  0.88420  0.23340  Biso   1.000  C
  C7       1.0000 0.20980  0.38420  0.26660  Biso   1.000  C
  C8       1.0000 0.29020  0.61580  0.76660  Biso   1.000  C
  C9       1.0000 0.43740  0.37270  0.75200  Biso   1.000  C
  C10      1.0000 0.06260  0.62730  0.25200  Biso   1.000  C
  C11      1.0000 0.93740  0.12730  0.24800  Biso   1.000  C
  C12      1.0000 0.56260  0.87270  0.74800  Biso   1.000  C
  C13      1.0000 0.47320  0.35010  0.80360  Biso   1.000  C
  C14      1.0000 0.02680  0.64990  0.30360  Biso   1.000  C
  C15      1.0000 0.97320  0.14990  0.19640  Biso   1.000  C
  C16      1.0000 0.52680  0.85010  0.69640  Biso   1.000  C
  C17      1.0000 0.35720  0.17430  0.67260  Biso   1.000  C
  C18      1.0000 0.14280  0.82570  0.17260  Biso   1.000  C
  C19      1.0000 0.85720  0.32570  0.32740  Biso   1.000  C
  C20      1.0000 0.64280  0.67430  0.82740  Biso   1.000  C
  C21      1.0000 0.25930  0.11470  0.67960  Biso   1.000  C
  C22      1.0000 0.24070  0.88530  0.17960  Biso   1.000  C
  C23      1.0000 0.75930  0.38530  0.32040  Biso   1.000  C
  C24      1.0000 0.74070  0.61470  0.82040  Biso   1.000  C
  H1       1.0000 0.29580  0.07240  0.69290  Biso   1.000  H
  H2       1.0000 0.20420  0.92760  0.19290  Biso   1.000  H
  H3       1.0000 0.79580  0.42760  0.30710  Biso   1.000  H
  H4       1.0000 0.70420  0.57240  0.80710  Biso   1.000  H
  C25      1.0000 0.11420  0.11990  0.66680  Biso   1.000  C
  C26      1.0000 0.38580  0.88010  0.16680  Biso   1.000  C
  C27      1.0000 0.61420  0.38010  0.33320  Biso   1.000  C
  C28      1.0000 0.88580  0.61990  0.83320  Biso   1.000  C
  H5       1.0000 0.05140  0.08050  0.67170  Biso   1.000  H
  H6       1.0000 0.44860  0.91950  0.17170  Biso   1.000  H
  H7       1.0000 0.55140  0.41950  0.32830  Biso   1.000  H
  H8       1.0000 0.94860  0.58050  0.82830  Biso   1.000  H
  C29      1.0000 0.05250  0.18210  0.64640  Biso   1.000  C
  C30      1.0000 0.44750  0.81790  0.14640  Biso   1.000  C
  C31      1.0000 0.55250  0.31790  0.35360  Biso   1.000  C
  C32      1.0000 0.94750  0.68210  0.85360  Biso   1.000  C
  C33      1.0000 0.89800  0.18840  0.63560  Biso   1.000  C
  C34      1.0000 0.60200  0.81160  0.13560  Biso   1.000  C
  C35      1.0000 0.39800  0.31160  0.36440  Biso   1.000  C
  C36      1.0000 0.10200  0.68840  0.86440  Biso   1.000  C
  H9       1.0000 0.83340  0.15000  0.64150  Biso   1.000  H
  H10      1.0000 0.66660  0.85000  0.14150  Biso   1.000  H
  H11      1.0000 0.33340  0.35000  0.35850  Biso   1.000  H
  H12      1.0000 0.16660  0.65000  0.85850  Biso   1.000  H
  C37      1.0000 0.84360  0.24890  0.61700  Biso   1.000  C
  C38      1.0000 0.65640  0.75110  0.11700  Biso   1.000  C
  C39      1.0000 0.34360  0.25110  0.38300  Biso   1.000  C
  C40      1.0000 0.15640  0.74890  0.88300  Biso   1.000  C
  H13      1.0000 0.74180  0.25150  0.60920  Biso   1.000  H
  H14      1.0000 0.75820  0.74850  0.10920  Biso   1.000  H
  H15      1.0000 0.24180  0.24850  0.39080  Biso   1.000  H
  H16      1.0000 0.25820  0.75150  0.89080  Biso   1.000  H
  C41      1.0000 0.93830  0.31010  0.60860  Biso   1.000  C
  C42      1.0000 0.56170  0.68990  0.10860  Biso   1.000  C
  C43      1.0000 0.43830  0.18990  0.39140  Biso   1.000  C
  C44      1.0000 0.06170  0.81010  0.89140  Biso   1.000  C
  H17      1.0000 0.89800  0.35250  0.59640  Biso   1.000  H
  H18      1.0000 0.60200  0.64750  0.09640  Biso   1.000  H
  H19      1.0000 0.39800  0.14750  0.40360  Biso   1.000  H
  H20      1.0000 0.10200  0.85250  0.90360  Biso   1.000  H
  C45      1.0000 0.09170  0.30520  0.61890  Biso   1.000  C
  C46      1.0000 0.40830  0.69480  0.11890  Biso   1.000  C
  C47      1.0000 0.59170  0.19480  0.38110  Biso   1.000  C
  C48      1.0000 0.90830  0.80520  0.88110  Biso   1.000  C
  H21      1.0000 0.15450  0.34410  0.61270  Biso   1.000  H
  H22      1.0000 0.34550  0.65590  0.11270  Biso   1.000  H
  H23      1.0000 0.65450  0.15590  0.38730  Biso   1.000  H
  H24      1.0000 0.84550  0.84410  0.88730  Biso   1.000  H
  C49      1.0000 0.15270  0.24190  0.63860  Biso   1.000  C
  C50      1.0000 0.34730  0.75810  0.13860  Biso   1.000  C
  C51      1.0000 0.65270  0.25810  0.36140  Biso   1.000  C
  C52      1.0000 0.84730  0.74190  0.86140  Biso   1.000  C
  C53      1.0000 0.30840  0.23360  0.65110  Biso   1.000  C
  C54      1.0000 0.19160  0.76640  0.15110  Biso   1.000  C
  C55      1.0000 0.80840  0.26640  0.34890  Biso   1.000  C
  C56      1.0000 0.69160  0.73360  0.84890  Biso   1.000  C
  C57      1.0000 0.47780  0.33900  0.67090  Biso   1.000  C
  C58      1.0000 0.02220  0.66100  0.17090  Biso   1.000  C
  C59      1.0000 0.97780  0.16100  0.32910  Biso   1.000  C
  C60      1.0000 0.52220  0.83900  0.82910  Biso   1.000  C
  C61      1.0000 0.57220  0.39660  0.65680  Biso   1.000  C
  C62      1.0000 0.92780  0.60340  0.15680  Biso   1.000  C
  C63      1.0000 0.07220  0.10340  0.34320  Biso   1.000  C
  C64      1.0000 0.42780  0.89660  0.84320  Biso   1.000  C
  H25      1.0000 0.61410  0.42590  0.68000  Biso   1.000  H
  H26      1.0000 0.88590  0.57410  0.18000  Biso   1.000  H
  H27      1.0000 0.11410  0.07410  0.32000  Biso   1.000  H
  H28      1.0000 0.38590  0.92590  0.82000  Biso   1.000  H
  C65      1.0000 0.60310  0.41020  0.61150  Biso   1.000  C
  C66      1.0000 0.89690  0.58980  0.11150  Biso   1.000  C
  C67      1.0000 0.10310  0.08980  0.38850  Biso   1.000  C
  C68      1.0000 0.39690  0.91020  0.88850  Biso   1.000  C
  H29      1.0000 0.66620  0.44810  0.60310  Biso   1.000  H
  H30      1.0000 0.83380  0.55190  0.10310  Biso   1.000  H
  H31      1.0000 0.16620  0.05190  0.39690  Biso   1.000  H
  H32      1.0000 0.33380  0.94810  0.89690  Biso   1.000  H
  C69      1.0000 0.53690  0.36500  0.57580  Biso   1.000  C
  C70      1.0000 0.96310  0.63500  0.07580  Biso   1.000  C
  C71      1.0000 0.03690  0.13500  0.42420  Biso   1.000  C
  C72      1.0000 0.46310  0.86500  0.92420  Biso   1.000  C
  C73      1.0000 0.57210  0.37380  0.52500  Biso   1.000  C
  C74      1.0000 0.92790  0.62620  0.02500  Biso   1.000  C
  C75      1.0000 0.07210  0.12620  0.47500  Biso   1.000  C
  C76      1.0000 0.42790  0.87380  0.97500  Biso   1.000  C
  H33      1.0000 0.63550  0.41100  0.51550  Biso   1.000  H
  H34      1.0000 0.86450  0.58900  0.01550  Biso   1.000  H
  H35      1.0000 0.13550  0.08900  0.48450  Biso   1.000  H
  H36      1.0000 0.36450  0.91100  0.98450  Biso   1.000  H
  C77      1.0000 0.51490  0.32950  0.49260  Biso   1.000  C
  C78      1.0000 0.98510  0.67050  0.99260  Biso   1.000  C
  C79      1.0000 0.01490  0.17050  0.50740  Biso   1.000  C
  C80      1.0000 0.48510  0.82950  0.00740  Biso   1.000  C
  H37      1.0000 0.53840  0.33610  0.46080  Biso   1.000  H
  H38      1.0000 0.96160  0.66390  0.96080  Biso   1.000  H
  H39      1.0000 0.03840  0.16390  0.53920  Biso   1.000  H
  H40      1.0000 0.46160  0.83610  0.03920  Biso   1.000  H
  C81      1.0000 0.41790  0.27220  0.50630  Biso   1.000  C
  C82      1.0000 0.08210  0.72780  0.00630  Biso   1.000  C
  C83      1.0000 0.91790  0.22780  0.49370  Biso   1.000  C
  C84      1.0000 0.58210  0.77220  0.99370  Biso   1.000  C
  H41      1.0000 0.37650  0.24120  0.48390  Biso   1.000  H
  H42      1.0000 0.12350  0.75880  0.98390  Biso   1.000  H
  H43      1.0000 0.87650  0.25880  0.51610  Biso   1.000  H
  H44      1.0000 0.62350  0.74120  0.01610  Biso   1.000  H
  C85      1.0000 0.38790  0.26430  0.55290  Biso   1.000  C
  C86      1.0000 0.11210  0.73570  0.05290  Biso   1.000  C
  C87      1.0000 0.88790  0.23570  0.44710  Biso   1.000  C
  C88      1.0000 0.61210  0.76430  0.94710  Biso   1.000  C
  H45      1.0000 0.32510  0.22650  0.56160  Biso   1.000  H
  H46      1.0000 0.17490  0.77350  0.06160  Biso   1.000  H
  H47      1.0000 0.82510  0.27350  0.43840  Biso   1.000  H
  H48      1.0000 0.67490  0.72650  0.93840  Biso   1.000  H
  C89      1.0000 0.44240  0.30740  0.58860  Biso   1.000  C
  C90      1.0000 0.05760  0.69260  0.08860  Biso   1.000  C
  C91      1.0000 0.94240  0.19260  0.41140  Biso   1.000  C
  C92      1.0000 0.55760  0.80740  0.91140  Biso   1.000  C
  C93      1.0000 0.41360  0.29450  0.63820  Biso   1.000  C
  C94      1.0000 0.08640  0.70550  0.13820  Biso   1.000  C
  C95      1.0000 0.91360  0.20550  0.36180  Biso   1.000  C
  C96      1.0000 0.58640  0.79450  0.86180  Biso   1.000  C
  C97      1.0000 0.07470  0.14030  0.79920  Biso   1.000  C
  C98      1.0000 0.42530  0.85970  0.29920  Biso   1.000  C
  C99      1.0000 0.57470  0.35970  0.20080  Biso   1.000  C
  C100     1.0000 0.92530  0.64030  0.70080  Biso   1.000  C
  H49      1.0000 0.05880  0.12350  0.76750  Biso   1.000  H
  H50      1.0000 0.44120  0.87650  0.26750  Biso   1.000  H
  H51      1.0000 0.55880  0.37650  0.23250  Biso   1.000  H
  H52      1.0000 0.94120  0.62350  0.73250  Biso   1.000  H
  H53      1.0000 0.98180  0.15880  0.81170  Biso   1.000  H
  H54      1.0000 0.51820  0.84120  0.31170  Biso   1.000  H
  H55      1.0000 0.48180  0.34120  0.18830  Biso   1.000  H
  H56      1.0000 0.01820  0.65880  0.68830  Biso   1.000  H
  H57      1.0000 0.10900  0.10120  0.81870  Biso   1.000  H
  H58      1.0000 0.39100  0.89880  0.31870  Biso   1.000  H
  H59      1.0000 0.60900  0.39880  0.18130  Biso   1.000  H
  H60      1.0000 0.89100  0.60120  0.68130  Biso   1.000  H
  C101     1.0000 0.21900  0.22230  0.85920  Biso   1.000  C
  C102     1.0000 0.28100  0.77770  0.35920  Biso   1.000  C
  C103     1.0000 0.71900  0.27770  0.14080  Biso   1.000  C
  C104     1.0000 0.78100  0.72230  0.64080  Biso   1.000  C
  H61      1.0000 0.29040  0.25970  0.86620  Biso   1.000  H
  H62      1.0000 0.20960  0.74030  0.36620  Biso   1.000  H
  H63      1.0000 0.79040  0.24030  0.13380  Biso   1.000  H
  H64      1.0000 0.70960  0.75970  0.63380  Biso   1.000  H
  H65      1.0000 0.25050  0.17860  0.87440  Biso   1.000  H
  H66      1.0000 0.24950  0.82140  0.37440  Biso   1.000  H
  H67      1.0000 0.75050  0.32140  0.12560  Biso   1.000  H
  H68      1.0000 0.74950  0.67860  0.62560  Biso   1.000  H
  H69      1.0000 0.12140  0.23590  0.87060  Biso   1.000  H
  H70      1.0000 0.37860  0.76410  0.37060  Biso   1.000  H
  H71      1.0000 0.62140  0.26410  0.12940  Biso   1.000  H
  H72      1.0000 0.87860  0.73590  0.62940  Biso   1.000  H
  C105     1.0000 0.10900  0.82600  0.75840  Biso   1.000  C
  C106     1.0000 0.39100  0.17400  0.25840  Biso   1.000  C
  C107     1.0000 0.60900  0.67400  0.24160  Biso   1.000  C
  C108     1.0000 0.89100  0.32600  0.74160  Biso   1.000  C
  H73      1.0000 0.08880  0.78140  0.74260  Biso   1.000  H
  H74      1.0000 0.41120  0.21860  0.24260  Biso   1.000  H
  H75      1.0000 0.58880  0.71860  0.25740  Biso   1.000  H
  H76      1.0000 0.91120  0.28140  0.75740  Biso   1.000  H
  H77      1.0000 0.14410  0.81650  0.79000  Biso   1.000  H
  H78      1.0000 0.35590  0.18350  0.29000  Biso   1.000  H
  H79      1.0000 0.64410  0.68350  0.21000  Biso   1.000  H
  H80      1.0000 0.85590  0.31650  0.71000  Biso   1.000  H
  H81      1.0000 0.18480  0.85220  0.74130  Biso   1.000  H
  H82      1.0000 0.31520  0.14780  0.24130  Biso   1.000  H
  H83      1.0000 0.68480  0.64780  0.25870  Biso   1.000  H
  H84      1.0000 0.81520  0.35220  0.75870  Biso   1.000  H
  C109     1.0000 0.02500  0.95070  0.79120  Biso   1.000  C
  C110     1.0000 0.47500  0.04930  0.29120  Biso   1.000  C
  C111     1.0000 0.52500  0.54930  0.20880  Biso   1.000  C
  C112     1.0000 0.97500  0.45070  0.70880  Biso   1.000  C
  H85      1.0000 0.94940  0.98680  0.79660  Biso   1.000  H
  H86      1.0000 0.55060  0.01320  0.29660  Biso   1.000  H
  H87      1.0000 0.44940  0.51320  0.20340  Biso   1.000  H
  H88      1.0000 0.05060  0.48680  0.70340  Biso   1.000  H
  H89      1.0000 0.10450  0.97050  0.77230  Biso   1.000  H
  H90      1.0000 0.39550  0.02950  0.27230  Biso   1.000  H
  H91      1.0000 0.60450  0.52950  0.22770  Biso   1.000  H
  H92      1.0000 0.89550  0.47050  0.72770  Biso   1.000  H
  H93      1.0000 0.06470  0.93460  0.82090  Biso   1.000  H
  H94      1.0000 0.43530  0.06540  0.32090  Biso   1.000  H
  H95      1.0000 0.56470  0.56540  0.17910  Biso   1.000  H
  H96      1.0000 0.93530  0.43460  0.67910  Biso   1.000  H
  C113     1.0000 0.13100  0.93570  0.61510  Biso   1.000  C
  C114     1.0000 0.36900  0.06430  0.11510  Biso   1.000  C
  C115     1.0000 0.63100  0.56430  0.38490  Biso   1.000  C
  C116     1.0000 0.86900  0.43570  0.88490  Biso   1.000  C
  H97      1.0000 0.14610  0.91230  0.64500  Biso   1.000  H
  H98      1.0000 0.35390  0.08770  0.14500  Biso   1.000  H
  H99      1.0000 0.64610  0.58770  0.35500  Biso   1.000  H
  H100     1.0000 0.85390  0.41230  0.85500  Biso   1.000  H
  H101     1.0000 0.15800  0.98560  0.61780  Biso   1.000  H
  H102     1.0000 0.34200  0.01440  0.11780  Biso   1.000  H
  H103     1.0000 0.65800  0.51440  0.38220  Biso   1.000  H
  H104     1.0000 0.84200  0.48560  0.88220  Biso   1.000  H
  H105     1.0000 0.19360  0.91330  0.59160  Biso   1.000  H
  H106     1.0000 0.30640  0.08670  0.09160  Biso   1.000  H
  H107     1.0000 0.69360  0.58670  0.40840  Biso   1.000  H
  H108     1.0000 0.80640  0.41330  0.90840  Biso   1.000  H
  C117     1.0000 0.97600  0.98700  0.54720  Biso   1.000  C
  C118     1.0000 0.52400  0.01300  0.04720  Biso   1.000  C
  C119     1.0000 0.47600  0.51300  0.45280  Biso   1.000  C
  C120     1.0000 0.02400  0.48700  0.95280  Biso   1.000  C
  H109     1.0000 0.88660  0.99220  0.52820  Biso   1.000  H
  H110     1.0000 0.61340  0.00780  0.02820  Biso   1.000  H
  H111     1.0000 0.38660  0.50780  0.47180  Biso   1.000  H
  H112     1.0000 0.11340  0.49220  0.97180  Biso   1.000  H
  H113     1.0000 0.05470  0.96610  0.52850  Biso   1.000  H
  H114     1.0000 0.44530  0.03390  0.02850  Biso   1.000  H
  H115     1.0000 0.55470  0.53390  0.47150  Biso   1.000  H
  H116     1.0000 0.94530  0.46610  0.97150  Biso   1.000  H
  H117     1.0000 0.00710  0.03330  0.55850  Biso   1.000  H
  H118     1.0000 0.49290  0.96670  0.05850  Biso   1.000  H
  H119     1.0000 0.50710  0.46670  0.44150  Biso   1.000  H
  H120     1.0000 0.99290  0.53330  0.94150  Biso   1.000  H
  C121     1.0000 0.52400  0.08200  0.46570  Biso   1.000  C
  C122     1.0000 0.97600  0.91800  0.96570  Biso   1.000  C
  C123     1.0000 0.02400  0.41800  0.53430  Biso   1.000  C
  C124     1.0000 0.47600  0.58200  0.03430  Biso   1.000  C
  H121     1.0000 0.56460  0.12930  0.46180  Biso   1.000  H
  H122     1.0000 0.93540  0.87070  0.96180  Biso   1.000  H
  H123     1.0000 0.06460  0.37070  0.53820  Biso   1.000  H
  H124     1.0000 0.43540  0.62930  0.03820  Biso   1.000  H
  H125     1.0000 0.43840  0.07580  0.44530  Biso   1.000  H
  H126     1.0000 0.06160  0.92420  0.94530  Biso   1.000  H
  H127     1.0000 0.93840  0.42420  0.55470  Biso   1.000  H
  H128     1.0000 0.56160  0.57580  0.05470  Biso   1.000  H
  H129     1.0000 0.59990  0.04700  0.45750  Biso   1.000  H
  H130     1.0000 0.90010  0.95300  0.95750  Biso   1.000  H
  H131     1.0000 0.09990  0.45300  0.54250  Biso   1.000  H
  H132     1.0000 0.40010  0.54700  0.04250  Biso   1.000  H
  C125     1.0000 0.50000  0.97420  0.52330  Biso   1.000  C
  C126     1.0000 0.00000  0.02580  0.02330  Biso   1.000  C
  C127     1.0000 0.00000  0.52580  0.47670  Biso   1.000  C
  C128     1.0000 0.50000  0.47420  0.97670  Biso   1.000  C
  H133     1.0000 0.49110  0.95420  0.55450  Biso   1.000  H
  H134     1.0000 0.00890  0.04580  0.05450  Biso   1.000  H
  H135     1.0000 0.99110  0.54580  0.44550  Biso   1.000  H
  H136     1.0000 0.50890  0.45420  0.94550  Biso   1.000  H
  H137     1.0000 0.60000  0.96510  0.51140  Biso   1.000  H
  H138     1.0000 0.90000  0.03490  0.01140  Biso   1.000  H
  H139     1.0000 0.10000  0.53490  0.48860  Biso   1.000  H
  H140     1.0000 0.40000  0.46510  0.98860  Biso   1.000  H
  H141     1.0000 0.42750  0.95230  0.50270  Biso   1.000  H
  H142     1.0000 0.07250  0.04770  0.00270  Biso   1.000  H
  H143     1.0000 0.92750  0.54770  0.49730  Biso   1.000  H
  H144     1.0000 0.57250  0.45230  0.99730  Biso   1.000  H
  Cu1      1.0000 0.54200  0.23360  0.74857  Biso   1.000  Cu
  Cu2      1.0000 0.95800  0.76640  0.24857  Biso   1.000  Cu
  Cu3      1.0000 0.04200  0.26640  0.25143  Biso   1.000  Cu
  Cu4      1.0000 0.45800  0.73360  0.75143  Biso   1.000  Cu
  Mn1      1.0000 0.72846  0.97247  0.68897  Biso   1.000  Mn
  Mn2      1.0000 0.77154  0.02753  0.18897  Biso   1.000  Mn
  Mn3      1.0000 0.22846  0.52753  0.31103  Biso   1.000  Mn
  Mn4      1.0000 0.27154  0.47247  0.81103  Biso   1.000  Mn
  N1       1.0000 0.50440  0.17120  0.69520  Biso   1.000  N
  N2       1.0000 0.99560  0.82880  0.19520  Biso   1.000  N
  N3       1.0000 0.00440  0.32880  0.30480  Biso   1.000  N
  N4       1.0000 0.49560  0.67120  0.80480  Biso   1.000  N
  N5       1.0000 0.47180  0.32270  0.72060  Biso   1.000  N
  N6       1.0000 0.02820  0.67730  0.22060  Biso   1.000  N
  N7       1.0000 0.97180  0.17730  0.27940  Biso   1.000  N
  N8       1.0000 0.52820  0.82270  0.77940  Biso   1.000  N
  O1       1.0000 0.71110  0.16590  0.76190  Biso   1.000  O
  O2       1.0000 0.78890  0.83410  0.26190  Biso   1.000  O
  O3       1.0000 0.21110  0.33410  0.23810  Biso   1.000  O
  O4       1.0000 0.28890  0.66590  0.73810  Biso   1.000  O
  O5       1.0000 0.80380  0.06490  0.73200  Biso   1.000  O
  O6       1.0000 0.69620  0.93510  0.23200  Biso   1.000  O
  O7       1.0000 0.30380  0.43510  0.26800  Biso   1.000  O
  O8       1.0000 0.19620  0.56490  0.76800  Biso   1.000  O
  O9       1.0000 0.80890  0.94460  0.39920  Biso   1.000  O
  O10      1.0000 0.69110  0.05540  0.89920  Biso   1.000  O
  O11      1.0000 0.30890  0.55540  0.60080  Biso   1.000  O
  O12      1.0000 0.19110  0.44460  0.10080  Biso   1.000  O
  O13      1.0000 0.57340  0.05730  0.67040  Biso   1.000  O
  O14      1.0000 0.92660  0.94270  0.17040  Biso   1.000  O
  O15      1.0000 0.07340  0.44270  0.32960  Biso   1.000  O
  O16      1.0000 0.42660  0.55730  0.82960  Biso   1.000  O
  O17      1.0000 0.41050  0.27050  0.97310  Biso   1.000  O
  O18      1.0000 0.08950  0.72950  0.47310  Biso   1.000  O
  O19      1.0000 0.91050  0.22950  0.02690  Biso   1.000  O
  O20      1.0000 0.58950  0.77050  0.52690  Biso   1.000  O
  O21      1.0000 0.54910  0.29090  0.80860  Biso   1.000  O
  O22      1.0000 0.95090  0.70910  0.30860  Biso   1.000  O
  O23      1.0000 0.04910  0.20910  0.19140  Biso   1.000  O
  O24      1.0000 0.45090  0.79090  0.69140  Biso   1.000  O
  O25      1.0000 0.82130  0.24780  0.86450  Biso   1.000  O
  O26      1.0000 0.67870  0.75220  0.36450  Biso   1.000  O
  O27      1.0000 0.32130  0.25220  0.13550  Biso   1.000  O
  O28      1.0000 0.17870  0.74780  0.63550  Biso   1.000  O
  O29      1.0000 0.42270  0.38610  0.83550  Biso   1.000  O
  O30      1.0000 0.07730  0.61390  0.33550  Biso   1.000  O
  O31      1.0000 0.92270  0.11390  0.16450  Biso   1.000  O
  O32      1.0000 0.57730  0.88610  0.66450  Biso   1.000  O
  O33      1.0000 0.35100  0.02120  0.77080  Biso   1.000  O
  O34      1.0000 0.14900  0.97880  0.27080  Biso   1.000  O
  O35      1.0000 0.85100  0.47880  0.22920  Biso   1.000  O
  O36      1.0000 0.64900  0.52120  0.72920  Biso   1.000  O
  O37      1.0000 0.38580  0.43440  0.74610  Biso   1.000  O
  O38      1.0000 0.11420  0.56560  0.24610  Biso   1.000  O
  O39      1.0000 0.88580  0.06560  0.25390  Biso   1.000  O
  O40      1.0000 0.61420  0.93440  0.75390  Biso   1.000  O
  O41      1.0000 0.35660  0.17140  0.78660  Biso   1.000  O
  O42      1.0000 0.14340  0.82860  0.28660  Biso   1.000  O
  O43      1.0000 0.85660  0.32860  0.21340  Biso   1.000  O
  O44      1.0000 0.64340  0.67140  0.71340  Biso   1.000  O
  O45      1.0000 0.91250  0.90350  0.71170  Biso   1.000  O
  O46      1.0000 0.58750  0.09650  0.21170  Biso   1.000  O
  O47      1.0000 0.41250  0.59650  0.28830  Biso   1.000  O
  O48      1.0000 0.08750  0.40350  0.78830  Biso   1.000  O
  O49      1.0000 0.84600  0.98360  0.62450  Biso   1.000  O
  O50      1.0000 0.65400  0.01640  0.12450  Biso   1.000  O
  O51      1.0000 0.34600  0.51640  0.37550  Biso   1.000  O
  O52      1.0000 0.15400  0.48360  0.87550  Biso   1.000  O
  O53      1.0000 0.61410  0.09290  0.55100  Biso   1.000  O
  O54      1.0000 0.88590  0.90710  0.05100  Biso   1.000  O
  O55      1.0000 0.11410  0.40710  0.44900  Biso   1.000  O
  O56      1.0000 0.38590  0.59290  0.94900  Biso   1.000  O
  S1       1.0000 0.21150  0.20893  0.79893  Biso   1.000  S
  S2       1.0000 0.28850  0.79107  0.29893  Biso   1.000  S
  S3       1.0000 0.71150  0.29107  0.20107  Biso   1.000  S
  S4       1.0000 0.78850  0.70893  0.70107  Biso   1.000  S
  S5       1.0000 0.94290  0.87732  0.76109  Biso   1.000  S
  S6       1.0000 0.55710  0.12268  0.26109  Biso   1.000  S
  S7       1.0000 0.44290  0.62268  0.23891  Biso   1.000  S
  S8       1.0000 0.05710  0.37732  0.73891  Biso   1.000  S
  S9       1.0000 0.93460  0.92820  0.59780  Biso   1.000  S
  S10      1.0000 0.56540  0.07180  0.09780  Biso   1.000  S
  S11      1.0000 0.43460  0.57180  0.40220  Biso   1.000  S
  S12      1.0000 0.06540  0.42820  0.90220  Biso   1.000  S
  S13      1.0000 0.46810  0.06900  0.52570  Biso   1.000  S
  S14      1.0000 0.03190  0.93100  0.02570  Biso   1.000  S
  S15      1.0000 0.96810  0.43100  0.47430  Biso   1.000  S
  S16      1.0000 0.53190  0.56900  0.97430  Biso   1.000  S
