data_image0
_cell_length_a       10.73
_cell_length_b       15.738
_cell_length_c       19.675
_cell_angle_alpha    90
_cell_angle_beta     90
_cell_angle_gamma    90

_symmetry_space_group_name_H-M    "P 1"
_symmetry_int_tables_number       1

loop_
  _symmetry_equiv_pos_as_xyz
  'x, y, z'

loop_
  _atom_site_label
  _atom_site_occupancy
  _atom_site_fract_x
  _atom_site_fract_y
  _atom_site_fract_z
  _atom_site_thermal_displace_type
  _atom_site_B_iso_or_equiv
  _atom_site_type_symbol
  C1       1.0000 0.44600  0.03190  0.63093  Biso   1.000  C
  C2       1.0000 0.55400  0.96810  0.13093  Biso   1.000  C
  C3       1.0000 0.55400  0.03190  0.86907  Biso   1.000  C
  C4       1.0000 0.44600  0.96810  0.36907  Biso   1.000  C
  C5       1.0000 0.94600  0.53190  0.63093  Biso   1.000  C
  C6       1.0000 0.05400  0.46810  0.13093  Biso   1.000  C
  C7       1.0000 0.05400  0.53190  0.86907  Biso   1.000  C
  C8       1.0000 0.94600  0.46810  0.36907  Biso   1.000  C
  C9       1.0000 0.58040  0.06608  0.62094  Biso   1.000  C
  C10      1.0000 0.41960  0.93392  0.12094  Biso   1.000  C
  C11      1.0000 0.41960  0.06608  0.87906  Biso   1.000  C
  C12      1.0000 0.58040  0.93392  0.37906  Biso   1.000  C
  C13      1.0000 0.08040  0.56608  0.62094  Biso   1.000  C
  C14      1.0000 0.91960  0.43392  0.12094  Biso   1.000  C
  C15      1.0000 0.91960  0.56608  0.87906  Biso   1.000  C
  C16      1.0000 0.08040  0.43392  0.37906  Biso   1.000  C
  C17      1.0000 0.68630  0.23580  0.82550  Biso   1.000  C
  C18      1.0000 0.31370  0.76420  0.32550  Biso   1.000  C
  C19      1.0000 0.31370  0.23580  0.67450  Biso   1.000  C
  C20      1.0000 0.68630  0.76420  0.17450  Biso   1.000  C
  C21      1.0000 0.18630  0.73580  0.82550  Biso   1.000  C
  C22      1.0000 0.81370  0.26420  0.32550  Biso   1.000  C
  C23      1.0000 0.81370  0.73580  0.67450  Biso   1.000  C
  C24      1.0000 0.18630  0.26420  0.17450  Biso   1.000  C
  H1       1.0000 0.72030  0.18790  0.84600  Biso   1.000  H
  H2       1.0000 0.27970  0.81210  0.34600  Biso   1.000  H
  H3       1.0000 0.27970  0.18790  0.65400  Biso   1.000  H
  H4       1.0000 0.72030  0.81210  0.15400  Biso   1.000  H
  H5       1.0000 0.22030  0.68790  0.84600  Biso   1.000  H
  H6       1.0000 0.77970  0.31210  0.34600  Biso   1.000  H
  H7       1.0000 0.77970  0.68790  0.65400  Biso   1.000  H
  H8       1.0000 0.22030  0.31210  0.15400  Biso   1.000  H
  C25      1.0000 0.70080  0.38740  0.81760  Biso   1.000  C
  C26      1.0000 0.29920  0.61260  0.31760  Biso   1.000  C
  C27      1.0000 0.29920  0.38740  0.68240  Biso   1.000  C
  C28      1.0000 0.70080  0.61260  0.18240  Biso   1.000  C
  C29      1.0000 0.20080  0.88740  0.81760  Biso   1.000  C
  C30      1.0000 0.79920  0.11260  0.31760  Biso   1.000  C
  C31      1.0000 0.79920  0.88740  0.68240  Biso   1.000  C
  C32      1.0000 0.20080  0.11260  0.18240  Biso   1.000  C
  H9       1.0000 0.71330  0.38960  0.76930  Biso   1.000  H
  H10      1.0000 0.28670  0.61040  0.26930  Biso   1.000  H
  H11      1.0000 0.28670  0.38960  0.73070  Biso   1.000  H
  H12      1.0000 0.71330  0.61040  0.23070  Biso   1.000  H
  H13      1.0000 0.21330  0.88960  0.76930  Biso   1.000  H
  H14      1.0000 0.78670  0.11040  0.26930  Biso   1.000  H
  H15      1.0000 0.78670  0.88960  0.73070  Biso   1.000  H
  H16      1.0000 0.21330  0.11040  0.23070  Biso   1.000  H
  H17      1.0000 0.74790  0.43180  0.83900  Biso   1.000  H
  H18      1.0000 0.25210  0.56820  0.33900  Biso   1.000  H
  H19      1.0000 0.25210  0.43180  0.66100  Biso   1.000  H
  H20      1.0000 0.74790  0.56820  0.16100  Biso   1.000  H
  H21      1.0000 0.24790  0.93180  0.83900  Biso   1.000  H
  H22      1.0000 0.75210  0.06820  0.33900  Biso   1.000  H
  H23      1.0000 0.75210  0.93180  0.66100  Biso   1.000  H
  H24      1.0000 0.24790  0.06820  0.16100  Biso   1.000  H
  H25      1.0000 0.61390  0.39480  0.82760  Biso   1.000  H
  H26      1.0000 0.38610  0.60520  0.32760  Biso   1.000  H
  H27      1.0000 0.38610  0.39480  0.67240  Biso   1.000  H
  H28      1.0000 0.61390  0.60520  0.17240  Biso   1.000  H
  H29      1.0000 0.11390  0.89480  0.82760  Biso   1.000  H
  H30      1.0000 0.88610  0.10520  0.32760  Biso   1.000  H
  H31      1.0000 0.88610  0.89480  0.67240  Biso   1.000  H
  H32      1.0000 0.11390  0.10520  0.17240  Biso   1.000  H
  C33      1.0000 0.83960  0.30300  0.89360  Biso   1.000  C
  C34      1.0000 0.16040  0.69700  0.39360  Biso   1.000  C
  C35      1.0000 0.16040  0.30300  0.60640  Biso   1.000  C
  C36      1.0000 0.83960  0.69700  0.10640  Biso   1.000  C
  C37      1.0000 0.33960  0.80300  0.89360  Biso   1.000  C
  C38      1.0000 0.66040  0.19700  0.39360  Biso   1.000  C
  C39      1.0000 0.66040  0.80300  0.60640  Biso   1.000  C
  C40      1.0000 0.33960  0.19700  0.10640  Biso   1.000  C
  H33      1.0000 0.87370  0.24660  0.89530  Biso   1.000  H
  H34      1.0000 0.12630  0.75340  0.39530  Biso   1.000  H
  H35      1.0000 0.12630  0.24660  0.60470  Biso   1.000  H
  H36      1.0000 0.87370  0.75340  0.10470  Biso   1.000  H
  H37      1.0000 0.37370  0.74660  0.89530  Biso   1.000  H
  H38      1.0000 0.62630  0.25340  0.39530  Biso   1.000  H
  H39      1.0000 0.62630  0.74660  0.60470  Biso   1.000  H
  H40      1.0000 0.37370  0.25340  0.10470  Biso   1.000  H
  H41      1.0000 0.80590  0.31760  0.93730  Biso   1.000  H
  H42      1.0000 0.19410  0.68240  0.43730  Biso   1.000  H
  H43      1.0000 0.19410  0.31760  0.56270  Biso   1.000  H
  H44      1.0000 0.80590  0.68240  0.06270  Biso   1.000  H
  H45      1.0000 0.30590  0.81760  0.93730  Biso   1.000  H
  H46      1.0000 0.69410  0.18240  0.43730  Biso   1.000  H
  H47      1.0000 0.69410  0.81760  0.56270  Biso   1.000  H
  H48      1.0000 0.30590  0.18240  0.06270  Biso   1.000  H
  H49      1.0000 0.90420  0.34260  0.88180  Biso   1.000  H
  H50      1.0000 0.09580  0.65740  0.38180  Biso   1.000  H
  H51      1.0000 0.09580  0.34260  0.61820  Biso   1.000  H
  H52      1.0000 0.90420  0.65740  0.11820  Biso   1.000  H
  H53      1.0000 0.40420  0.84260  0.88180  Biso   1.000  H
  H54      1.0000 0.59580  0.15740  0.38180  Biso   1.000  H
  H55      1.0000 0.59580  0.84260  0.61820  Biso   1.000  H
  H56      1.0000 0.40420  0.15740  0.11820  Biso   1.000  H
  C41      1.0000 0.05380  0.77460  0.23040  Biso   1.000  C
  C42      1.0000 0.94620  0.22540  0.73040  Biso   1.000  C
  C43      1.0000 0.94620  0.77460  0.26960  Biso   1.000  C
  C44      1.0000 0.05380  0.22540  0.76960  Biso   1.000  C
  C45      1.0000 0.55380  0.27460  0.23040  Biso   1.000  C
  C46      1.0000 0.44620  0.72540  0.73040  Biso   1.000  C
  C47      1.0000 0.44620  0.27460  0.26960  Biso   1.000  C
  C48      1.0000 0.55380  0.72540  0.76960  Biso   1.000  C
  H57      1.0000 0.12560  0.76980  0.20420  Biso   1.000  H
  H58      1.0000 0.87440  0.23020  0.70420  Biso   1.000  H
  H59      1.0000 0.87440  0.76980  0.29580  Biso   1.000  H
  H60      1.0000 0.12560  0.23020  0.79580  Biso   1.000  H
  H61      1.0000 0.62560  0.26980  0.20420  Biso   1.000  H
  H62      1.0000 0.37440  0.73020  0.70420  Biso   1.000  H
  H63      1.0000 0.37440  0.26980  0.29580  Biso   1.000  H
  H64      1.0000 0.62560  0.73020  0.79580  Biso   1.000  H
  C49      1.0000 0.90490  0.91930  0.26420  Biso   1.000  C
  C50      1.0000 0.09510  0.08070  0.76420  Biso   1.000  C
  C51      1.0000 0.09510  0.91930  0.23580  Biso   1.000  C
  C52      1.0000 0.90490  0.08070  0.73580  Biso   1.000  C
  C53      1.0000 0.40490  0.41930  0.26420  Biso   1.000  C
  C54      1.0000 0.59510  0.58070  0.76420  Biso   1.000  C
  C55      1.0000 0.59510  0.41930  0.23580  Biso   1.000  C
  C56      1.0000 0.40490  0.58070  0.73580  Biso   1.000  C
  H65      1.0000 0.93320  0.97480  0.25120  Biso   1.000  H
  H66      1.0000 0.06680  0.02520  0.75120  Biso   1.000  H
  H67      1.0000 0.06680  0.97480  0.24880  Biso   1.000  H
  H68      1.0000 0.93320  0.02520  0.74880  Biso   1.000  H
  H69      1.0000 0.43320  0.47480  0.25120  Biso   1.000  H
  H70      1.0000 0.56680  0.52520  0.75120  Biso   1.000  H
  H71      1.0000 0.56680  0.47480  0.24880  Biso   1.000  H
  H72      1.0000 0.43320  0.52520  0.74880  Biso   1.000  H
  H73      1.0000 0.88650  0.91880  0.31190  Biso   1.000  H
  H74      1.0000 0.11350  0.08120  0.81190  Biso   1.000  H
  H75      1.0000 0.11350  0.91880  0.18810  Biso   1.000  H
  H76      1.0000 0.88650  0.08120  0.68810  Biso   1.000  H
  H77      1.0000 0.38650  0.41880  0.31190  Biso   1.000  H
  H78      1.0000 0.61350  0.58120  0.81190  Biso   1.000  H
  H79      1.0000 0.61350  0.41880  0.18810  Biso   1.000  H
  H80      1.0000 0.38650  0.58120  0.68810  Biso   1.000  H
  H81      1.0000 0.83110  0.90520  0.23900  Biso   1.000  H
  H82      1.0000 0.16890  0.09480  0.73900  Biso   1.000  H
  H83      1.0000 0.16890  0.90520  0.26100  Biso   1.000  H
  H84      1.0000 0.83110  0.09480  0.76100  Biso   1.000  H
  H85      1.0000 0.33110  0.40520  0.23900  Biso   1.000  H
  H86      1.0000 0.66890  0.59480  0.73900  Biso   1.000  H
  H87      1.0000 0.66890  0.40520  0.26100  Biso   1.000  H
  H88      1.0000 0.33110  0.59480  0.76100  Biso   1.000  H
  C57      1.0000 0.29000  0.94977  0.57331  Biso   1.000  C
  C58      1.0000 0.71000  0.05023  0.07331  Biso   1.000  C
  C59      1.0000 0.71000  0.94977  0.92669  Biso   1.000  C
  C60      1.0000 0.29000  0.05023  0.42669  Biso   1.000  C
  C61      1.0000 0.79000  0.44977  0.57331  Biso   1.000  C
  C62      1.0000 0.21000  0.55023  0.07331  Biso   1.000  C
  C63      1.0000 0.21000  0.44977  0.92669  Biso   1.000  C
  C64      1.0000 0.79000  0.55023  0.42669  Biso   1.000  C
  C65      1.0000 0.20210  0.96155  0.52271  Biso   1.000  C
  C66      1.0000 0.79790  0.03845  0.02271  Biso   1.000  C
  C67      1.0000 0.79790  0.96155  0.97729  Biso   1.000  C
  C68      1.0000 0.20210  0.03845  0.47729  Biso   1.000  C
  C69      1.0000 0.70210  0.46155  0.52271  Biso   1.000  C
  C70      1.0000 0.29790  0.53845  0.02271  Biso   1.000  C
  C71      1.0000 0.29790  0.46155  0.97729  Biso   1.000  C
  C72      1.0000 0.70210  0.53845  0.47729  Biso   1.000  C
  C73      1.0000 0.10510  0.89980  0.51454  Biso   1.000  C
  C74      1.0000 0.89490  0.10020  0.01454  Biso   1.000  C
  C75      1.0000 0.89490  0.89980  0.98546  Biso   1.000  C
  C76      1.0000 0.10510  0.10020  0.48546  Biso   1.000  C
  C77      1.0000 0.60510  0.39980  0.51454  Biso   1.000  C
  C78      1.0000 0.39490  0.60020  0.01454  Biso   1.000  C
  C79      1.0000 0.39490  0.39980  0.98546  Biso   1.000  C
  C80      1.0000 0.60510  0.60020  0.48546  Biso   1.000  C
  C81      1.0000 0.01300  0.90600  0.46288  Biso   1.000  C
  C82      1.0000 0.98700  0.09400  0.96288  Biso   1.000  C
  C83      1.0000 0.98700  0.90600  0.03712  Biso   1.000  C
  C84      1.0000 0.01300  0.09400  0.53712  Biso   1.000  C
  C85      1.0000 0.51300  0.40600  0.46288  Biso   1.000  C
  C86      1.0000 0.48700  0.59400  0.96288  Biso   1.000  C
  C87      1.0000 0.48700  0.40600  0.03712  Biso   1.000  C
  C88      1.0000 0.51300  0.59400  0.53712  Biso   1.000  C
  H89      1.0000 0.01480  0.95160  0.43290  Biso   1.000  H
  H90      1.0000 0.98520  0.04840  0.93290  Biso   1.000  H
  H91      1.0000 0.98520  0.95160  0.06710  Biso   1.000  H
  H92      1.0000 0.01480  0.04840  0.56710  Biso   1.000  H
  H93      1.0000 0.51480  0.45160  0.43290  Biso   1.000  H
  H94      1.0000 0.48520  0.54840  0.93290  Biso   1.000  H
  H95      1.0000 0.48520  0.45160  0.06710  Biso   1.000  H
  H96      1.0000 0.51480  0.54840  0.56710  Biso   1.000  H
  C89      1.0000 0.92210  0.84600  0.45660  Biso   1.000  C
  C90      1.0000 0.07790  0.15400  0.95660  Biso   1.000  C
  C91      1.0000 0.07790  0.84600  0.04340  Biso   1.000  C
  C92      1.0000 0.92210  0.15400  0.54340  Biso   1.000  C
  C93      1.0000 0.42210  0.34600  0.45660  Biso   1.000  C
  C94      1.0000 0.57790  0.65400  0.95660  Biso   1.000  C
  C95      1.0000 0.57790  0.34600  0.04340  Biso   1.000  C
  C96      1.0000 0.42210  0.65400  0.54340  Biso   1.000  C
  H97      1.0000 0.86090  0.85250  0.42350  Biso   1.000  H
  H98      1.0000 0.13910  0.14750  0.92350  Biso   1.000  H
  H99      1.0000 0.13910  0.85250  0.07650  Biso   1.000  H
  H100     1.0000 0.86090  0.14750  0.57650  Biso   1.000  H
  H101     1.0000 0.36090  0.35250  0.42350  Biso   1.000  H
  H102     1.0000 0.63910  0.64750  0.92350  Biso   1.000  H
  H103     1.0000 0.63910  0.35250  0.07650  Biso   1.000  H
  H104     1.0000 0.36090  0.64750  0.57650  Biso   1.000  H
  C97      1.0000 0.91950  0.77470  0.49930  Biso   1.000  C
  C98      1.0000 0.08050  0.22530  0.99930  Biso   1.000  C
  C99      1.0000 0.08050  0.77470  0.00070  Biso   1.000  C
  C100     1.0000 0.91950  0.22530  0.50070  Biso   1.000  C
  C101     1.0000 0.41950  0.27470  0.49930  Biso   1.000  C
  C102     1.0000 0.58050  0.72530  0.99930  Biso   1.000  C
  C103     1.0000 0.58050  0.27470  0.00070  Biso   1.000  C
  C104     1.0000 0.41950  0.72530  0.50070  Biso   1.000  C
  H105     1.0000 0.85940  0.73290  0.49320  Biso   1.000  H
  H106     1.0000 0.14060  0.26710  0.99320  Biso   1.000  H
  H107     1.0000 0.14060  0.73290  0.00680  Biso   1.000  H
  H108     1.0000 0.85940  0.26710  0.50680  Biso   1.000  H
  H109     1.0000 0.35940  0.23290  0.49320  Biso   1.000  H
  H110     1.0000 0.64060  0.76710  0.99320  Biso   1.000  H
  H111     1.0000 0.64060  0.23290  0.00680  Biso   1.000  H
  H112     1.0000 0.35940  0.76710  0.50680  Biso   1.000  H
  C105     1.0000 0.00610  0.76710  0.55014  Biso   1.000  C
  C106     1.0000 0.99390  0.23290  0.05014  Biso   1.000  C
  C107     1.0000 0.99390  0.76710  0.94986  Biso   1.000  C
  C108     1.0000 0.00610  0.23290  0.44986  Biso   1.000  C
  C109     1.0000 0.50610  0.26710  0.55014  Biso   1.000  C
  C110     1.0000 0.49390  0.73290  0.05014  Biso   1.000  C
  C111     1.0000 0.49390  0.26710  0.94986  Biso   1.000  C
  C112     1.0000 0.50610  0.73290  0.44986  Biso   1.000  C
  H113     1.0000 0.00380  0.72000  0.57870  Biso   1.000  H
  H114     1.0000 0.99620  0.28000  0.07870  Biso   1.000  H
  H115     1.0000 0.99620  0.72000  0.92130  Biso   1.000  H
  H116     1.0000 0.00380  0.28000  0.42130  Biso   1.000  H
  H117     1.0000 0.50380  0.22000  0.57870  Biso   1.000  H
  H118     1.0000 0.49620  0.78000  0.07870  Biso   1.000  H
  H119     1.0000 0.49620  0.22000  0.92130  Biso   1.000  H
  H120     1.0000 0.50380  0.78000  0.42130  Biso   1.000  H
  C113     1.0000 0.09900  0.82980  0.55966  Biso   1.000  C
  C114     1.0000 0.90100  0.17020  0.05966  Biso   1.000  C
  C115     1.0000 0.90100  0.82980  0.94034  Biso   1.000  C
  C116     1.0000 0.09900  0.17020  0.44034  Biso   1.000  C
  C117     1.0000 0.59900  0.32980  0.55966  Biso   1.000  C
  C118     1.0000 0.40100  0.67020  0.05966  Biso   1.000  C
  C119     1.0000 0.40100  0.32980  0.94034  Biso   1.000  C
  C120     1.0000 0.59900  0.67020  0.44034  Biso   1.000  C
  C121     1.0000 0.18630  0.82320  0.61332  Biso   1.000  C
  C122     1.0000 0.81370  0.17680  0.11332  Biso   1.000  C
  C123     1.0000 0.81370  0.82320  0.88668  Biso   1.000  C
  C124     1.0000 0.18630  0.17680  0.38668  Biso   1.000  C
  C125     1.0000 0.68630  0.32320  0.61332  Biso   1.000  C
  C126     1.0000 0.31370  0.67680  0.11332  Biso   1.000  C
  C127     1.0000 0.31370  0.32320  0.88668  Biso   1.000  C
  C128     1.0000 0.68630  0.67680  0.38668  Biso   1.000  C
  H121     1.0000 0.17980  0.77910  0.64460  Biso   1.000  H
  H122     1.0000 0.82020  0.22090  0.14460  Biso   1.000  H
  H123     1.0000 0.82020  0.77910  0.85540  Biso   1.000  H
  H124     1.0000 0.17980  0.22090  0.35540  Biso   1.000  H
  H125     1.0000 0.67980  0.27910  0.64460  Biso   1.000  H
  H126     1.0000 0.32020  0.72090  0.14460  Biso   1.000  H
  H127     1.0000 0.32020  0.27910  0.85540  Biso   1.000  H
  H128     1.0000 0.67980  0.72090  0.35540  Biso   1.000  H
  C129     1.0000 0.28010  0.88160  0.61929  Biso   1.000  C
  C130     1.0000 0.71990  0.11840  0.11929  Biso   1.000  C
  C131     1.0000 0.71990  0.88160  0.88071  Biso   1.000  C
  C132     1.0000 0.28010  0.11840  0.38071  Biso   1.000  C
  C133     1.0000 0.78010  0.38160  0.61929  Biso   1.000  C
  C134     1.0000 0.21990  0.61840  0.11929  Biso   1.000  C
  C135     1.0000 0.21990  0.38160  0.88071  Biso   1.000  C
  C136     1.0000 0.78010  0.61840  0.38071  Biso   1.000  C
  H129     1.0000 0.33810  0.87620  0.65410  Biso   1.000  H
  H130     1.0000 0.66190  0.12380  0.15410  Biso   1.000  H
  H131     1.0000 0.66190  0.87620  0.84590  Biso   1.000  H
  H132     1.0000 0.33810  0.12380  0.34590  Biso   1.000  H
  H133     1.0000 0.83810  0.37620  0.65410  Biso   1.000  H
  H134     1.0000 0.16190  0.62380  0.15410  Biso   1.000  H
  H135     1.0000 0.16190  0.37620  0.84590  Biso   1.000  H
  H136     1.0000 0.83810  0.62380  0.34590  Biso   1.000  H
  N1       1.0000 0.39950  0.00035  0.57506  Biso   1.000  N
  N2       1.0000 0.60050  0.99965  0.07506  Biso   1.000  N
  N3       1.0000 0.60050  0.00035  0.92494  Biso   1.000  N
  N4       1.0000 0.39950  0.99965  0.42494  Biso   1.000  N
  N5       1.0000 0.89950  0.50035  0.57506  Biso   1.000  N
  N6       1.0000 0.10050  0.49965  0.07506  Biso   1.000  N
  N7       1.0000 0.10050  0.50035  0.92494  Biso   1.000  N
  N8       1.0000 0.89950  0.49965  0.42494  Biso   1.000  N
  N9       1.0000 0.74170  0.30630  0.84300  Biso   1.000  N
  N10      1.0000 0.25830  0.69370  0.34300  Biso   1.000  N
  N11      1.0000 0.25830  0.30630  0.65700  Biso   1.000  N
  N12      1.0000 0.74170  0.69370  0.15700  Biso   1.000  N
  N13      1.0000 0.24170  0.80630  0.84300  Biso   1.000  N
  N14      1.0000 0.75830  0.19370  0.34300  Biso   1.000  N
  N15      1.0000 0.75830  0.80630  0.65700  Biso   1.000  N
  N16      1.0000 0.24170  0.19370  0.15700  Biso   1.000  N
  N17      1.0000 0.00000  0.85830  0.25000  Biso   1.000  N
  N18      1.0000 0.00000  0.14170  0.75000  Biso   1.000  N
  N19      1.0000 0.50000  0.35830  0.25000  Biso   1.000  N
  N20      1.0000 0.50000  0.64170  0.75000  Biso   1.000  N
  O1       1.0000 0.63390  0.04778  0.56597  Biso   1.000  O
  O2       1.0000 0.36610  0.95222  0.06597  Biso   1.000  O
  O3       1.0000 0.36610  0.04778  0.93403  Biso   1.000  O
  O4       1.0000 0.63390  0.95222  0.43403  Biso   1.000  O
  O5       1.0000 0.13390  0.54778  0.56597  Biso   1.000  O
  O6       1.0000 0.86610  0.45222  0.06597  Biso   1.000  O
  O7       1.0000 0.86610  0.54778  0.93403  Biso   1.000  O
  O8       1.0000 0.13390  0.45222  0.43403  Biso   1.000  O
  O9       1.0000 0.62470  0.10759  0.66876  Biso   1.000  O
  O10      1.0000 0.37530  0.89241  0.16876  Biso   1.000  O
  O11      1.0000 0.37530  0.10759  0.83124  Biso   1.000  O
  O12      1.0000 0.62470  0.89241  0.33124  Biso   1.000  O
  O13      1.0000 0.12470  0.60759  0.66876  Biso   1.000  O
  O14      1.0000 0.87530  0.39241  0.16876  Biso   1.000  O
  O15      1.0000 0.87530  0.60759  0.83124  Biso   1.000  O
  O16      1.0000 0.12470  0.39241  0.33124  Biso   1.000  O
  O17      1.0000 0.39860  0.03805  0.68879  Biso   1.000  O
  O18      1.0000 0.60140  0.96195  0.18879  Biso   1.000  O
  O19      1.0000 0.60140  0.03805  0.81121  Biso   1.000  O
  O20      1.0000 0.39860  0.96195  0.31121  Biso   1.000  O
  O21      1.0000 0.89860  0.53805  0.68879  Biso   1.000  O
  O22      1.0000 0.10140  0.46195  0.18879  Biso   1.000  O
  O23      1.0000 0.10140  0.53805  0.81121  Biso   1.000  O
  O24      1.0000 0.89860  0.46195  0.31121  Biso   1.000  O
  O25      1.0000 0.60680  0.22110  0.79104  Biso   1.000  O
  O26      1.0000 0.39320  0.77890  0.29104  Biso   1.000  O
  O27      1.0000 0.39320  0.22110  0.70896  Biso   1.000  O
  O28      1.0000 0.60680  0.77890  0.20896  Biso   1.000  O
  O29      1.0000 0.10680  0.72110  0.79104  Biso   1.000  O
  O30      1.0000 0.89320  0.27890  0.29104  Biso   1.000  O
  O31      1.0000 0.89320  0.72110  0.70896  Biso   1.000  O
  O32      1.0000 0.10680  0.27890  0.20896  Biso   1.000  O
  O33      1.0000 0.00000  0.71630  0.25000  Biso   1.000  O
  O34      1.0000 0.00000  0.28370  0.75000  Biso   1.000  O
  O35      1.0000 0.50000  0.21630  0.25000  Biso   1.000  O
  O36      1.0000 0.50000  0.78370  0.75000  Biso   1.000  O
  Co1      1.0000 0.50000  0.12351  0.75000  Biso   1.000  Co
  Co2      1.0000 0.50000  0.87649  0.25000  Biso   1.000  Co
  Co3      1.0000 0.00000  0.62351  0.75000  Biso   1.000  Co
  Co4      1.0000 0.00000  0.37649  0.25000  Biso   1.000  Co
  Cu1      1.0000 0.51693  0.00000  0.50000  Biso   1.000  Cu
  Cu2      1.0000 0.48307  0.00000  0.00000  Biso   1.000  Cu
  Cu3      1.0000 0.01693  0.50000  0.50000  Biso   1.000  Cu
  Cu4      1.0000 0.98307  0.50000  0.00000  Biso   1.000  Cu
