data_image0
_cell_length_a       8.8231
_cell_length_b       18.7744
_cell_length_c       20.9707
_cell_angle_alpha    90
_cell_angle_beta     98.723
_cell_angle_gamma    90

_symmetry_space_group_name_H-M    "P 1"
_symmetry_int_tables_number       1

loop_
  _symmetry_equiv_pos_as_xyz
  'x, y, z'

loop_
  _atom_site_label
  _atom_site_occupancy
  _atom_site_fract_x
  _atom_site_fract_y
  _atom_site_fract_z
  _atom_site_thermal_displace_type
  _atom_site_B_iso_or_equiv
  _atom_site_type_symbol
  C1       1.0000 0.38960  0.82820  0.17430  Biso   1.000  C
  C2       1.0000 0.61040  0.32820  0.32570  Biso   1.000  C
  C3       1.0000 0.61040  0.17180  0.82570  Biso   1.000  C
  C4       1.0000 0.38960  0.67180  0.67430  Biso   1.000  C
  C5       1.0000 0.28200  0.82360  0.22570  Biso   1.000  C
  C6       1.0000 0.71800  0.32360  0.27430  Biso   1.000  C
  C7       1.0000 0.71800  0.17640  0.77430  Biso   1.000  C
  C8       1.0000 0.28200  0.67640  0.72570  Biso   1.000  C
  C9       1.0000 0.57200  0.56880  0.24880  Biso   1.000  C
  C10      1.0000 0.42800  0.06880  0.25120  Biso   1.000  C
  C11      1.0000 0.42800  0.43120  0.75120  Biso   1.000  C
  C12      1.0000 0.57200  0.93120  0.74880  Biso   1.000  C
  C13      1.0000 0.55860  0.59200  0.31790  Biso   1.000  C
  C14      1.0000 0.44140  0.09200  0.18210  Biso   1.000  C
  C15      1.0000 0.44140  0.40800  0.68210  Biso   1.000  C
  C16      1.0000 0.55860  0.90800  0.81790  Biso   1.000  C
  C17      1.0000 0.60830  0.76860  0.14240  Biso   1.000  C
  C18      1.0000 0.39170  0.26860  0.35760  Biso   1.000  C
  C19      1.0000 0.39170  0.23140  0.85760  Biso   1.000  C
  C20      1.0000 0.60830  0.73140  0.64240  Biso   1.000  C
  C21      1.0000 0.71160  0.82650  0.15240  Biso   1.000  C
  C22      1.0000 0.28840  0.32650  0.34760  Biso   1.000  C
  C23      1.0000 0.28840  0.17350  0.84760  Biso   1.000  C
  C24      1.0000 0.71160  0.67350  0.65240  Biso   1.000  C
  H1       1.0000 0.68490  0.86690  0.17380  Biso   1.000  H
  H2       1.0000 0.31510  0.36690  0.32620  Biso   1.000  H
  H3       1.0000 0.31510  0.13310  0.82620  Biso   1.000  H
  H4       1.0000 0.68490  0.63310  0.67380  Biso   1.000  H
  C25      1.0000 0.84980  0.82360  0.13120  Biso   1.000  C
  C26      1.0000 0.15020  0.32360  0.36880  Biso   1.000  C
  C27      1.0000 0.15020  0.17640  0.86880  Biso   1.000  C
  C28      1.0000 0.84980  0.67640  0.63120  Biso   1.000  C
  H5       1.0000 0.91510  0.86270  0.13700  Biso   1.000  H
  H6       1.0000 0.08490  0.36270  0.36300  Biso   1.000  H
  H7       1.0000 0.08490  0.13730  0.86300  Biso   1.000  H
  H8       1.0000 0.91510  0.63730  0.63700  Biso   1.000  H
  C29      1.0000 0.89520  0.76220  0.10050  Biso   1.000  C
  C30      1.0000 0.10480  0.26220  0.39950  Biso   1.000  C
  C31      1.0000 0.10480  0.23780  0.89950  Biso   1.000  C
  C32      1.0000 0.89520  0.73780  0.60050  Biso   1.000  C
  C33      1.0000 0.04130  0.75590  0.08040  Biso   1.000  C
  C34      1.0000 0.95870  0.25590  0.41960  Biso   1.000  C
  C35      1.0000 0.95870  0.24410  0.91960  Biso   1.000  C
  C36      1.0000 0.04130  0.74410  0.58040  Biso   1.000  C
  H9       1.0000 0.10920  0.79410  0.08670  Biso   1.000  H
  H10      1.0000 0.89080  0.29410  0.41330  Biso   1.000  H
  H11      1.0000 0.89080  0.20590  0.91330  Biso   1.000  H
  H12      1.0000 0.10920  0.70590  0.58670  Biso   1.000  H
  C37      1.0000 0.08430  0.69570  0.05200  Biso   1.000  C
  C38      1.0000 0.91570  0.19570  0.44800  Biso   1.000  C
  C39      1.0000 0.91570  0.30430  0.94800  Biso   1.000  C
  C40      1.0000 0.08430  0.80430  0.55200  Biso   1.000  C
  H13      1.0000 0.18100  0.69270  0.03970  Biso   1.000  H
  H14      1.0000 0.81900  0.19270  0.46030  Biso   1.000  H
  H15      1.0000 0.81900  0.30730  0.96030  Biso   1.000  H
  H16      1.0000 0.18100  0.80730  0.53970  Biso   1.000  H
  C41      1.0000 0.98280  0.63820  0.04150  Biso   1.000  C
  C42      1.0000 0.01720  0.13820  0.45850  Biso   1.000  C
  C43      1.0000 0.01720  0.36180  0.95850  Biso   1.000  C
  C44      1.0000 0.98280  0.86180  0.54150  Biso   1.000  C
  H17      1.0000 0.01210  0.59710  0.02190  Biso   1.000  H
  H18      1.0000 0.98790  0.09710  0.47810  Biso   1.000  H
  H19      1.0000 0.98790  0.40290  0.97810  Biso   1.000  H
  H20      1.0000 0.01210  0.90290  0.52190  Biso   1.000  H
  C45      1.0000 0.84110  0.64220  0.05980  Biso   1.000  C
  C46      1.0000 0.15890  0.14220  0.44020  Biso   1.000  C
  C47      1.0000 0.15890  0.35780  0.94020  Biso   1.000  C
  C48      1.0000 0.84110  0.85780  0.55980  Biso   1.000  C
  H21      1.0000 0.77540  0.60330  0.05270  Biso   1.000  H
  H22      1.0000 0.22460  0.10330  0.44730  Biso   1.000  H
  H23      1.0000 0.22460  0.39670  0.94730  Biso   1.000  H
  H24      1.0000 0.77540  0.89670  0.55270  Biso   1.000  H
  C49      1.0000 0.79150  0.70390  0.08940  Biso   1.000  C
  C50      1.0000 0.20850  0.20390  0.41060  Biso   1.000  C
  C51      1.0000 0.20850  0.29610  0.91060  Biso   1.000  C
  C52      1.0000 0.79150  0.79610  0.58940  Biso   1.000  C
  C53      1.0000 0.64350  0.70860  0.11040  Biso   1.000  C
  C54      1.0000 0.35650  0.20860  0.38960  Biso   1.000  C
  C55      1.0000 0.35650  0.29140  0.88960  Biso   1.000  C
  C56      1.0000 0.64350  0.79140  0.61040  Biso   1.000  C
  C57      1.0000 0.48930  0.60290  0.13910  Biso   1.000  C
  C58      1.0000 0.51070  0.10290  0.36090  Biso   1.000  C
  C59      1.0000 0.51070  0.39710  0.86090  Biso   1.000  C
  C60      1.0000 0.48930  0.89710  0.63910  Biso   1.000  C
  C61      1.0000 0.39400  0.54340  0.11980  Biso   1.000  C
  C62      1.0000 0.60600  0.04340  0.38020  Biso   1.000  C
  C63      1.0000 0.60600  0.45660  0.88020  Biso   1.000  C
  C64      1.0000 0.39400  0.95660  0.61980  Biso   1.000  C
  H25      1.0000 0.36810  0.51230  0.15100  Biso   1.000  H
  H26      1.0000 0.63190  0.01230  0.34900  Biso   1.000  H
  H27      1.0000 0.63190  0.48770  0.84900  Biso   1.000  H
  H28      1.0000 0.36810  0.98770  0.65100  Biso   1.000  H
  C65      1.0000 0.34030  0.53120  0.05680  Biso   1.000  C
  C66      1.0000 0.65970  0.03120  0.44320  Biso   1.000  C
  C67      1.0000 0.65970  0.46880  0.94320  Biso   1.000  C
  C68      1.0000 0.34030  0.96880  0.55680  Biso   1.000  C
  H29      1.0000 0.27960  0.49140  0.04540  Biso   1.000  H
  H30      1.0000 0.72040  0.99140  0.45460  Biso   1.000  H
  H31      1.0000 0.72040  0.50860  0.95460  Biso   1.000  H
  H32      1.0000 0.27960  0.00860  0.54540  Biso   1.000  H
  C69      1.0000 0.37440  0.57770  0.00810  Biso   1.000  C
  C70      1.0000 0.62560  0.07770  0.49190  Biso   1.000  C
  C71      1.0000 0.62560  0.42230  0.99190  Biso   1.000  C
  C72      1.0000 0.37440  0.92230  0.50810  Biso   1.000  C
  C73      1.0000 0.31320  0.56900  0.94220  Biso   1.000  C
  C74      1.0000 0.68680  0.06900  0.55780  Biso   1.000  C
  C75      1.0000 0.68680  0.43100  0.05780  Biso   1.000  C
  C76      1.0000 0.31320  0.93100  0.44220  Biso   1.000  C
  H33      1.0000 0.25120  0.52980  0.92950  Biso   1.000  H
  H34      1.0000 0.74880  0.02980  0.57050  Biso   1.000  H
  H35      1.0000 0.74880  0.47020  0.07050  Biso   1.000  H
  H36      1.0000 0.25120  0.97020  0.42950  Biso   1.000  H
  C77      1.0000 0.34300  0.61610  0.89750  Biso   1.000  C
  C78      1.0000 0.65700  0.11610  0.60250  Biso   1.000  C
  C79      1.0000 0.65700  0.38390  0.10250  Biso   1.000  C
  C80      1.0000 0.34300  0.88390  0.39750  Biso   1.000  C
  H37      1.0000 0.30100  0.60940  0.85450  Biso   1.000  H
  H38      1.0000 0.69900  0.10940  0.64550  Biso   1.000  H
  H39      1.0000 0.69900  0.39060  0.14550  Biso   1.000  H
  H40      1.0000 0.30100  0.89060  0.35450  Biso   1.000  H
  C81      1.0000 0.43600  0.67480  0.91510  Biso   1.000  C
  C82      1.0000 0.56400  0.17480  0.58490  Biso   1.000  C
  C83      1.0000 0.56400  0.32520  0.08490  Biso   1.000  C
  C84      1.0000 0.43600  0.82520  0.41510  Biso   1.000  C
  H41      1.0000 0.45580  0.70720  0.88390  Biso   1.000  H
  H42      1.0000 0.54420  0.20720  0.61610  Biso   1.000  H
  H43      1.0000 0.54420  0.29280  0.11610  Biso   1.000  H
  H44      1.0000 0.45580  0.79280  0.38390  Biso   1.000  H
  C85      1.0000 0.49780  0.68500  0.97750  Biso   1.000  C
  C86      1.0000 0.50220  0.18500  0.52250  Biso   1.000  C
  C87      1.0000 0.50220  0.31500  0.02250  Biso   1.000  C
  C88      1.0000 0.49780  0.81500  0.47750  Biso   1.000  C
  H45      1.0000 0.56010  0.72440  0.98840  Biso   1.000  H
  H46      1.0000 0.43990  0.22440  0.51160  Biso   1.000  H
  H47      1.0000 0.43990  0.27560  0.01160  Biso   1.000  H
  H48      1.0000 0.56010  0.77560  0.48840  Biso   1.000  H
  C89      1.0000 0.47040  0.63740  0.02660  Biso   1.000  C
  C90      1.0000 0.52960  0.13740  0.47340  Biso   1.000  C
  C91      1.0000 0.52960  0.36260  0.97340  Biso   1.000  C
  C92      1.0000 0.47040  0.86260  0.52660  Biso   1.000  C
  C93      1.0000 0.53200  0.64880  0.09310  Biso   1.000  C
  C94      1.0000 0.46800  0.14880  0.40690  Biso   1.000  C
  C95      1.0000 0.46800  0.35120  0.90690  Biso   1.000  C
  C96      1.0000 0.53200  0.85120  0.59310  Biso   1.000  C
  Cu1      1.0000 0.46114  0.70598  0.24474  Biso   1.000  Cu
  Cu2      1.0000 0.53886  0.20598  0.25526  Biso   1.000  Cu
  Cu3      1.0000 0.53886  0.29402  0.75526  Biso   1.000  Cu
  Cu4      1.0000 0.46114  0.79402  0.74474  Biso   1.000  Cu
  Mn1      1.0000 0.24040  0.96712  0.17030  Biso   1.000  Mn
  Mn2      1.0000 0.75960  0.46712  0.32970  Biso   1.000  Mn
  Mn3      1.0000 0.75960  0.03288  0.82970  Biso   1.000  Mn
  Mn4      1.0000 0.24040  0.53288  0.67030  Biso   1.000  Mn
  N1       1.0000 0.47430  0.77055  0.17289  Biso   1.000  N
  N2       1.0000 0.52570  0.27055  0.32711  Biso   1.000  N
  N3       1.0000 0.52570  0.22945  0.82711  Biso   1.000  N
  N4       1.0000 0.47430  0.72945  0.67289  Biso   1.000  N
  N5       1.0000 0.52430  0.61812  0.20596  Biso   1.000  N
  N6       1.0000 0.47570  0.11812  0.29404  Biso   1.000  N
  N7       1.0000 0.47570  0.38188  0.79404  Biso   1.000  N
  N8       1.0000 0.52430  0.88188  0.70596  Biso   1.000  N
  O1       1.0000 0.29780  0.77138  0.26389  Biso   1.000  O
  O2       1.0000 0.70220  0.27138  0.23611  Biso   1.000  O
  O3       1.0000 0.70220  0.22862  0.73611  Biso   1.000  O
  O4       1.0000 0.29780  0.72862  0.76389  Biso   1.000  O
  O5       1.0000 0.18940  0.87359  0.22647  Biso   1.000  O
  O6       1.0000 0.81060  0.37359  0.27353  Biso   1.000  O
  O7       1.0000 0.81060  0.12641  0.77353  Biso   1.000  O
  O8       1.0000 0.18940  0.62641  0.72647  Biso   1.000  O
  O9       1.0000 0.38740  0.88377  0.14105  Biso   1.000  O
  O10      1.0000 0.61260  0.38377  0.35895  Biso   1.000  O
  O11      1.0000 0.61260  0.11623  0.85895  Biso   1.000  O
  O12      1.0000 0.38740  0.61623  0.64105  Biso   1.000  O
  O13      1.0000 0.48150  0.64770  0.32442  Biso   1.000  O
  O14      1.0000 0.51850  0.14770  0.17558  Biso   1.000  O
  O15      1.0000 0.51850  0.35230  0.67558  Biso   1.000  O
  O16      1.0000 0.48150  0.85230  0.82442  Biso   1.000  O
  O17      1.0000 0.62130  0.55409  0.36264  Biso   1.000  O
  O18      1.0000 0.37870  0.05409  0.13736  Biso   1.000  O
  O19      1.0000 0.37870  0.44591  0.63736  Biso   1.000  O
  O20      1.0000 0.62130  0.94591  0.86264  Biso   1.000  O
  O21      1.0000 0.62160  0.50783  0.24031  Biso   1.000  O
  O22      1.0000 0.37840  0.00783  0.25969  Biso   1.000  O
  O23      1.0000 0.37840  0.49217  0.75969  Biso   1.000  O
  O24      1.0000 0.62160  0.99217  0.74031  Biso   1.000  O
  S1       1.0000 0.77060  0.08958  0.07611  Biso   1.000  S
  S2       1.0000 0.22940  0.58958  0.42389  Biso   1.000  S
  S3       1.0000 0.22940  0.91042  0.92389  Biso   1.000  S
  S4       1.0000 0.77060  0.41042  0.57611  Biso   1.000  S
  O25      1.0000 0.09300  0.96686  0.07883  Biso   1.000  O
  O26      1.0000 0.90700  0.46686  0.42117  Biso   1.000  O
  O27      1.0000 0.90700  0.03314  0.92117  Biso   1.000  O
  O28      1.0000 0.09300  0.53314  0.57883  Biso   1.000  O
  O29      1.0000 0.90710  0.08440  0.04070  Biso   1.000  O
  O30      1.0000 0.09290  0.58440  0.45930  Biso   1.000  O
  O31      1.0000 0.09290  0.91560  0.95930  Biso   1.000  O
  O32      1.0000 0.90710  0.41560  0.54070  Biso   1.000  O
  C97      1.0000 0.62570  0.13250  0.02300  Biso   1.000  C
  C98      1.0000 0.37430  0.63250  0.47700  Biso   1.000  C
  C99      1.0000 0.37430  0.86750  0.97700  Biso   1.000  C
  C100     1.0000 0.62570  0.36750  0.52300  Biso   1.000  C
  H49      1.0000 0.65110  0.18200  0.01980  Biso   1.000  H
  H50      1.0000 0.34890  0.68200  0.48020  Biso   1.000  H
  H51      1.0000 0.34890  0.81800  0.98020  Biso   1.000  H
  H52      1.0000 0.65110  0.31800  0.51980  Biso   1.000  H
  H53      1.0000 0.52990  0.12820  0.03910  Biso   1.000  H
  H54      1.0000 0.47010  0.62820  0.46090  Biso   1.000  H
  H55      1.0000 0.47010  0.87180  0.96090  Biso   1.000  H
  H56      1.0000 0.52990  0.37180  0.53910  Biso   1.000  H
  H57      1.0000 0.61710  0.11080  0.98120  Biso   1.000  H
  H58      1.0000 0.38290  0.61080  0.51880  Biso   1.000  H
  H59      1.0000 0.38290  0.88920  0.01880  Biso   1.000  H
  H60      1.0000 0.61710  0.38920  0.48120  Biso   1.000  H
  C101     1.0000 0.69720  0.00510  0.07340  Biso   1.000  C
  C102     1.0000 0.30280  0.50510  0.42660  Biso   1.000  C
  C103     1.0000 0.30280  0.99490  0.92660  Biso   1.000  C
  C104     1.0000 0.69720  0.49490  0.57340  Biso   1.000  C
  H61      1.0000 0.76550  0.97450  0.10100  Biso   1.000  H
  H62      1.0000 0.23450  0.47450  0.39900  Biso   1.000  H
  H63      1.0000 0.23450  0.02550  0.89900  Biso   1.000  H
  H64      1.0000 0.76550  0.52550  0.60100  Biso   1.000  H
  H65      1.0000 0.68590  0.98760  0.02990  Biso   1.000  H
  H66      1.0000 0.31410  0.48760  0.47010  Biso   1.000  H
  H67      1.0000 0.31410  0.01240  0.97010  Biso   1.000  H
  H68      1.0000 0.68590  0.51240  0.52990  Biso   1.000  H
  H69      1.0000 0.59890  0.00570  0.08770  Biso   1.000  H
  H70      1.0000 0.40110  0.50570  0.41230  Biso   1.000  H
  H71      1.0000 0.40110  0.99430  0.91230  Biso   1.000  H
  H72      1.0000 0.59890  0.49430  0.58770  Biso   1.000  H
  O33      1.0000 0.35500  0.40850  0.21300  Biso   1.000  O
  O34      1.0000 0.64500  0.90850  0.28700  Biso   1.000  O
  O35      1.0000 0.64500  0.59150  0.78700  Biso   1.000  O
  O36      1.0000 0.35500  0.09150  0.71300  Biso   1.000  O
  S5       1.0000 0.82190  0.72370  0.33024  Biso   1.000  S
  S6       1.0000 0.17810  0.22370  0.16976  Biso   1.000  S
  S7       1.0000 0.17810  0.27630  0.66976  Biso   1.000  S
  S8       1.0000 0.82190  0.77630  0.83024  Biso   1.000  S
  O37      1.0000 0.68270  0.76490  0.30120  Biso   1.000  O
  O38      1.0000 0.31730  0.26490  0.19880  Biso   1.000  O
  O39      1.0000 0.31730  0.23510  0.69880  Biso   1.000  O
  O40      1.0000 0.68270  0.73510  0.80120  Biso   1.000  O
  C105     1.0000 0.81320  0.71310  0.41320  Biso   1.000  C
  C106     1.0000 0.18680  0.21310  0.08680  Biso   1.000  C
  C107     1.0000 0.18680  0.28690  0.58680  Biso   1.000  C
  C108     1.0000 0.81320  0.78690  0.91320  Biso   1.000  C
  H73      1.0000 0.73290  0.68030  0.41870  Biso   1.000  H
  H74      1.0000 0.26710  0.18030  0.08130  Biso   1.000  H
  H75      1.0000 0.26710  0.31970  0.58130  Biso   1.000  H
  H76      1.0000 0.73290  0.81970  0.91870  Biso   1.000  H
  H77      1.0000 0.79270  0.75840  0.43150  Biso   1.000  H
  H78      1.0000 0.20730  0.25840  0.06850  Biso   1.000  H
  H79      1.0000 0.20730  0.24160  0.56850  Biso   1.000  H
  H80      1.0000 0.79270  0.74160  0.93150  Biso   1.000  H
  H81      1.0000 0.90940  0.69510  0.43460  Biso   1.000  H
  H82      1.0000 0.09060  0.19510  0.06540  Biso   1.000  H
  H83      1.0000 0.09060  0.30490  0.56540  Biso   1.000  H
  H84      1.0000 0.90940  0.80490  0.93460  Biso   1.000  H
  C109     1.0000 0.97620  0.78620  0.33910  Biso   1.000  C
  C110     1.0000 0.02380  0.28620  0.16090  Biso   1.000  C
  C111     1.0000 0.02380  0.21380  0.66090  Biso   1.000  C
  C112     1.0000 0.97620  0.71380  0.83910  Biso   1.000  C
  H85      1.0000 0.99960  0.79880  0.29730  Biso   1.000  H
  H86      1.0000 0.00040  0.29880  0.20270  Biso   1.000  H
  H87      1.0000 0.00040  0.20120  0.70270  Biso   1.000  H
  H88      1.0000 0.99960  0.70120  0.79730  Biso   1.000  H
  H89      1.0000 0.06500  0.76520  0.36430  Biso   1.000  H
  H90      1.0000 0.93500  0.26520  0.13570  Biso   1.000  H
  H91      1.0000 0.93500  0.23480  0.63570  Biso   1.000  H
  H92      1.0000 0.06500  0.73480  0.86430  Biso   1.000  H
  H93      1.0000 0.94720  0.82810  0.36050  Biso   1.000  H
  H94      1.0000 0.05280  0.32810  0.13950  Biso   1.000  H
  H95      1.0000 0.05280  0.17190  0.63950  Biso   1.000  H
  H96      1.0000 0.94720  0.67190  0.86050  Biso   1.000  H
  S9       1.0000 0.05290  0.05830  0.26735  Biso   1.000  S
  S10      1.0000 0.94710  0.55830  0.23265  Biso   1.000  S
  S11      1.0000 0.94710  0.94170  0.73265  Biso   1.000  S
  S12      1.0000 0.05290  0.44170  0.76735  Biso   1.000  S
  O41      1.0000 0.04980  0.02890  0.19800  Biso   1.000  O
  O42      1.0000 0.95020  0.52890  0.30200  Biso   1.000  O
  O43      1.0000 0.95020  0.97110  0.80200  Biso   1.000  O
  O44      1.0000 0.04980  0.47110  0.69800  Biso   1.000  O
  C113     1.0000 0.00070  0.98930  0.31110  Biso   1.000  C
  C114     1.0000 0.99930  0.48930  0.18890  Biso   1.000  C
  C115     1.0000 0.99930  0.01070  0.68890  Biso   1.000  C
  C116     1.0000 0.00070  0.51070  0.81110  Biso   1.000  C
  H97      1.0000 0.07950  0.95370  0.31550  Biso   1.000  H
  H98      1.0000 0.92050  0.45370  0.18450  Biso   1.000  H
  H99      1.0000 0.92050  0.04630  0.68450  Biso   1.000  H
  H100     1.0000 0.07950  0.54630  0.81550  Biso   1.000  H
  H101     1.0000 0.90660  0.96920  0.28960  Biso   1.000  H
  H102     1.0000 0.09340  0.46920  0.21040  Biso   1.000  H
  H103     1.0000 0.09340  0.03080  0.71040  Biso   1.000  H
  H104     1.0000 0.90660  0.53080  0.78960  Biso   1.000  H
  H105     1.0000 0.98630  0.00600  0.35310  Biso   1.000  H
  H106     1.0000 0.01370  0.50600  0.14690  Biso   1.000  H
  H107     1.0000 0.01370  0.99400  0.64690  Biso   1.000  H
  H108     1.0000 0.98630  0.49400  0.85310  Biso   1.000  H
  C117     1.0000 0.90300  0.11450  0.26440  Biso   1.000  C
  C118     1.0000 0.09700  0.61450  0.23560  Biso   1.000  C
  C119     1.0000 0.09700  0.88550  0.73560  Biso   1.000  C
  C120     1.0000 0.90300  0.38550  0.76440  Biso   1.000  C
  H109     1.0000 0.92100  0.15590  0.23980  Biso   1.000  H
  H110     1.0000 0.07900  0.65590  0.26020  Biso   1.000  H
  H111     1.0000 0.07900  0.84410  0.76020  Biso   1.000  H
  H112     1.0000 0.92100  0.34410  0.73980  Biso   1.000  H
  H113     1.0000 0.89140  0.12860  0.30740  Biso   1.000  H
  H114     1.0000 0.10860  0.62860  0.19260  Biso   1.000  H
  H115     1.0000 0.10860  0.87140  0.69260  Biso   1.000  H
  H116     1.0000 0.89140  0.37140  0.80740  Biso   1.000  H
  H117     1.0000 0.81130  0.09110  0.24450  Biso   1.000  H
  H118     1.0000 0.18870  0.59110  0.25550  Biso   1.000  H
  H119     1.0000 0.18870  0.90890  0.75550  Biso   1.000  H
  H120     1.0000 0.81130  0.40890  0.74450  Biso   1.000  H
  H121     1.0000 0.71410  0.70510  0.42540  Biso   1.000  H
  H122     1.0000 0.28590  0.20510  0.07460  Biso   1.000  H
  H123     1.0000 0.28590  0.29490  0.57460  Biso   1.000  H
  H124     1.0000 0.71410  0.79490  0.92540  Biso   1.000  H
  H125     1.0000 0.88320  0.72900  0.45000  Biso   1.000  H
  H126     1.0000 0.11680  0.22900  0.05000  Biso   1.000  H
  H127     1.0000 0.11680  0.27100  0.55000  Biso   1.000  H
  H128     1.0000 0.88320  0.77100  0.95000  Biso   1.000  H
  H129     1.0000 0.85040  0.66960  0.39710  Biso   1.000  H
  H130     1.0000 0.14960  0.16960  0.10290  Biso   1.000  H
  H131     1.0000 0.14960  0.33040  0.60290  Biso   1.000  H
  H132     1.0000 0.85040  0.83040  0.89710  Biso   1.000  H
  H133     1.0000 0.98710  0.82030  0.30600  Biso   1.000  H
  H134     1.0000 0.01290  0.32030  0.19400  Biso   1.000  H
  H135     1.0000 0.01290  0.17970  0.69400  Biso   1.000  H
  H136     1.0000 0.98710  0.67970  0.80600  Biso   1.000  H
  H137     1.0000 0.00910  0.74020  0.32650  Biso   1.000  H
  H138     1.0000 0.99090  0.24020  0.17350  Biso   1.000  H
  H139     1.0000 0.99090  0.25980  0.67350  Biso   1.000  H
  H140     1.0000 0.00910  0.75980  0.82650  Biso   1.000  H
  H141     1.0000 0.03810  0.80040  0.37870  Biso   1.000  H
  H142     1.0000 0.96190  0.30040  0.12130  Biso   1.000  H
  H143     1.0000 0.96190  0.19960  0.62130  Biso   1.000  H
  H144     1.0000 0.03810  0.69960  0.87870  Biso   1.000  H
  H145     1.0000 0.01650  0.93990  0.30260  Biso   1.000  H
  H146     1.0000 0.98350  0.43990  0.19740  Biso   1.000  H
  H147     1.0000 0.98350  0.06010  0.69740  Biso   1.000  H
  H148     1.0000 0.01650  0.56010  0.80260  Biso   1.000  H
  H149     1.0000 0.93210  0.99370  0.34230  Biso   1.000  H
  H150     1.0000 0.06790  0.49370  0.15770  Biso   1.000  H
  H151     1.0000 0.06790  0.00630  0.65770  Biso   1.000  H
  H152     1.0000 0.93210  0.50630  0.84230  Biso   1.000  H
  H153     1.0000 0.09710  0.01110  0.32770  Biso   1.000  H
  H154     1.0000 0.90290  0.51110  0.17230  Biso   1.000  H
  H155     1.0000 0.90290  0.98890  0.67230  Biso   1.000  H
  H156     1.0000 0.09710  0.48890  0.82770  Biso   1.000  H
  H157     1.0000 0.85980  0.14200  0.22750  Biso   1.000  H
  H158     1.0000 0.14020  0.64200  0.27250  Biso   1.000  H
  H159     1.0000 0.14020  0.85800  0.77250  Biso   1.000  H
  H160     1.0000 0.85980  0.35800  0.72750  Biso   1.000  H
  H161     1.0000 0.00120  0.13390  0.28210  Biso   1.000  H
  H162     1.0000 0.99880  0.63390  0.21790  Biso   1.000  H
  H163     1.0000 0.99880  0.86610  0.71790  Biso   1.000  H
  H164     1.0000 0.00120  0.36610  0.78210  Biso   1.000  H
  H165     1.0000 0.83590  0.11630  0.29640  Biso   1.000  H
  H166     1.0000 0.16410  0.61630  0.20360  Biso   1.000  H
  H167     1.0000 0.16410  0.88370  0.70360  Biso   1.000  H
  H168     1.0000 0.83590  0.38370  0.79640  Biso   1.000  H
  S13      1.0000 0.79780  0.78200  0.34940  Biso   1.000  S
  S14      1.0000 0.20220  0.28200  0.15060  Biso   1.000  S
  S15      1.0000 0.20220  0.21800  0.65060  Biso   1.000  S
  S16      1.0000 0.79780  0.71800  0.84940  Biso   1.000  S
  S17      1.0000 0.92420  0.03030  0.24240  Biso   1.000  S
  S18      1.0000 0.07580  0.53030  0.25760  Biso   1.000  S
  S19      1.0000 0.07580  0.96970  0.75760  Biso   1.000  S
  S20      1.0000 0.92420  0.46970  0.74240  Biso   1.000  S
