data_image0
_cell_length_a       8.8568
_cell_length_b       18.7469
_cell_length_c       28.2809
_cell_angle_alpha    90
_cell_angle_beta     90
_cell_angle_gamma    90

_symmetry_space_group_name_H-M    "P 1"
_symmetry_int_tables_number       1

loop_
  _symmetry_equiv_pos_as_xyz
  'x, y, z'

loop_
  _atom_site_label
  _atom_site_occupancy
  _atom_site_fract_x
  _atom_site_fract_y
  _atom_site_fract_z
  _atom_site_thermal_displace_type
  _atom_site_B_iso_or_equiv
  _atom_site_type_symbol
  C1       1.0000 0.41640  0.88390  0.30390  Biso   1.000  C
  C2       1.0000 0.08360  0.11610  0.80390  Biso   1.000  C
  C3       1.0000 0.91640  0.61610  0.69610  Biso   1.000  C
  C4       1.0000 0.58360  0.38390  0.19610  Biso   1.000  C
  C5       1.0000 0.29550  0.88000  0.26640  Biso   1.000  C
  C6       1.0000 0.20450  0.12000  0.76640  Biso   1.000  C
  C7       1.0000 0.79550  0.62000  0.73360  Biso   1.000  C
  C8       1.0000 0.70450  0.38000  0.23360  Biso   1.000  C
  C9       1.0000 0.56480  0.62260  0.24870  Biso   1.000  C
  C10      1.0000 0.93520  0.37740  0.74870  Biso   1.000  C
  C11      1.0000 0.06480  0.87740  0.75130  Biso   1.000  C
  C12      1.0000 0.43520  0.12260  0.25130  Biso   1.000  C
  C13      1.0000 0.52960  0.64690  0.19890  Biso   1.000  C
  C14      1.0000 0.97040  0.35310  0.69890  Biso   1.000  C
  C15      1.0000 0.02960  0.85310  0.80110  Biso   1.000  C
  C16      1.0000 0.47040  0.14690  0.30110  Biso   1.000  C
  C17      1.0000 0.64990  0.82300  0.32680  Biso   1.000  C
  C18      1.0000 0.85010  0.17700  0.82680  Biso   1.000  C
  C19      1.0000 0.14990  0.67700  0.67320  Biso   1.000  C
  C20      1.0000 0.35010  0.32300  0.17320  Biso   1.000  C
  C21      1.0000 0.74600  0.88120  0.31980  Biso   1.000  C
  C22      1.0000 0.75400  0.11880  0.81980  Biso   1.000  C
  C23      1.0000 0.24600  0.61880  0.68020  Biso   1.000  C
  C24      1.0000 0.25400  0.38120  0.18020  Biso   1.000  C
  H1       1.0000 0.70870  0.92270  0.30600  Biso   1.000  H
  H2       1.0000 0.79130  0.07730  0.80600  Biso   1.000  H
  H3       1.0000 0.20870  0.57730  0.69400  Biso   1.000  H
  H4       1.0000 0.29130  0.42270  0.19400  Biso   1.000  H
  C25      1.0000 0.89360  0.87780  0.33290  Biso   1.000  C
  C26      1.0000 0.60640  0.12220  0.83290  Biso   1.000  C
  C27      1.0000 0.39360  0.62220  0.66710  Biso   1.000  C
  C28      1.0000 0.10640  0.37780  0.16710  Biso   1.000  C
  H5       1.0000 0.95510  0.91750  0.32890  Biso   1.000  H
  H6       1.0000 0.54490  0.08250  0.82890  Biso   1.000  H
  H7       1.0000 0.45510  0.58250  0.67110  Biso   1.000  H
  H8       1.0000 0.04490  0.41750  0.17110  Biso   1.000  H
  C29      1.0000 0.95570  0.81400  0.35260  Biso   1.000  C
  C30      1.0000 0.54430  0.18600  0.85260  Biso   1.000  C
  C31      1.0000 0.45570  0.68600  0.64740  Biso   1.000  C
  C32      1.0000 0.04430  0.31400  0.14740  Biso   1.000  C
  C33      1.0000 0.10820  0.80920  0.36430  Biso   1.000  C
  C34      1.0000 0.39180  0.19080  0.86430  Biso   1.000  C
  C35      1.0000 0.60820  0.69080  0.63570  Biso   1.000  C
  C36      1.0000 0.89180  0.30920  0.13570  Biso   1.000  C
  H9       1.0000 0.17110  0.84840  0.35980  Biso   1.000  H
  H10      1.0000 0.32890  0.15160  0.85980  Biso   1.000  H
  H11      1.0000 0.67110  0.65160  0.64020  Biso   1.000  H
  H12      1.0000 0.82890  0.34840  0.14020  Biso   1.000  H
  C37      1.0000 0.16590  0.74790  0.38240  Biso   1.000  C
  C38      1.0000 0.33410  0.25210  0.88240  Biso   1.000  C
  C39      1.0000 0.66590  0.75210  0.61760  Biso   1.000  C
  C40      1.0000 0.83410  0.24790  0.11760  Biso   1.000  C
  H13      1.0000 0.26800  0.74480  0.38980  Biso   1.000  H
  H14      1.0000 0.23200  0.25520  0.88980  Biso   1.000  H
  H15      1.0000 0.76800  0.75520  0.61020  Biso   1.000  H
  H16      1.0000 0.73200  0.24480  0.11020  Biso   1.000  H
  C41      1.0000 0.07050  0.68950  0.38990  Biso   1.000  C
  C42      1.0000 0.42950  0.31050  0.88990  Biso   1.000  C
  C43      1.0000 0.57050  0.81050  0.61010  Biso   1.000  C
  C44      1.0000 0.92950  0.18950  0.11010  Biso   1.000  C
  H17      1.0000 0.11010  0.64740  0.40220  Biso   1.000  H
  H18      1.0000 0.38990  0.35260  0.90220  Biso   1.000  H
  H19      1.0000 0.61010  0.85260  0.59780  Biso   1.000  H
  H20      1.0000 0.88990  0.14740  0.09780  Biso   1.000  H
  C45      1.0000 0.91810  0.69330  0.37940  Biso   1.000  C
  C46      1.0000 0.58190  0.30670  0.87940  Biso   1.000  C
  C47      1.0000 0.41810  0.80670  0.62060  Biso   1.000  C
  C48      1.0000 0.08190  0.19330  0.12060  Biso   1.000  C
  H21      1.0000 0.85640  0.65410  0.38500  Biso   1.000  H
  H22      1.0000 0.64360  0.34590  0.88500  Biso   1.000  H
  H23      1.0000 0.35640  0.84590  0.61500  Biso   1.000  H
  H24      1.0000 0.14360  0.15410  0.11500  Biso   1.000  H
  C49      1.0000 0.85620  0.75530  0.36040  Biso   1.000  C
  C50      1.0000 0.64380  0.24470  0.86040  Biso   1.000  C
  C51      1.0000 0.35620  0.74470  0.63960  Biso   1.000  C
  C52      1.0000 0.14380  0.25530  0.13960  Biso   1.000  C
  C53      1.0000 0.69790  0.76160  0.34850  Biso   1.000  C
  C54      1.0000 0.80210  0.23840  0.84850  Biso   1.000  C
  C55      1.0000 0.19790  0.73840  0.65150  Biso   1.000  C
  C56      1.0000 0.30210  0.26160  0.15150  Biso   1.000  C
  C57      1.0000 0.52700  0.65820  0.32980  Biso   1.000  C
  C58      1.0000 0.97300  0.34180  0.82980  Biso   1.000  C
  C59      1.0000 0.02700  0.84180  0.67020  Biso   1.000  C
  C60      1.0000 0.47300  0.15820  0.17020  Biso   1.000  C
  C61      1.0000 0.43420  0.59990  0.34510  Biso   1.000  C
  C62      1.0000 0.06580  0.40010  0.84510  Biso   1.000  C
  C63      1.0000 0.93420  0.90010  0.65490  Biso   1.000  C
  C64      1.0000 0.56580  0.09990  0.15490  Biso   1.000  C
  H25      1.0000 0.39190  0.56960  0.32260  Biso   1.000  H
  H26      1.0000 0.10810  0.43040  0.82260  Biso   1.000  H
  H27      1.0000 0.89190  0.93040  0.67740  Biso   1.000  H
  H28      1.0000 0.60810  0.06960  0.17740  Biso   1.000  H
  C65      1.0000 0.40680  0.58790  0.39160  Biso   1.000  C
  C66      1.0000 0.09320  0.41210  0.89160  Biso   1.000  C
  C67      1.0000 0.90680  0.91210  0.60840  Biso   1.000  C
  C68      1.0000 0.59320  0.08790  0.10840  Biso   1.000  C
  H29      1.0000 0.34530  0.55020  0.40090  Biso   1.000  H
  H30      1.0000 0.15470  0.44980  0.90090  Biso   1.000  H
  H31      1.0000 0.84530  0.94980  0.59910  Biso   1.000  H
  H32      1.0000 0.65470  0.05020  0.09910  Biso   1.000  H
  C69      1.0000 0.47410  0.63420  0.42620  Biso   1.000  C
  C70      1.0000 0.02590  0.36580  0.92620  Biso   1.000  C
  C71      1.0000 0.97410  0.86580  0.57380  Biso   1.000  C
  C72      1.0000 0.52590  0.13420  0.07380  Biso   1.000  C
  C73      1.0000 0.44030  0.62280  0.47530  Biso   1.000  C
  C74      1.0000 0.05970  0.37720  0.97530  Biso   1.000  C
  C75      1.0000 0.94030  0.87720  0.52470  Biso   1.000  C
  C76      1.0000 0.55970  0.12280  0.02470  Biso   1.000  C
  H33      1.0000 0.38040  0.58470  0.48490  Biso   1.000  H
  H34      1.0000 0.11960  0.41530  0.98490  Biso   1.000  H
  H35      1.0000 0.88040  0.91530  0.51510  Biso   1.000  H
  H36      1.0000 0.61960  0.08470  0.01510  Biso   1.000  H
  C77      1.0000 0.50200  0.67220  0.50950  Biso   1.000  C
  C78      1.0000 0.99800  0.32780  0.00950  Biso   1.000  C
  C79      1.0000 0.00200  0.82780  0.49050  Biso   1.000  C
  C80      1.0000 0.49800  0.17220  0.99050  Biso   1.000  C
  H37      1.0000 0.48040  0.66750  0.54160  Biso   1.000  H
  H38      1.0000 0.01960  0.33250  0.04160  Biso   1.000  H
  H39      1.0000 0.98040  0.83250  0.45840  Biso   1.000  H
  H40      1.0000 0.51960  0.16750  0.95840  Biso   1.000  H
  C81      1.0000 0.59050  0.72440  0.49400  Biso   1.000  C
  C82      1.0000 0.90950  0.27560  0.99400  Biso   1.000  C
  C83      1.0000 0.09050  0.77560  0.50600  Biso   1.000  C
  C84      1.0000 0.40950  0.22440  0.00600  Biso   1.000  C
  H41      1.0000 0.63390  0.75410  0.51650  Biso   1.000  H
  H42      1.0000 0.86610  0.24590  0.01650  Biso   1.000  H
  H43      1.0000 0.13390  0.74590  0.48350  Biso   1.000  H
  H44      1.0000 0.36610  0.25410  0.98350  Biso   1.000  H
  C85      1.0000 0.62310  0.73800  0.44780  Biso   1.000  C
  C86      1.0000 0.87690  0.26200  0.94780  Biso   1.000  C
  C87      1.0000 0.12310  0.76200  0.55220  Biso   1.000  C
  C88      1.0000 0.37690  0.23800  0.05220  Biso   1.000  C
  H45      1.0000 0.68140  0.77730  0.43950  Biso   1.000  H
  H46      1.0000 0.81860  0.22270  0.93950  Biso   1.000  H
  H47      1.0000 0.18140  0.72270  0.56050  Biso   1.000  H
  H48      1.0000 0.31860  0.27730  0.06050  Biso   1.000  H
  C89      1.0000 0.56550  0.69040  0.41160  Biso   1.000  C
  C90      1.0000 0.93450  0.30960  0.91160  Biso   1.000  C
  C91      1.0000 0.06550  0.80960  0.58840  Biso   1.000  C
  C92      1.0000 0.43450  0.19040  0.08840  Biso   1.000  C
  C93      1.0000 0.59420  0.70290  0.36280  Biso   1.000  C
  C94      1.0000 0.90580  0.29710  0.86280  Biso   1.000  C
  C95      1.0000 0.09420  0.79710  0.63720  Biso   1.000  C
  C96      1.0000 0.40580  0.20290  0.13720  Biso   1.000  C
  C97      1.0000 0.93480  0.84860  0.19910  Biso   1.000  C
  C98      1.0000 0.56520  0.15140  0.69910  Biso   1.000  C
  C99      1.0000 0.43480  0.65140  0.80090  Biso   1.000  C
  C100     1.0000 0.06520  0.34860  0.30090  Biso   1.000  C
  H49      1.0000 0.94910  0.86470  0.23100  Biso   1.000  H
  H50      1.0000 0.55090  0.13530  0.73100  Biso   1.000  H
  H51      1.0000 0.44910  0.63530  0.76900  Biso   1.000  H
  H52      1.0000 0.05090  0.36470  0.26900  Biso   1.000  H
  H53      1.0000 0.90840  0.88850  0.17940  Biso   1.000  H
  H54      1.0000 0.59160  0.11150  0.67940  Biso   1.000  H
  H55      1.0000 0.40840  0.61150  0.82060  Biso   1.000  H
  H56      1.0000 0.09160  0.38850  0.32060  Biso   1.000  H
  H57      1.0000 0.02660  0.82750  0.18770  Biso   1.000  H
  H58      1.0000 0.47340  0.17250  0.68770  Biso   1.000  H
  H59      1.0000 0.52660  0.67250  0.81230  Biso   1.000  H
  H60      1.0000 0.97340  0.32750  0.31230  Biso   1.000  H
  C101     1.0000 0.77500  0.77660  0.13590  Biso   1.000  C
  C102     1.0000 0.72500  0.22340  0.63590  Biso   1.000  C
  C103     1.0000 0.27500  0.72340  0.86410  Biso   1.000  C
  C104     1.0000 0.22500  0.27660  0.36410  Biso   1.000  C
  H61      1.0000 0.70470  0.73940  0.12810  Biso   1.000  H
  H62      1.0000 0.79530  0.26060  0.62810  Biso   1.000  H
  H63      1.0000 0.20470  0.76060  0.87190  Biso   1.000  H
  H64      1.0000 0.29530  0.23940  0.37190  Biso   1.000  H
  H65      1.0000 0.87240  0.76510  0.12310  Biso   1.000  H
  H66      1.0000 0.62760  0.23490  0.62310  Biso   1.000  H
  H67      1.0000 0.37240  0.73490  0.87690  Biso   1.000  H
  H68      1.0000 0.12760  0.26510  0.37690  Biso   1.000  H
  H69      1.0000 0.74060  0.82090  0.12270  Biso   1.000  H
  H70      1.0000 0.75940  0.17910  0.62270  Biso   1.000  H
  H71      1.0000 0.24060  0.67910  0.87730  Biso   1.000  H
  H72      1.0000 0.25940  0.32090  0.37730  Biso   1.000  H
  C105     1.0000 0.87900  0.16540  0.24230  Biso   1.000  C
  C106     1.0000 0.62100  0.83460  0.74230  Biso   1.000  C
  C107     1.0000 0.37900  0.33460  0.75770  Biso   1.000  C
  C108     1.0000 0.12100  0.66540  0.25770  Biso   1.000  C
  H73      1.0000 0.89640  0.21000  0.25800  Biso   1.000  H
  H74      1.0000 0.60360  0.79000  0.75800  Biso   1.000  H
  H75      1.0000 0.39640  0.29000  0.74200  Biso   1.000  H
  H76      1.0000 0.10360  0.71000  0.24200  Biso   1.000  H
  H77      1.0000 0.80700  0.13790  0.26000  Biso   1.000  H
  H78      1.0000 0.69300  0.86210  0.76000  Biso   1.000  H
  H79      1.0000 0.30700  0.36210  0.74000  Biso   1.000  H
  H80      1.0000 0.19300  0.63790  0.24000  Biso   1.000  H
  H81      1.0000 0.84030  0.17410  0.21110  Biso   1.000  H
  H82      1.0000 0.65970  0.82590  0.71110  Biso   1.000  H
  H83      1.0000 0.34030  0.32590  0.78890  Biso   1.000  H
  H84      1.0000 0.15970  0.67410  0.28890  Biso   1.000  H
  C109     1.0000 0.99300  0.04460  0.20480  Biso   1.000  C
  C110     1.0000 0.50700  0.95540  0.70480  Biso   1.000  C
  C111     1.0000 0.49300  0.45540  0.79520  Biso   1.000  C
  C112     1.0000 0.00700  0.54460  0.29520  Biso   1.000  C
  H85      1.0000 0.07370  0.01120  0.20090  Biso   1.000  H
  H86      1.0000 0.42630  0.98880  0.70090  Biso   1.000  H
  H87      1.0000 0.57370  0.48880  0.79910  Biso   1.000  H
  H88      1.0000 0.92630  0.51120  0.29910  Biso   1.000  H
  H89      1.0000 0.95960  0.06110  0.17440  Biso   1.000  H
  H90      1.0000 0.54040  0.93890  0.67440  Biso   1.000  H
  H91      1.0000 0.45960  0.43890  0.82560  Biso   1.000  H
  H92      1.0000 0.04040  0.56110  0.32560  Biso   1.000  H
  H93      1.0000 0.91000  0.02170  0.22080  Biso   1.000  H
  H94      1.0000 0.59000  0.97830  0.72080  Biso   1.000  H
  H95      1.0000 0.41000  0.47830  0.77920  Biso   1.000  H
  H96      1.0000 0.09000  0.52170  0.27920  Biso   1.000  H
  C113     1.0000 0.88800  0.09800  0.39470  Biso   1.000  C
  C114     1.0000 0.61200  0.90200  0.89470  Biso   1.000  C
  C115     1.0000 0.38800  0.40200  0.60530  Biso   1.000  C
  C116     1.0000 0.11200  0.59800  0.10530  Biso   1.000  C
  H97      1.0000 0.88620  0.12230  0.36480  Biso   1.000  H
  H98      1.0000 0.61380  0.87770  0.86480  Biso   1.000  H
  H99      1.0000 0.38620  0.37770  0.63520  Biso   1.000  H
  H100     1.0000 0.11380  0.62230  0.13520  Biso   1.000  H
  H101     1.0000 0.86720  0.13140  0.41960  Biso   1.000  H
  H102     1.0000 0.63280  0.86860  0.91960  Biso   1.000  H
  H103     1.0000 0.36720  0.36860  0.58040  Biso   1.000  H
  H104     1.0000 0.13280  0.63140  0.08040  Biso   1.000  H
  H105     1.0000 0.81340  0.06100  0.39480  Biso   1.000  H
  H106     1.0000 0.68660  0.93900  0.89480  Biso   1.000  H
  H107     1.0000 0.31340  0.43900  0.60520  Biso   1.000  H
  H108     1.0000 0.18660  0.56100  0.10520  Biso   1.000  H
  C117     1.0000 0.00000  0.00500  0.45100  Biso   1.000  C
  C118     1.0000 0.50000  0.99500  0.95100  Biso   1.000  C
  C119     1.0000 0.50000  0.49500  0.54900  Biso   1.000  C
  C120     1.0000 0.00000  0.50500  0.04900  Biso   1.000  C
  H109     1.0000 0.08010  0.99590  0.47320  Biso   1.000  H
  H110     1.0000 0.41990  0.00410  0.97320  Biso   1.000  H
  H111     1.0000 0.58010  0.50410  0.52680  Biso   1.000  H
  H112     1.0000 0.91990  0.49590  0.02680  Biso   1.000  H
  H113     1.0000 0.96360  0.96100  0.43850  Biso   1.000  H
  H114     1.0000 0.53640  0.03900  0.93850  Biso   1.000  H
  H115     1.0000 0.46360  0.53900  0.56150  Biso   1.000  H
  H116     1.0000 0.03640  0.46100  0.06150  Biso   1.000  H
  H117     1.0000 0.91960  0.02980  0.46680  Biso   1.000  H
  H118     1.0000 0.58040  0.97020  0.96680  Biso   1.000  H
  H119     1.0000 0.41960  0.47020  0.53320  Biso   1.000  H
  H120     1.0000 0.08040  0.52980  0.03320  Biso   1.000  H
  Cu1      1.0000 0.46234  0.76184  0.25225  Biso   1.000  Cu
  Cu2      1.0000 0.03766  0.23816  0.75225  Biso   1.000  Cu
  Cu3      1.0000 0.96234  0.73816  0.74775  Biso   1.000  Cu
  Cu4      1.0000 0.53766  0.26184  0.24775  Biso   1.000  Cu
  Mn1      1.0000 0.27279  0.02228  0.30948  Biso   1.000  Mn
  Mn2      1.0000 0.22721  0.97772  0.80948  Biso   1.000  Mn
  Mn3      1.0000 0.77279  0.47772  0.69052  Biso   1.000  Mn
  Mn4      1.0000 0.72721  0.52228  0.19052  Biso   1.000  Mn
  N1       1.0000 0.50170  0.82490  0.30520  Biso   1.000  N
  N2       1.0000 0.99830  0.17510  0.80520  Biso   1.000  N
  N3       1.0000 0.00170  0.67510  0.69480  Biso   1.000  N
  N4       1.0000 0.49830  0.32490  0.19480  Biso   1.000  N
  N5       1.0000 0.53370  0.67330  0.28090  Biso   1.000  N
  N6       1.0000 0.96630  0.32670  0.78090  Biso   1.000  N
  N7       1.0000 0.03370  0.82670  0.71910  Biso   1.000  N
  N8       1.0000 0.46630  0.17330  0.21910  Biso   1.000  N
  O1       1.0000 0.29310  0.82900  0.23890  Biso   1.000  O
  O2       1.0000 0.20690  0.17100  0.73890  Biso   1.000  O
  O3       1.0000 0.79310  0.67100  0.76110  Biso   1.000  O
  O4       1.0000 0.70690  0.32900  0.26110  Biso   1.000  O
  O5       1.0000 0.20290  0.93080  0.26620  Biso   1.000  O
  O6       1.0000 0.29710  0.06920  0.76620  Biso   1.000  O
  O7       1.0000 0.70290  0.56920  0.73380  Biso   1.000  O
  O8       1.0000 0.79710  0.43080  0.23380  Biso   1.000  O
  O9       1.0000 0.43070  0.93810  0.32870  Biso   1.000  O
  O10      1.0000 0.06930  0.06190  0.82870  Biso   1.000  O
  O11      1.0000 0.93070  0.56190  0.67130  Biso   1.000  O
  O12      1.0000 0.56930  0.43810  0.17130  Biso   1.000  O
  O13      1.0000 0.45360  0.70310  0.19330  Biso   1.000  O
  O14      1.0000 0.04640  0.29690  0.69330  Biso   1.000  O
  O15      1.0000 0.95360  0.79690  0.80670  Biso   1.000  O
  O16      1.0000 0.54640  0.20310  0.30670  Biso   1.000  O
  O17      1.0000 0.57740  0.60760  0.16590  Biso   1.000  O
  O18      1.0000 0.92260  0.39240  0.66590  Biso   1.000  O
  O19      1.0000 0.07740  0.89240  0.83410  Biso   1.000  O
  O20      1.0000 0.42260  0.10760  0.33410  Biso   1.000  O
  O21      1.0000 0.61570  0.56170  0.25560  Biso   1.000  O
  O22      1.0000 0.88430  0.43830  0.75560  Biso   1.000  O
  O23      1.0000 0.11570  0.93830  0.74440  Biso   1.000  O
  O24      1.0000 0.38430  0.06170  0.24440  Biso   1.000  O
  O25      1.0000 0.64770  0.82420  0.21330  Biso   1.000  O
  O26      1.0000 0.85230  0.17580  0.71330  Biso   1.000  O
  O27      1.0000 0.14770  0.67580  0.78670  Biso   1.000  O
  O28      1.0000 0.35230  0.32420  0.28670  Biso   1.000  O
  O29      1.0000 0.08530  0.09050  0.28760  Biso   1.000  O
  O30      1.0000 0.41470  0.90950  0.78760  Biso   1.000  O
  O31      1.0000 0.58530  0.40950  0.71240  Biso   1.000  O
  O32      1.0000 0.91470  0.59050  0.21240  Biso   1.000  O
  O33      1.0000 0.15790  0.01160  0.37560  Biso   1.000  O
  O34      1.0000 0.34210  0.98840  0.87560  Biso   1.000  O
  O35      1.0000 0.65790  0.48840  0.62440  Biso   1.000  O
  O36      1.0000 0.84210  0.51160  0.12440  Biso   1.000  O
  S1       1.0000 0.78780  0.78454  0.19748  Biso   1.000  S
  S2       1.0000 0.71220  0.21546  0.69748  Biso   1.000  S
  S3       1.0000 0.28780  0.71546  0.80252  Biso   1.000  S
  S4       1.0000 0.21220  0.28454  0.30252  Biso   1.000  S
  S5       1.0000 0.05450  0.11653  0.23814  Biso   1.000  S
  S6       1.0000 0.44550  0.88347  0.73814  Biso   1.000  S
  S7       1.0000 0.55450  0.38347  0.76186  Biso   1.000  S
  S8       1.0000 0.94550  0.61653  0.26186  Biso   1.000  S
  S9       1.0000 0.07110  0.05960  0.40370  Biso   1.000  S
  S10      1.0000 0.42890  0.94040  0.90370  Biso   1.000  S
  S11      1.0000 0.57110  0.44040  0.59630  Biso   1.000  S
  S12      1.0000 0.92890  0.55960  0.09630  Biso   1.000  S
  C121     1.0000 0.47200  0.94600  0.53440  Biso   1.000  C
  C122     1.0000 0.02800  0.05400  0.03440  Biso   1.000  C
  C123     1.0000 0.97200  0.55400  0.46560  Biso   1.000  C
  C124     1.0000 0.52800  0.44600  0.96560  Biso   1.000  C
  H121     1.0000 0.42650  0.90260  0.54560  Biso   1.000  H
  H122     1.0000 0.07350  0.09740  0.04560  Biso   1.000  H
  H123     1.0000 0.92650  0.59740  0.45440  Biso   1.000  H
  H124     1.0000 0.57350  0.40260  0.95440  Biso   1.000  H
  H125     1.0000 0.39780  0.98340  0.53450  Biso   1.000  H
  H126     1.0000 0.10220  0.01660  0.03450  Biso   1.000  H
  H127     1.0000 0.89780  0.51660  0.46550  Biso   1.000  H
  H128     1.0000 0.60220  0.48340  0.96550  Biso   1.000  H
  H129     1.0000 0.55420  0.95890  0.55470  Biso   1.000  H
  H130     1.0000 0.94580  0.04110  0.05470  Biso   1.000  H
  H131     1.0000 0.05420  0.54110  0.44530  Biso   1.000  H
  H132     1.0000 0.44580  0.45890  0.94530  Biso   1.000  H
  C125     1.0000 0.53000  0.02970  0.46530  Biso   1.000  C
  C126     1.0000 0.97000  0.97030  0.96530  Biso   1.000  C
  C127     1.0000 0.03000  0.47030  0.53470  Biso   1.000  C
  C128     1.0000 0.47000  0.52970  0.03470  Biso   1.000  C
  H133     1.0000 0.54180  0.04010  0.43230  Biso   1.000  H
  H134     1.0000 0.95820  0.95990  0.93230  Biso   1.000  H
  H135     1.0000 0.04180  0.45990  0.56770  Biso   1.000  H
  H136     1.0000 0.45820  0.54010  0.06770  Biso   1.000  H
  H137     1.0000 0.60790  0.05300  0.48300  Biso   1.000  H
  H138     1.0000 0.89210  0.94700  0.98300  Biso   1.000  H
  H139     1.0000 0.10790  0.44700  0.51700  Biso   1.000  H
  H140     1.0000 0.39210  0.55300  0.01700  Biso   1.000  H
  H141     1.0000 0.43290  0.04670  0.47580  Biso   1.000  H
  H142     1.0000 0.06710  0.95330  0.97580  Biso   1.000  H
  H143     1.0000 0.93290  0.45330  0.52420  Biso   1.000  H
  H144     1.0000 0.56710  0.54670  0.02420  Biso   1.000  H
  O37      1.0000 0.39760  0.91090  0.45020  Biso   1.000  O
  O38      1.0000 0.10240  0.08910  0.95020  Biso   1.000  O
  O39      1.0000 0.89760  0.58910  0.54980  Biso   1.000  O
  O40      1.0000 0.60240  0.41090  0.04980  Biso   1.000  O
  S13      1.0000 0.54120  0.93290  0.47460  Biso   1.000  S
  S14      1.0000 0.95880  0.06710  0.97460  Biso   1.000  S
  S15      1.0000 0.04120  0.56710  0.52540  Biso   1.000  S
  S16      1.0000 0.45880  0.43290  0.02540  Biso   1.000  S
  O41      1.0000 0.21700  0.06360  0.60480  Biso   1.000  O
  O42      1.0000 0.28300  0.93640  0.10480  Biso   1.000  O
  O43      1.0000 0.71700  0.43640  0.39520  Biso   1.000  O
  O44      1.0000 0.78300  0.56360  0.89520  Biso   1.000  O
  O45      1.0000 0.58900  0.72900  0.02450  Biso   1.000  O
  O46      1.0000 0.91100  0.27100  0.52450  Biso   1.000  O
  O47      1.0000 0.08900  0.77100  0.97550  Biso   1.000  O
  O48      1.0000 0.41100  0.22900  0.47550  Biso   1.000  O
  O49      1.0000 0.18300  0.73800  0.13510  Biso   1.000  O
  O50      1.0000 0.31700  0.26200  0.63510  Biso   1.000  O
  O51      1.0000 0.68300  0.76200  0.86490  Biso   1.000  O
  O52      1.0000 0.81700  0.23800  0.36490  Biso   1.000  O
  O53      1.0000 0.64770  0.97310  0.22580  Biso   1.000  O
  O54      1.0000 0.85230  0.02690  0.72580  Biso   1.000  O
  O55      1.0000 0.14770  0.52690  0.77420  Biso   1.000  O
  O56      1.0000 0.35230  0.47310  0.27420  Biso   1.000  O
