data_image0
_cell_length_a       11.8324
_cell_length_b       7.3549
_cell_length_c       16.6078
_cell_angle_alpha    90
_cell_angle_beta     102.07
_cell_angle_gamma    90

_symmetry_space_group_name_H-M    "P 1"
_symmetry_int_tables_number       1

loop_
  _symmetry_equiv_pos_as_xyz
  'x, y, z'

loop_
  _atom_site_label
  _atom_site_occupancy
  _atom_site_fract_x
  _atom_site_fract_y
  _atom_site_fract_z
  _atom_site_thermal_displace_type
  _atom_site_B_iso_or_equiv
  _atom_site_type_symbol
  Cu1      1.0000 0.45996  0.84563  0.01981  Biso   1.000  Cu
  Cu2      1.0000 0.04004  0.34563  0.48019  Biso   1.000  Cu
  Cu3      1.0000 0.54004  0.15437  0.98019  Biso   1.000  Cu
  Cu4      1.0000 0.95996  0.65437  0.51981  Biso   1.000  Cu
  O1       1.0000 0.33657  0.90520  0.92437  Biso   1.000  O
  O2       1.0000 0.16343  0.40520  0.57563  Biso   1.000  O
  O3       1.0000 0.66343  0.09480  0.07563  Biso   1.000  O
  O4       1.0000 0.83657  0.59480  0.42437  Biso   1.000  O
  O5       1.0000 0.40551  0.17257  0.89016  Biso   1.000  O
  O6       1.0000 0.09449  0.67257  0.60984  Biso   1.000  O
  O7       1.0000 0.59449  0.82743  0.10984  Biso   1.000  O
  O8       1.0000 0.90551  0.32743  0.39016  Biso   1.000  O
  O9       1.0000 0.88075  0.51909  0.59353  Biso   1.000  O
  O10      1.0000 0.61925  0.01909  0.90647  Biso   1.000  O
  O11      1.0000 0.11925  0.48091  0.40647  Biso   1.000  O
  O12      1.0000 0.38075  0.98091  0.09353  Biso   1.000  O
  O13      1.0000 0.94380  0.25169  0.55558  Biso   1.000  O
  O14      1.0000 0.55620  0.75169  0.94442  Biso   1.000  O
  O15      1.0000 0.05620  0.74831  0.44442  Biso   1.000  O
  O16      1.0000 0.44380  0.24831  0.05558  Biso   1.000  O
  O17      1.0000 0.36673  0.59295  0.02155  Biso   1.000  O
  O18      1.0000 0.13327  0.09295  0.47845  Biso   1.000  O
  O19      1.0000 0.63327  0.40705  0.97845  Biso   1.000  O
  O20      1.0000 0.86673  0.90705  0.52155  Biso   1.000  O
  H1       1.0000 0.39620  0.48900  0.03050  Biso   1.000  H
  H2       1.0000 0.10380  0.98900  0.46950  Biso   1.000  H
  H3       1.0000 0.60380  0.51100  0.96950  Biso   1.000  H
  H4       1.0000 0.89620  0.01100  0.53050  Biso   1.000  H
  H5       1.0000 0.32510  0.58700  0.98260  Biso   1.000  H
  H6       1.0000 0.17490  0.08700  0.51740  Biso   1.000  H
  H7       1.0000 0.67490  0.41300  0.01740  Biso   1.000  H
  H8       1.0000 0.82510  0.91300  0.48260  Biso   1.000  H
  C1       1.0000 0.33259  0.04468  0.87923  Biso   1.000  C
  C2       1.0000 0.16741  0.54468  0.62077  Biso   1.000  C
  C3       1.0000 0.66741  0.95532  0.12077  Biso   1.000  C
  C4       1.0000 0.83259  0.45532  0.37923  Biso   1.000  C
  C5       1.0000 0.23322  0.05790  0.80575  Biso   1.000  C
  C6       1.0000 0.26678  0.55790  0.69425  Biso   1.000  C
  C7       1.0000 0.76678  0.94210  0.19425  Biso   1.000  C
  C8       1.0000 0.73322  0.44210  0.30575  Biso   1.000  C
  H9       1.0000 0.21680  0.93470  0.78220  Biso   1.000  H
  H10      1.0000 0.28320  0.43470  0.71780  Biso   1.000  H
  H11      1.0000 0.78320  0.06530  0.21780  Biso   1.000  H
  H12      1.0000 0.71680  0.56530  0.28220  Biso   1.000  H
  H13      1.0000 0.25780  0.13410  0.76340  Biso   1.000  H
  H14      1.0000 0.24220  0.63410  0.73660  Biso   1.000  H
  H15      1.0000 0.74220  0.86590  0.23660  Biso   1.000  H
  H16      1.0000 0.75780  0.36590  0.26340  Biso   1.000  H
  C9       1.0000 0.12042  0.13733  0.82335  Biso   1.000  C
  C10      1.0000 0.37958  0.63733  0.67665  Biso   1.000  C
  C11      1.0000 0.87958  0.86267  0.17665  Biso   1.000  C
  C12      1.0000 0.62042  0.36267  0.32335  Biso   1.000  C
  C13      1.0000 0.92156  0.24039  0.74730  Biso   1.000  C
  C14      1.0000 0.57844  0.74039  0.75270  Biso   1.000  C
  C15      1.0000 0.07844  0.75961  0.25270  Biso   1.000  C
  C16      1.0000 0.42156  0.25961  0.24730  Biso   1.000  C
  C17      1.0000 0.94752  0.09158  0.88720  Biso   1.000  C
  C18      1.0000 0.55248  0.59158  0.61280  Biso   1.000  C
  C19      1.0000 0.05248  0.90842  0.11280  Biso   1.000  C
  C20      1.0000 0.44752  0.40842  0.38720  Biso   1.000  C
  H17      1.0000 0.91080  0.00860  0.92200  Biso   1.000  H
  H18      1.0000 0.58920  0.50860  0.57800  Biso   1.000  H
  H19      1.0000 0.08920  0.99140  0.07800  Biso   1.000  H
  H20      1.0000 0.41080  0.49140  0.42200  Biso   1.000  H
  C21      1.0000 0.02359  0.40548  0.87510  Biso   1.000  C
  C22      1.0000 0.47641  0.90548  0.62490  Biso   1.000  C
  C23      1.0000 0.97641  0.59452  0.12490  Biso   1.000  C
  C24      1.0000 0.52359  0.09452  0.37510  Biso   1.000  C
  H21      1.0000 0.03720  0.52720  0.90230  Biso   1.000  H
  H22      1.0000 0.46280  0.02720  0.59770  Biso   1.000  H
  H23      1.0000 0.96280  0.47280  0.09770  Biso   1.000  H
  H24      1.0000 0.53720  0.97280  0.40230  Biso   1.000  H
  C25      1.0000 0.06346  0.01044  0.87694  Biso   1.000  C
  C26      1.0000 0.43654  0.51044  0.62306  Biso   1.000  C
  C27      1.0000 0.93654  0.98956  0.12306  Biso   1.000  C
  C28      1.0000 0.56346  0.48956  0.37694  Biso   1.000  C
  H25      1.0000 0.05040  0.88930  0.85060  Biso   1.000  H
  H26      1.0000 0.44960  0.38930  0.64940  Biso   1.000  H
  H27      1.0000 0.94960  0.11070  0.14940  Biso   1.000  H
  H28      1.0000 0.55040  0.61070  0.35060  Biso   1.000  H
  H29      1.0000 0.11520  0.99520  0.93160  Biso   1.000  H
  H30      1.0000 0.38480  0.49520  0.56840  Biso   1.000  H
  H31      1.0000 0.88480  0.00480  0.06840  Biso   1.000  H
  H32      1.0000 0.61520  0.50480  0.43160  Biso   1.000  H
  C29      1.0000 0.13964  0.32396  0.86570  Biso   1.000  C
  C30      1.0000 0.36036  0.82396  0.63430  Biso   1.000  C
  C31      1.0000 0.86036  0.67604  0.13430  Biso   1.000  C
  C32      1.0000 0.63964  0.17604  0.36570  Biso   1.000  C
  H33      1.0000 0.19110  0.31050  0.92060  Biso   1.000  H
  H34      1.0000 0.30890  0.81050  0.57940  Biso   1.000  H
  H35      1.0000 0.80890  0.68950  0.07940  Biso   1.000  H
  H36      1.0000 0.69110  0.18950  0.42060  Biso   1.000  H
  H37      1.0000 0.17760  0.40680  0.83250  Biso   1.000  H
  H38      1.0000 0.32240  0.90680  0.66750  Biso   1.000  H
  H39      1.0000 0.82240  0.59320  0.16750  Biso   1.000  H
  H40      1.0000 0.67760  0.09320  0.33250  Biso   1.000  H
  C33      1.0000 0.03816  0.15960  0.73899  Biso   1.000  C
  C34      1.0000 0.46184  0.65960  0.76101  Biso   1.000  C
  C35      1.0000 0.96184  0.84040  0.26101  Biso   1.000  C
  C36      1.0000 0.53816  0.34040  0.23899  Biso   1.000  C
  H41      1.0000 0.07450  0.24010  0.70390  Biso   1.000  H
  H42      1.0000 0.42550  0.74010  0.79610  Biso   1.000  H
  H43      1.0000 0.92550  0.75990  0.29610  Biso   1.000  H
  H44      1.0000 0.57450  0.25990  0.20390  Biso   1.000  H
  H45      1.0000 0.02520  0.03950  0.71170  Biso   1.000  H
  H46      1.0000 0.47480  0.53950  0.78830  Biso   1.000  H
  H47      1.0000 0.97480  0.96050  0.28830  Biso   1.000  H
  H48      1.0000 0.52520  0.46050  0.21170  Biso   1.000  H
  C37      1.0000 0.96708  0.27862  0.92850  Biso   1.000  C
  C38      1.0000 0.53292  0.77862  0.57150  Biso   1.000  C
  C39      1.0000 0.03292  0.72138  0.07150  Biso   1.000  C
  C40      1.0000 0.46708  0.22138  0.42850  Biso   1.000  C
  H49      1.0000 0.01770  0.26640  0.98380  Biso   1.000  H
  H50      1.0000 0.48230  0.76640  0.51620  Biso   1.000  H
  H51      1.0000 0.98230  0.73360  0.01620  Biso   1.000  H
  H52      1.0000 0.51770  0.23360  0.48380  Biso   1.000  H
  H53      1.0000 0.89230  0.33020  0.93510  Biso   1.000  H
  H54      1.0000 0.60770  0.83020  0.56490  Biso   1.000  H
  H55      1.0000 0.10770  0.66980  0.06490  Biso   1.000  H
  H56      1.0000 0.39230  0.16980  0.43510  Biso   1.000  H
  C41      1.0000 0.86719  0.11306  0.80226  Biso   1.000  C
  C42      1.0000 0.63281  0.61306  0.69774  Biso   1.000  C
  C43      1.0000 0.13281  0.88694  0.19774  Biso   1.000  C
  C44      1.0000 0.36719  0.38694  0.30226  Biso   1.000  C
  H57      1.0000 0.79210  0.16350  0.80890  Biso   1.000  H
  H58      1.0000 0.70790  0.66350  0.69110  Biso   1.000  H
  H59      1.0000 0.20790  0.83650  0.19110  Biso   1.000  H
  H60      1.0000 0.29210  0.33650  0.30890  Biso   1.000  H
  H61      1.0000 0.85280  0.99250  0.77560  Biso   1.000  H
  H62      1.0000 0.64720  0.49250  0.72440  Biso   1.000  H
  H63      1.0000 0.14720  0.00750  0.22440  Biso   1.000  H
  H64      1.0000 0.35280  0.50750  0.27560  Biso   1.000  H
  C45      1.0000 0.94349  0.42722  0.78972  Biso   1.000  C
  C46      1.0000 0.55651  0.92722  0.71028  Biso   1.000  C
  C47      1.0000 0.05651  0.57278  0.21028  Biso   1.000  C
  C48      1.0000 0.44349  0.07278  0.28972  Biso   1.000  C
  H65      1.0000 0.97970  0.51000  0.75540  Biso   1.000  H
  H66      1.0000 0.52030  0.01000  0.74460  Biso   1.000  H
  H67      1.0000 0.02030  0.49000  0.24460  Biso   1.000  H
  H68      1.0000 0.47970  0.99000  0.25540  Biso   1.000  H
  H69      1.0000 0.86910  0.48130  0.79580  Biso   1.000  H
  H70      1.0000 0.63090  0.98130  0.70420  Biso   1.000  H
  H71      1.0000 0.13090  0.51870  0.20420  Biso   1.000  H
  H72      1.0000 0.36910  0.01870  0.29580  Biso   1.000  H
  C49      1.0000 0.83759  0.25212  0.66237  Biso   1.000  C
  C50      1.0000 0.66241  0.75212  0.83763  Biso   1.000  C
  C51      1.0000 0.16241  0.74788  0.33763  Biso   1.000  C
  C52      1.0000 0.33759  0.24788  0.16237  Biso   1.000  C
  H73      1.0000 0.81510  0.12760  0.64260  Biso   1.000  H
  H74      1.0000 0.68490  0.62760  0.85740  Biso   1.000  H
  H75      1.0000 0.18490  0.87240  0.35740  Biso   1.000  H
  H76      1.0000 0.31510  0.37240  0.14260  Biso   1.000  H
  H77      1.0000 0.76670  0.31700  0.66870  Biso   1.000  H
  H78      1.0000 0.73330  0.81700  0.83130  Biso   1.000  H
  H79      1.0000 0.23330  0.68300  0.33130  Biso   1.000  H
  H80      1.0000 0.26670  0.18300  0.16870  Biso   1.000  H
  C53      1.0000 0.88982  0.34924  0.59871  Biso   1.000  C
  C54      1.0000 0.61018  0.84924  0.90129  Biso   1.000  C
  C55      1.0000 0.11018  0.65076  0.40129  Biso   1.000  C
  C56      1.0000 0.38982  0.15076  0.09871  Biso   1.000  C
