data_image0
_cell_length_a       13.812
_cell_length_b       8.152
_cell_length_c       12.711
_cell_angle_alpha    90
_cell_angle_beta     113.03
_cell_angle_gamma    90

_symmetry_space_group_name_H-M    "P 1"
_symmetry_int_tables_number       1

loop_
  _symmetry_equiv_pos_as_xyz
  'x, y, z'

loop_
  _atom_site_label
  _atom_site_occupancy
  _atom_site_fract_x
  _atom_site_fract_y
  _atom_site_fract_z
  _atom_site_thermal_displace_type
  _atom_site_B_iso_or_equiv
  _atom_site_type_symbol
  Cu1      1.0000 0.87701  0.58410  0.25146  Biso   1.000  Cu
  Cu2      1.0000 0.12299  0.08410  0.24854  Biso   1.000  Cu
  Cu3      1.0000 0.12299  0.41590  0.74854  Biso   1.000  Cu
  Cu4      1.0000 0.87701  0.91590  0.75146  Biso   1.000  Cu
  O1       1.0000 0.26710  0.00100  0.88020  Biso   1.000  O
  O2       1.0000 0.73290  0.50100  0.61980  Biso   1.000  O
  O3       1.0000 0.73290  0.99900  0.11980  Biso   1.000  O
  O4       1.0000 0.26710  0.49900  0.38020  Biso   1.000  O
  H1       1.0000 0.28600  0.06630  0.93330  Biso   1.000  H
  H2       1.0000 0.71400  0.56630  0.56670  Biso   1.000  H
  H3       1.0000 0.71400  0.93370  0.06670  Biso   1.000  H
  H4       1.0000 0.28600  0.43370  0.43330  Biso   1.000  H
  O5       1.0000 0.39890  0.10700  0.84120  Biso   1.000  O
  O6       1.0000 0.60110  0.60700  0.65880  Biso   1.000  O
  O7       1.0000 0.60110  0.89300  0.15880  Biso   1.000  O
  O8       1.0000 0.39890  0.39300  0.34120  Biso   1.000  O
  O9       1.0000 0.32030  0.11600  0.09050  Biso   1.000  O
  O10      1.0000 0.67970  0.61600  0.40950  Biso   1.000  O
  O11      1.0000 0.67970  0.88400  0.90950  Biso   1.000  O
  O12      1.0000 0.32030  0.38400  0.59050  Biso   1.000  O
  O13      1.0000 0.04960  0.87990  0.26890  Biso   1.000  O
  O14      1.0000 0.95040  0.37990  0.23110  Biso   1.000  O
  O15      1.0000 0.95040  0.12010  0.73110  Biso   1.000  O
  O16      1.0000 0.04960  0.62010  0.76890  Biso   1.000  O
  C1       1.0000 0.41720  0.90900  0.28840  Biso   1.000  C
  C2       1.0000 0.58280  0.40900  0.21160  Biso   1.000  C
  C3       1.0000 0.58280  0.09100  0.71160  Biso   1.000  C
  C4       1.0000 0.41720  0.59100  0.78840  Biso   1.000  C
  H5       1.0000 0.45440  0.91610  0.24140  Biso   1.000  H
  H6       1.0000 0.54560  0.41610  0.25860  Biso   1.000  H
  H7       1.0000 0.54560  0.08390  0.75860  Biso   1.000  H
  H8       1.0000 0.45440  0.58390  0.74140  Biso   1.000  H
  C5       1.0000 0.39670  0.82000  0.46180  Biso   1.000  C
  C6       1.0000 0.60330  0.32000  0.03820  Biso   1.000  C
  C7       1.0000 0.60330  0.18000  0.53820  Biso   1.000  C
  C8       1.0000 0.39670  0.68000  0.96180  Biso   1.000  C
  H9       1.0000 0.42150  0.76590  0.53170  Biso   1.000  H
  H10      1.0000 0.57850  0.26590  0.96830  Biso   1.000  H
  H11      1.0000 0.57850  0.23410  0.46830  Biso   1.000  H
  H12      1.0000 0.42150  0.73410  0.03170  Biso   1.000  H
  C9       1.0000 0.45780  0.82100  0.39120  Biso   1.000  C
  C10      1.0000 0.54220  0.32100  0.10880  Biso   1.000  C
  C11      1.0000 0.54220  0.17900  0.60880  Biso   1.000  C
  C12      1.0000 0.45780  0.67900  0.89120  Biso   1.000  C
  H13      1.0000 0.52140  0.76500  0.41330  Biso   1.000  H
  H14      1.0000 0.47860  0.26500  0.08670  Biso   1.000  H
  H15      1.0000 0.47860  0.23500  0.58670  Biso   1.000  H
  H16      1.0000 0.52140  0.73500  0.91330  Biso   1.000  H
  N1       1.0000 0.26520  0.98470  0.32650  Biso   1.000  N
  N2       1.0000 0.73480  0.48470  0.17350  Biso   1.000  N
  N3       1.0000 0.73480  0.01530  0.67350  Biso   1.000  N
  N4       1.0000 0.26520  0.51530  0.82650  Biso   1.000  N
  O17      1.0000 0.01310  0.66140  0.35380  Biso   1.000  O
  O18      1.0000 0.98690  0.16140  0.14620  Biso   1.000  O
  O19      1.0000 0.98690  0.33860  0.64620  Biso   1.000  O
  O20      1.0000 0.01310  0.83860  0.85380  Biso   1.000  O
  O21      1.0000 0.18490  0.16600  0.14400  Biso   1.000  O
  O22      1.0000 0.81510  0.66600  0.35600  Biso   1.000  O
  O23      1.0000 0.81510  0.83400  0.85600  Biso   1.000  O
  O24      1.0000 0.18490  0.33400  0.64400  Biso   1.000  O
  C13      1.0000 0.14960  0.91100  0.66450  Biso   1.000  C
  C14      1.0000 0.85040  0.41100  0.83550  Biso   1.000  C
  C15      1.0000 0.85040  0.08900  0.33550  Biso   1.000  C
  C16      1.0000 0.14960  0.58900  0.16450  Biso   1.000  C
  H17      1.0000 0.11680  0.91640  0.71590  Biso   1.000  H
  H18      1.0000 0.88320  0.41640  0.78410  Biso   1.000  H
  H19      1.0000 0.88320  0.08360  0.28410  Biso   1.000  H
  H20      1.0000 0.11680  0.58360  0.21590  Biso   1.000  H
  C17      1.0000 0.30250  0.90000  0.42390  Biso   1.000  C
  C18      1.0000 0.69750  0.40000  0.07610  Biso   1.000  C
  C19      1.0000 0.69750  0.10000  0.57610  Biso   1.000  C
  C20      1.0000 0.30250  0.60000  0.92390  Biso   1.000  C
  C21      1.0000 0.09830  0.85000  0.55570  Biso   1.000  C
  C22      1.0000 0.90170  0.35000  0.94430  Biso   1.000  C
  C23      1.0000 0.90170  0.15000  0.44430  Biso   1.000  C
  C24      1.0000 0.09830  0.65000  0.05570  Biso   1.000  C
  H21      1.0000 0.03040  0.81010  0.53630  Biso   1.000  H
  H22      1.0000 0.96960  0.31010  0.96370  Biso   1.000  H
  H23      1.0000 0.96960  0.18990  0.46370  Biso   1.000  H
  H24      1.0000 0.03040  0.68990  0.03630  Biso   1.000  H
  C25      1.0000 0.25360  0.96500  0.69450  Biso   1.000  C
  C26      1.0000 0.74640  0.46500  0.80550  Biso   1.000  C
  C27      1.0000 0.74640  0.03500  0.30550  Biso   1.000  C
  C28      1.0000 0.25360  0.53500  0.19450  Biso   1.000  C
  C29      1.0000 0.24370  0.90330  0.50140  Biso   1.000  C
  C30      1.0000 0.75630  0.40330  0.99860  Biso   1.000  C
  C31      1.0000 0.75630  0.09670  0.49860  Biso   1.000  C
  C32      1.0000 0.24370  0.59670  0.00140  Biso   1.000  C
  C33      1.0000 0.30500  0.95800  0.61660  Biso   1.000  C
  C34      1.0000 0.69500  0.45800  0.88340  Biso   1.000  C
  C35      1.0000 0.69500  0.04200  0.38340  Biso   1.000  C
  C36      1.0000 0.30500  0.54200  0.11660  Biso   1.000  C
  H25      1.0000 0.37530  0.98700  0.63920  Biso   1.000  H
  H26      1.0000 0.62470  0.48700  0.86080  Biso   1.000  H
  H27      1.0000 0.62470  0.01300  0.36080  Biso   1.000  H
  H28      1.0000 0.37530  0.51300  0.13920  Biso   1.000  H
  C37      1.0000 0.31690  0.03200  0.81170  Biso   1.000  C
  C38      1.0000 0.68310  0.53200  0.68830  Biso   1.000  C
  C39      1.0000 0.68310  0.96800  0.18830  Biso   1.000  C
  C40      1.0000 0.31690  0.46800  0.31170  Biso   1.000  C
  C41      1.0000 0.32040  0.98600  0.25850  Biso   1.000  C
  C42      1.0000 0.67960  0.48600  0.24150  Biso   1.000  C
  C43      1.0000 0.67960  0.01400  0.74150  Biso   1.000  C
  C44      1.0000 0.32040  0.51400  0.75850  Biso   1.000  C
  C45      1.0000 0.06590  0.79300  0.35650  Biso   1.000  C
  C46      1.0000 0.93410  0.29300  0.14350  Biso   1.000  C
  C47      1.0000 0.93410  0.20700  0.64350  Biso   1.000  C
  C48      1.0000 0.06590  0.70700  0.85650  Biso   1.000  C
  C49      1.0000 0.13910  0.84400  0.47500  Biso   1.000  C
  C50      1.0000 0.86090  0.34400  0.02500  Biso   1.000  C
  C51      1.0000 0.86090  0.15600  0.52500  Biso   1.000  C
  C52      1.0000 0.13910  0.65600  0.97500  Biso   1.000  C
  C53      1.0000 0.27560  0.09000  0.15490  Biso   1.000  C
  C54      1.0000 0.72440  0.59000  0.34510  Biso   1.000  C
  C55      1.0000 0.72440  0.91000  0.84510  Biso   1.000  C
  C56      1.0000 0.27560  0.41000  0.65490  Biso   1.000  C
  O25      1.0000 0.87980  0.72620  0.11010  Biso   1.000  O
  O26      1.0000 0.12020  0.22620  0.38990  Biso   1.000  O
  O27      1.0000 0.12020  0.27380  0.88990  Biso   1.000  O
  O28      1.0000 0.87980  0.77380  0.61010  Biso   1.000  O
  H29      1.0000 0.83570  0.68650  0.04790  Biso   1.000  H
  H30      1.0000 0.16430  0.18650  0.45210  Biso   1.000  H
  H31      1.0000 0.16430  0.31350  0.95210  Biso   1.000  H
  H32      1.0000 0.83570  0.81350  0.54790  Biso   1.000  H
  H33      1.0000 0.94110  0.72250  0.10950  Biso   1.000  H
  H34      1.0000 0.05890  0.22250  0.39050  Biso   1.000  H
  H35      1.0000 0.05890  0.27750  0.89050  Biso   1.000  H
  H36      1.0000 0.94110  0.77750  0.60950  Biso   1.000  H
  O29      1.0000 0.17030  0.11800  0.12100  Biso   1.000  O
  O30      1.0000 0.82970  0.61800  0.37900  Biso   1.000  O
  O31      1.0000 0.82970  0.88200  0.87900  Biso   1.000  O
  O32      1.0000 0.17030  0.38200  0.62100  Biso   1.000  O
