data_image0
_cell_length_a       8.389
_cell_length_b       10.389
_cell_length_c       11.104
_cell_angle_alpha    98.31
_cell_angle_beta     110.63
_cell_angle_gamma    111.9

_symmetry_space_group_name_H-M    "P 1"
_symmetry_int_tables_number       1

loop_
  _symmetry_equiv_pos_as_xyz
  'x, y, z'

loop_
  _atom_site_label
  _atom_site_occupancy
  _atom_site_fract_x
  _atom_site_fract_y
  _atom_site_fract_z
  _atom_site_thermal_displace_type
  _atom_site_B_iso_or_equiv
  _atom_site_type_symbol
  Cu1      1.0000 0.15692  0.82504  0.33449  Biso   1.000  Cu
  Cu2      1.0000 0.84308  0.17496  0.66551  Biso   1.000  Cu
  Cu3      1.0000 0.66727  0.82984  0.49865  Biso   1.000  Cu
  Cu4      1.0000 0.33273  0.17016  0.50135  Biso   1.000  Cu
  O1       1.0000 0.30380  0.70340  0.38330  Biso   1.000  O
  O2       1.0000 0.69620  0.29660  0.61670  Biso   1.000  O
  O3       1.0000 0.33000  0.98430  0.49530  Biso   1.000  O
  O4       1.0000 0.67000  0.01570  0.50470  Biso   1.000  O
  C1       1.0000 0.01750  0.53060  0.18930  Biso   1.000  C
  C2       1.0000 0.98250  0.46940  0.81070  Biso   1.000  C
  N1       1.0000 0.97810  0.64690  0.18100  Biso   1.000  N
  N2       1.0000 0.02190  0.35310  0.81900  Biso   1.000  N
  O5       1.0000 0.69350  0.83560  0.68270  Biso   1.000  O
  O6       1.0000 0.30650  0.16440  0.31730  Biso   1.000  O
  O7       1.0000 0.26340  0.47490  0.31150  Biso   1.000  O
  O8       1.0000 0.73660  0.52510  0.68850  Biso   1.000  O
  O9       1.0000 0.93840  0.82940  0.37190  Biso   1.000  O
  O10      1.0000 0.06160  0.17060  0.62810  Biso   1.000  O
  C3       1.0000 0.72990  0.89860  0.90840  Biso   1.000  C
  C4       1.0000 0.27010  0.10140  0.09160  Biso   1.000  C
  O11      1.0000 0.75040  0.06070  0.78510  Biso   1.000  O
  O12      1.0000 0.24960  0.93930  0.21490  Biso   1.000  O
  C5       1.0000 0.81730  0.62170  0.07200  Biso   1.000  C
  C6       1.0000 0.18270  0.37830  0.92800  Biso   1.000  C
  C7       1.0000 0.69690  0.48550  0.97570  Biso   1.000  C
  C8       1.0000 0.30310  0.51450  0.02430  Biso   1.000  C
  H1       1.0000 0.58800  0.47200  0.90240  Biso   1.000  H
  H2       1.0000 0.41200  0.52800  0.09760  Biso   1.000  H
  C9       1.0000 0.78210  0.74910  0.05420  Biso   1.000  C
  C10      1.0000 0.21790  0.25090  0.94580  Biso   1.000  C
  C11      1.0000 0.21090  0.57480  0.30670  Biso   1.000  C
  C12      1.0000 0.78910  0.42520  0.69330  Biso   1.000  C
  O13      1.0000 0.64540  0.80590  0.31320  Biso   1.000  O
  O14      1.0000 0.35460  0.19410  0.68680  Biso   1.000  O
  C13      1.0000 0.72700  0.95470  0.12460  Biso   1.000  C
  C14      1.0000 0.27300  0.04530  0.87540  Biso   1.000  C
  H3       1.0000 0.71090  0.01180  0.18750  Biso   1.000  H
  H4       1.0000 0.28910  0.98820  0.81250  Biso   1.000  H
  C15      1.0000 0.76550  0.83980  0.15220  Biso   1.000  C
  C16      1.0000 0.23450  0.16020  0.84780  Biso   1.000  C
  C17      1.0000 0.90170  0.39270  0.09790  Biso   1.000  C
  C18      1.0000 0.09830  0.60730  0.90210  Biso   1.000  C
  H5       1.0000 0.93240  0.31660  0.10930  Biso   1.000  H
  H6       1.0000 0.06760  0.68340  0.89070  Biso   1.000  H
  C19      1.0000 0.78490  0.81990  0.28810  Biso   1.000  C
  C20      1.0000 0.21510  0.18010  0.71190  Biso   1.000  C
  C21      1.0000 0.71260  0.98440  0.00630  Biso   1.000  C
  C22      1.0000 0.28740  0.01560  0.99370  Biso   1.000  C
  H7       1.0000 0.69090  0.06340  0.99120  Biso   1.000  H
  H8       1.0000 0.30910  0.93660  0.00880  Biso   1.000  H
  C23      1.0000 0.72350  0.93340  0.78120  Biso   1.000  C
  C24      1.0000 0.27650  0.06660  0.21880  Biso   1.000  C
  C25      1.0000 0.76000  0.77930  0.93260  Biso   1.000  C
  C26      1.0000 0.24000  0.22070  0.06740  Biso   1.000  C
  H9       1.0000 0.76540  0.71830  0.86560  Biso   1.000  H
  H10      1.0000 0.23460  0.28170  0.13440  Biso   1.000  H
  C27      1.0000 0.73680  0.36880  0.98730  Biso   1.000  C
  C28      1.0000 0.26320  0.63120  0.01270  Biso   1.000  C
  H11      1.0000 0.65550  0.27670  0.92280  Biso   1.000  H
  H12      1.0000 0.34450  0.72330  0.07720  Biso   1.000  H
  O15      1.0000 0.64530  0.62700  0.47540  Biso   1.000  O
  O16      1.0000 0.35470  0.37300  0.52460  Biso   1.000  O
  O17      1.0000 0.75780  0.67860  0.52020  Biso   1.000  O
  O18      1.0000 0.24220  0.32140  0.47980  Biso   1.000  O
  O19      1.0000 0.17000  0.76910  0.62110  Biso   1.000  O
  O20      1.0000 0.83000  0.23090  0.37890  Biso   1.000  O
  O21      1.0000 0.26000  0.77900  0.64800  Biso   1.000  O
  O22      1.0000 0.74000  0.22100  0.35200  Biso   1.000  O
  O23      1.0000 0.65800  0.43670  0.32340  Biso   1.000  O
  O24      1.0000 0.34200  0.56330  0.67660  Biso   1.000  O
  O25      1.0000 0.80200  0.44100  0.36300  Biso   1.000  O
  O26      1.0000 0.19800  0.55900  0.63700  Biso   1.000  O
