data_image0
_cell_length_a       11.1593
_cell_length_b       11.5796
_cell_length_c       19.8628
_cell_angle_alpha    90.487
_cell_angle_beta     98.53
_cell_angle_gamma    101.598

_symmetry_space_group_name_H-M    "P 1"
_symmetry_int_tables_number       1

loop_
  _symmetry_equiv_pos_as_xyz
  'x, y, z'

loop_
  _atom_site_label
  _atom_site_occupancy
  _atom_site_fract_x
  _atom_site_fract_y
  _atom_site_fract_z
  _atom_site_thermal_displace_type
  _atom_site_B_iso_or_equiv
  _atom_site_type_symbol
  Cu1      1.0000 0.12571  0.33248  0.25937  Biso   1.000  Cu
  Cu2      1.0000 0.87429  0.66752  0.74063  Biso   1.000  Cu
  Cu3      1.0000 0.14623  0.82715  0.30117  Biso   1.000  Cu
  Cu4      1.0000 0.85377  0.17285  0.69883  Biso   1.000  Cu
  O1       1.0000 0.11450  0.19760  0.33060  Biso   1.000  O
  O2       1.0000 0.88550  0.80240  0.66940  Biso   1.000  O
  O3       1.0000 0.05840  0.02140  0.27692  Biso   1.000  O
  O4       1.0000 0.94160  0.97860  0.72308  Biso   1.000  O
  O5       1.0000 0.00110  0.71280  0.31850  Biso   1.000  O
  O6       1.0000 0.99890  0.28720  0.68150  Biso   1.000  O
  O7       1.0000 0.82770  0.68690  0.36410  Biso   1.000  O
  O8       1.0000 0.17230  0.31310  0.63590  Biso   1.000  O
  O9       1.0000 0.29860  0.93620  0.28610  Biso   1.000  O
  O10      1.0000 0.70140  0.06380  0.71390  Biso   1.000  O
  O11      1.0000 0.49500  0.94270  0.27570  Biso   1.000  O
  O12      1.0000 0.50500  0.05730  0.72430  Biso   1.000  O
  O13      1.0000 0.17960  0.44920  0.33742  Biso   1.000  O
  O14      1.0000 0.82040  0.55080  0.66258  Biso   1.000  O
  O15      1.0000 0.19460  0.59840  0.26687  Biso   1.000  O
  O16      1.0000 0.80540  0.40160  0.73313  Biso   1.000  O
  N1       1.0000 0.08460  0.29300  0.15830  Biso   1.000  N
  N2       1.0000 0.91540  0.70700  0.84170  Biso   1.000  N
  N3       1.0000 0.91150  0.19590  0.80190  Biso   1.000  N
  N4       1.0000 0.08850  0.80410  0.19810  Biso   1.000  N
  N5       1.0000 0.30640  0.33060  0.25340  Biso   1.000  N
  N6       1.0000 0.69360  0.66940  0.74660  Biso   1.000  N
  N7       1.0000 0.94380  0.33430  0.26030  Biso   1.000  N
  N8       1.0000 0.05620  0.66570  0.73970  Biso   1.000  N
  N9       1.0000 0.28790  0.76360  0.37483  Biso   1.000  N
  N10      1.0000 0.71210  0.23640  0.62517  Biso   1.000  N
  N11      1.0000 0.11130  0.90700  0.39624  Biso   1.000  N
  N12      1.0000 0.88870  0.09300  0.60376  Biso   1.000  N
  C1       1.0000 0.09100  0.38150  0.11590  Biso   1.000  C
  C2       1.0000 0.90900  0.61850  0.88410  Biso   1.000  C
  H1       1.0000 0.11560  0.45830  0.13420  Biso   1.000  H
  H2       1.0000 0.88440  0.54170  0.86580  Biso   1.000  H
  C3       1.0000 0.06330  0.36500  0.04700  Biso   1.000  C
  C4       1.0000 0.93670  0.63500  0.95300  Biso   1.000  C
  H3       1.0000 0.07270  0.42940  0.01920  Biso   1.000  H
  H4       1.0000 0.92730  0.57060  0.98080  Biso   1.000  H
  C5       1.0000 0.02080  0.25130  0.01820  Biso   1.000  C
  C6       1.0000 0.97920  0.74870  0.98180  Biso   1.000  C
  C7       1.0000 0.01390  0.16090  0.06200  Biso   1.000  C
  C8       1.0000 0.98610  0.83910  0.93800  Biso   1.000  C
  C9       1.0000 0.04780  0.18340  0.13080  Biso   1.000  C
  C10      1.0000 0.95220  0.81660  0.86920  Biso   1.000  C
  H5       1.0000 0.04510  0.12020  0.15950  Biso   1.000  H
  H6       1.0000 0.95490  0.87980  0.84050  Biso   1.000  H
  C11      1.0000 0.99710  0.28720  0.82940  Biso   1.000  C
  C12      1.0000 0.00290  0.71280  0.17060  Biso   1.000  C
  C13      1.0000 0.03580  0.30790  0.89770  Biso   1.000  C
  C14      1.0000 0.96420  0.69210  0.10230  Biso   1.000  C
  H7       1.0000 0.09710  0.37330  0.91360  Biso   1.000  H
  H8       1.0000 0.90290  0.62670  0.08640  Biso   1.000  H
  C15      1.0000 0.98370  0.23140  0.94280  Biso   1.000  C
  C16      1.0000 0.01630  0.76860  0.05720  Biso   1.000  C
  C17      1.0000 0.89470  0.13570  0.91510  Biso   1.000  C
  C18      1.0000 0.10530  0.86430  0.08490  Biso   1.000  C
  H9       1.0000 0.85720  0.08120  0.94360  Biso   1.000  H
  H10      1.0000 0.14280  0.91880  0.05640  Biso   1.000  H
  C19      1.0000 0.86140  0.12030  0.84640  Biso   1.000  C
  C20      1.0000 0.13860  0.87970  0.15360  Biso   1.000  C
  C21      1.0000 0.38700  0.42760  0.24480  Biso   1.000  C
  C22      1.0000 0.61300  0.57240  0.75520  Biso   1.000  C
  C23      1.0000 0.51080  0.43090  0.24490  Biso   1.000  C
  C24      1.0000 0.48920  0.56910  0.75510  Biso   1.000  C
  C25      1.0000 0.55790  0.33100  0.25400  Biso   1.000  C
  C26      1.0000 0.44210  0.66900  0.74600  Biso   1.000  C
  C27      1.0000 0.47160  0.22820  0.26120  Biso   1.000  C
  C28      1.0000 0.52840  0.77180  0.73880  Biso   1.000  C
  C29      1.0000 0.35000  0.23170  0.26010  Biso   1.000  C
  C30      1.0000 0.65000  0.76830  0.73990  Biso   1.000  C
  H11      1.0000 0.29470  0.16140  0.26420  Biso   1.000  H
  H12      1.0000 0.70530  0.83860  0.73580  Biso   1.000  H
  C31      1.0000 0.90330  0.43160  0.27190  Biso   1.000  C
  C32      1.0000 0.09670  0.56840  0.72810  Biso   1.000  C
  C33      1.0000 0.78050  0.43430  0.27010  Biso   1.000  C
  C34      1.0000 0.21950  0.56570  0.72990  Biso   1.000  C
  C35      1.0000 0.69060  0.33140  0.25570  Biso   1.000  C
  C36      1.0000 0.30940  0.66860  0.74430  Biso   1.000  C
  C37      1.0000 0.73320  0.22940  0.24510  Biso   1.000  C
  C38      1.0000 0.26680  0.77060  0.75490  Biso   1.000  C
  C39      1.0000 0.85910  0.23530  0.24810  Biso   1.000  C
  C40      1.0000 0.14090  0.76470  0.75190  Biso   1.000  C
  H13      1.0000 0.88580  0.16560  0.24110  Biso   1.000  H
  H14      1.0000 0.11420  0.83440  0.75890  Biso   1.000  H
  C41      1.0000 0.18080  0.85520  0.45510  Biso   1.000  C
  C42      1.0000 0.81920  0.14480  0.54490  Biso   1.000  C
  C43      1.0000 0.30480  0.84150  0.43770  Biso   1.000  C
  C44      1.0000 0.69520  0.15850  0.56230  Biso   1.000  C
  C45      1.0000 0.38410  0.79890  0.49920  Biso   1.000  C
  C46      1.0000 0.61590  0.20110  0.50080  Biso   1.000  C
  H15      1.0000 0.34600  0.71890  0.50860  Biso   1.000  H
  H16      1.0000 0.65400  0.28110  0.49140  Biso   1.000  H
  H17      1.0000 0.46560  0.79790  0.48800  Biso   1.000  H
  H18      1.0000 0.53440  0.20210  0.51200  Biso   1.000  H
  C47      1.0000 0.39730  0.87860  0.56290  Biso   1.000  C
  C48      1.0000 0.60270  0.12140  0.43710  Biso   1.000  C
  H19      1.0000 0.44810  0.85020  0.60050  Biso   1.000  H
  H20      1.0000 0.55190  0.14980  0.39950  Biso   1.000  H
  H21      1.0000 0.43730  0.95840  0.55430  Biso   1.000  H
  H22      1.0000 0.56270  0.04160  0.44570  Biso   1.000  H
  C49      1.0000 0.26950  0.87810  0.58110  Biso   1.000  C
  C50      1.0000 0.73050  0.12190  0.41890  Biso   1.000  C
  C51      1.0000 0.19310  0.92470  0.52300  Biso   1.000  C
  C52      1.0000 0.80690  0.07530  0.47700  Biso   1.000  C
  C53      1.0000 0.14440  0.03610  0.39550  Biso   1.000  C
  C54      1.0000 0.85560  0.96390  0.60450  Biso   1.000  C
  C55      1.0000 0.10050  0.08720  0.32810  Biso   1.000  C
  C56      1.0000 0.89950  0.91280  0.67190  Biso   1.000  C
  C57      1.0000 0.97540  0.86530  0.39360  Biso   1.000  C
  C58      1.0000 0.02460  0.13470  0.60640  Biso   1.000  C
  C59      1.0000 0.93190  0.74570  0.35690  Biso   1.000  C
  C60      1.0000 0.06810  0.25430  0.64310  Biso   1.000  C
  C61      1.0000 0.39770  0.79240  0.34120  Biso   1.000  C
  C62      1.0000 0.60230  0.20760  0.65880  Biso   1.000  C
  C63      1.0000 0.39710  0.89720  0.29800  Biso   1.000  C
  C64      1.0000 0.60290  0.10280  0.70200  Biso   1.000  C
  C65      1.0000 0.25540  0.63710  0.38780  Biso   1.000  C
  C66      1.0000 0.74460  0.36290  0.61220  Biso   1.000  C
  C67      1.0000 0.20560  0.55870  0.32420  Biso   1.000  C
  C68      1.0000 0.79440  0.44130  0.67580  Biso   1.000  C
  O17      1.0000 0.35270  0.30840  0.42870  Biso   1.000  O
  O18      1.0000 0.64730  0.69160  0.57130  Biso   1.000  O
  O19      1.0000 0.83720  0.93820  0.18980  Biso   1.000  O
  O20      1.0000 0.16280  0.06180  0.81020  Biso   1.000  O
  O21      1.0000 0.83580  0.47780  0.44750  Biso   1.000  O
  O22      1.0000 0.16420  0.52220  0.55250  Biso   1.000  O
  O23      1.0000 0.66380  0.74400  0.44090  Biso   1.000  O
  O24      1.0000 0.33620  0.25600  0.55910  Biso   1.000  O
  O25      1.0000 0.02850  0.34130  0.44900  Biso   1.000  O
  O26      1.0000 0.97150  0.65870  0.55100  Biso   1.000  O
  O27      1.0000 0.56710  0.47870  0.42300  Biso   1.000  O
  O28      1.0000 0.43290  0.52130  0.57700  Biso   1.000  O
  O29      1.0000 0.46570  0.00720  0.13800  Biso   1.000  O
  O30      1.0000 0.53430  0.99280  0.86200  Biso   1.000  O
  O31      1.0000 0.66820  0.80820  0.26900  Biso   1.000  O
  O32      1.0000 0.33180  0.19180  0.73100  Biso   1.000  O
  O33      1.0000 0.30810  0.65860  0.14310  Biso   1.000  O
  O34      1.0000 0.69190  0.34140  0.85690  Biso   1.000  O
  O35      1.0000 0.76590  0.94750  0.05130  Biso   1.000  O
  O36      1.0000 0.23410  0.05250  0.94870  Biso   1.000  O
  O37      1.0000 0.33650  0.17860  0.07430  Biso   1.000  O
  O38      1.0000 0.66350  0.82140  0.92570  Biso   1.000  O
  O39      1.0000 0.38000  0.42300  0.05390  Biso   1.000  O
  O40      1.0000 0.62000  0.57700  0.94610  Biso   1.000  O
  O41      1.0000 0.54600  0.17300  0.93890  Biso   1.000  O
  O42      1.0000 0.45400  0.82700  0.06110  Biso   1.000  O
  O43      1.0000 0.59700  0.67400  0.14530  Biso   1.000  O
  O44      1.0000 0.40300  0.32600  0.85470  Biso   1.000  O
  O45      1.0000 0.67700  0.13800  0.06500  Biso   1.000  O
  O46      1.0000 0.32300  0.86200  0.93500  Biso   1.000  O
  O47      1.0000 0.65400  0.51700  0.07730  Biso   1.000  O
  O48      1.0000 0.34600  0.48300  0.92270  Biso   1.000  O
  H23      1.0000 0.99900  0.08000  0.04100  Biso   1.000  H
  H24      1.0000 0.00100  0.92000  0.95900  Biso   1.000  H
  H25      1.0000 0.02400  0.33100  0.80400  Biso   1.000  H
  H26      1.0000 0.97600  0.66900  0.19600  Biso   1.000  H
  H27      1.0000 0.79200  0.04800  0.82300  Biso   1.000  H
  H28      1.0000 0.20800  0.95200  0.17700  Biso   1.000  H
  H29      1.0000 0.34400  0.49100  0.23400  Biso   1.000  H
  H30      1.0000 0.65600  0.50900  0.76600  Biso   1.000  H
  H31      1.0000 0.55900  0.48300  0.24100  Biso   1.000  H
  H32      1.0000 0.44100  0.51700  0.75900  Biso   1.000  H
  H33      1.0000 0.48700  0.17000  0.26500  Biso   1.000  H
  H34      1.0000 0.51300  0.83000  0.73500  Biso   1.000  H
  H35      1.0000 0.96300  0.49300  0.28600  Biso   1.000  H
  H36      1.0000 0.03700  0.50700  0.71400  Biso   1.000  H
  H37      1.0000 0.75000  0.51000  0.27300  Biso   1.000  H
  H38      1.0000 0.25000  0.49000  0.72700  Biso   1.000  H
  H39      1.0000 0.67800  0.15000  0.23400  Biso   1.000  H
  H40      1.0000 0.32200  0.85000  0.76600  Biso   1.000  H
  H41      1.0000 0.13900  0.77600  0.45800  Biso   1.000  H
  H42      1.0000 0.86100  0.22400  0.54200  Biso   1.000  H
  H43      1.0000 0.34400  0.92000  0.42800  Biso   1.000  H
  H44      1.0000 0.65600  0.08000  0.57200  Biso   1.000  H
  H45      1.0000 0.25700  0.93500  0.61400  Biso   1.000  H
  H46      1.0000 0.74300  0.06500  0.38600  Biso   1.000  H
  H47      1.0000 0.22100  0.79900  0.58700  Biso   1.000  H
  H48      1.0000 0.77900  0.20100  0.41300  Biso   1.000  H
  H49      1.0000 0.12100  0.91700  0.53400  Biso   1.000  H
  H50      1.0000 0.87900  0.08300  0.46600  Biso   1.000  H
  H51      1.0000 0.24600  0.00200  0.52900  Biso   1.000  H
  H52      1.0000 0.75400  0.99800  0.47100  Biso   1.000  H
  H53      1.0000 0.12000  0.06200  0.43300  Biso   1.000  H
  H54      1.0000 0.88000  0.93800  0.56700  Biso   1.000  H
  H55      1.0000 0.23800  0.06200  0.40100  Biso   1.000  H
  H56      1.0000 0.76200  0.93800  0.59900  Biso   1.000  H
  H57      1.0000 0.95100  0.85500  0.44400  Biso   1.000  H
  H58      1.0000 0.04900  0.14500  0.55600  Biso   1.000  H
  H59      1.0000 0.93000  0.92400  0.35700  Biso   1.000  H
  H60      1.0000 0.07000  0.07600  0.64300  Biso   1.000  H
  H61      1.0000 0.46400  0.80500  0.36500  Biso   1.000  H
  H62      1.0000 0.53600  0.19500  0.63500  Biso   1.000  H
  H63      1.0000 0.39300  0.73200  0.31300  Biso   1.000  H
  H64      1.0000 0.60700  0.26800  0.68700  Biso   1.000  H
  H65      1.0000 0.19700  0.62600  0.42000  Biso   1.000  H
  H66      1.0000 0.80300  0.37400  0.58000  Biso   1.000  H
  H67      1.0000 0.30900  0.61200  0.41000  Biso   1.000  H
  H68      1.0000 0.69100  0.38800  0.59000  Biso   1.000  H
