data_image0
_cell_length_a       13.52
_cell_length_b       11.326
_cell_length_c       8.731
_cell_angle_alpha    90
_cell_angle_beta     93.98
_cell_angle_gamma    90

_symmetry_space_group_name_H-M    "P 1"
_symmetry_int_tables_number       1

loop_
  _symmetry_equiv_pos_as_xyz
  'x, y, z'

loop_
  _atom_site_label
  _atom_site_occupancy
  _atom_site_fract_x
  _atom_site_fract_y
  _atom_site_fract_z
  _atom_site_thermal_displace_type
  _atom_site_B_iso_or_equiv
  _atom_site_type_symbol
  O1       1.0000 0.11020  0.11440  0.01720  Biso   1.000  O
  O2       1.0000 0.11020  0.88560  0.51720  Biso   1.000  O
  O3       1.0000 0.61020  0.61440  0.01720  Biso   1.000  O
  O4       1.0000 0.61020  0.38560  0.51720  Biso   1.000  O
  O5       1.0000 0.28460  0.89010  0.99390  Biso   1.000  O
  O6       1.0000 0.28460  0.10990  0.49390  Biso   1.000  O
  O7       1.0000 0.78460  0.39010  0.99390  Biso   1.000  O
  O8       1.0000 0.78460  0.60990  0.49390  Biso   1.000  O
  O9       1.0000 0.11660  0.96930  0.84430  Biso   1.000  O
  O10      1.0000 0.11660  0.03070  0.34430  Biso   1.000  O
  O11      1.0000 0.61660  0.46930  0.84430  Biso   1.000  O
  O12      1.0000 0.61660  0.53070  0.34430  Biso   1.000  O
  N1       1.0000 0.97240  0.25330  0.18480  Biso   1.000  N
  N2       1.0000 0.97240  0.74670  0.68480  Biso   1.000  N
  N3       1.0000 0.47240  0.75330  0.18480  Biso   1.000  N
  N4       1.0000 0.47240  0.24670  0.68480  Biso   1.000  N
  N5       1.0000 0.41520  0.25210  0.33920  Biso   1.000  N
  N6       1.0000 0.41520  0.74790  0.83920  Biso   1.000  N
  N7       1.0000 0.91520  0.75210  0.33920  Biso   1.000  N
  N8       1.0000 0.91520  0.24790  0.83920  Biso   1.000  N
  Cu1      1.0000 0.19800  0.15827  0.25420  Biso   1.000  Cu
  Cu2      1.0000 0.19800  0.84173  0.75420  Biso   1.000  Cu
  Cu3      1.0000 0.69800  0.65827  0.25420  Biso   1.000  Cu
  Cu4      1.0000 0.69800  0.34173  0.75420  Biso   1.000  Cu
  O13      1.0000 0.27780  0.02960  0.16760  Biso   1.000  O
  O14      1.0000 0.27780  0.97040  0.66760  Biso   1.000  O
  O15      1.0000 0.77780  0.52960  0.16760  Biso   1.000  O
  O16      1.0000 0.77780  0.47040  0.66760  Biso   1.000  O
  N9       1.0000 0.28050  0.28050  0.15560  Biso   1.000  N
  N10      1.0000 0.28050  0.71950  0.65560  Biso   1.000  N
  N11      1.0000 0.78050  0.78050  0.15560  Biso   1.000  N
  N12      1.0000 0.78050  0.21950  0.65560  Biso   1.000  N
  C1       1.0000 0.24790  0.33540  0.02900  Biso   1.000  C
  C2       1.0000 0.24790  0.66460  0.52900  Biso   1.000  C
  C3       1.0000 0.74790  0.83540  0.02900  Biso   1.000  C
  C4       1.0000 0.74790  0.16460  0.52900  Biso   1.000  C
  C5       1.0000 0.15120  0.02080  0.95600  Biso   1.000  C
  C6       1.0000 0.15120  0.97920  0.45600  Biso   1.000  C
  C7       1.0000 0.65120  0.52080  0.95600  Biso   1.000  C
  C8       1.0000 0.65120  0.47920  0.45600  Biso   1.000  C
  C9       1.0000 0.28880  0.41400  0.94900  Biso   1.000  C
  C10      1.0000 0.28880  0.58600  0.44900  Biso   1.000  C
  C11      1.0000 0.78880  0.91400  0.94900  Biso   1.000  C
  C12      1.0000 0.78880  0.08600  0.44900  Biso   1.000  C
  C13      1.0000 0.09360  0.40840  0.57500  Biso   1.000  C
  C14      1.0000 0.09360  0.59160  0.07500  Biso   1.000  C
  C15      1.0000 0.59360  0.90840  0.57500  Biso   1.000  C
  C16      1.0000 0.59360  0.09160  0.07500  Biso   1.000  C
  C17      1.0000 0.38070  0.29970  0.21400  Biso   1.000  C
  C18      1.0000 0.38070  0.70030  0.71400  Biso   1.000  C
  C19      1.0000 0.88070  0.79970  0.21400  Biso   1.000  C
  C20      1.0000 0.88070  0.20030  0.71400  Biso   1.000  C
  C21      1.0000 0.15960  0.33300  0.48800  Biso   1.000  C
  C22      1.0000 0.15960  0.66700  0.98800  Biso   1.000  C
  C23      1.0000 0.65960  0.83300  0.48800  Biso   1.000  C
  C24      1.0000 0.65960  0.16700  0.98800  Biso   1.000  C
  C25      1.0000 0.24640  0.97360  0.04460  Biso   1.000  C
  C26      1.0000 0.24640  0.02640  0.54460  Biso   1.000  C
  C27      1.0000 0.74640  0.47360  0.04460  Biso   1.000  C
  C28      1.0000 0.74640  0.52640  0.54460  Biso   1.000  C
  C29      1.0000 0.01830  0.31200  0.31600  Biso   1.000  C
  C30      1.0000 0.01830  0.68800  0.81600  Biso   1.000  C
  C31      1.0000 0.51830  0.81200  0.31600  Biso   1.000  C
  C32      1.0000 0.51830  0.18800  0.81600  Biso   1.000  C
  C33      1.0000 0.99780  0.44070  0.53300  Biso   1.000  C
  C34      1.0000 0.99780  0.55930  0.03300  Biso   1.000  C
  C35      1.0000 0.49780  0.94070  0.53300  Biso   1.000  C
  C36      1.0000 0.49780  0.05930  0.03300  Biso   1.000  C
  N13      1.0000 0.10950  0.28180  0.35290  Biso   1.000  N
  N14      1.0000 0.10950  0.71820  0.85290  Biso   1.000  N
  N15      1.0000 0.60950  0.78180  0.35290  Biso   1.000  N
  N16      1.0000 0.60950  0.21820  0.85290  Biso   1.000  N
  C37      1.0000 0.44130  0.38680  0.11800  Biso   1.000  C
  C38      1.0000 0.44130  0.61320  0.61800  Biso   1.000  C
  C39      1.0000 0.94130  0.88680  0.11800  Biso   1.000  C
  C40      1.0000 0.94130  0.11320  0.61800  Biso   1.000  C
  C41      1.0000 0.96530  0.38880  0.39000  Biso   1.000  C
  C42      1.0000 0.96530  0.61120  0.89000  Biso   1.000  C
  C43      1.0000 0.46530  0.88880  0.39000  Biso   1.000  C
  C44      1.0000 0.46530  0.11120  0.89000  Biso   1.000  C
  C45      1.0000 0.39190  0.43540  0.99500  Biso   1.000  C
  C46      1.0000 0.39190  0.56460  0.49500  Biso   1.000  C
  C47      1.0000 0.89190  0.93540  0.99500  Biso   1.000  C
  C48      1.0000 0.89190  0.06460  0.49500  Biso   1.000  C
