data_image0
_cell_length_a       13.4876
_cell_length_b       11.2653
_cell_length_c       8.701
_cell_angle_alpha    90
_cell_angle_beta     93.755
_cell_angle_gamma    90

_symmetry_space_group_name_H-M    "P 1"
_symmetry_int_tables_number       1

loop_
  _symmetry_equiv_pos_as_xyz
  'x, y, z'

loop_
  _atom_site_label
  _atom_site_occupancy
  _atom_site_fract_x
  _atom_site_fract_y
  _atom_site_fract_z
  _atom_site_thermal_displace_type
  _atom_site_B_iso_or_equiv
  _atom_site_type_symbol
  Cu1      1.0000 0.50000  0.65891  0.25000  Biso   1.000  Cu
  Cu2      1.0000 0.00000  0.15891  0.25000  Biso   1.000  Cu
  Cu3      1.0000 0.50000  0.34109  0.75000  Biso   1.000  Cu
  Cu4      1.0000 0.00000  0.84109  0.75000  Biso   1.000  Cu
  N1       1.0000 0.58587  0.78179  0.15100  Biso   1.000  N
  N2       1.0000 0.41413  0.78179  0.34900  Biso   1.000  N
  N3       1.0000 0.08587  0.28179  0.15100  Biso   1.000  N
  N4       1.0000 0.91413  0.28179  0.34900  Biso   1.000  N
  N5       1.0000 0.41413  0.21821  0.84900  Biso   1.000  N
  N6       1.0000 0.58587  0.21821  0.65100  Biso   1.000  N
  N7       1.0000 0.91413  0.71821  0.84900  Biso   1.000  N
  N8       1.0000 0.08587  0.71821  0.65100  Biso   1.000  N
  C1       1.0000 0.54864  0.47584  0.04340  Biso   1.000  C
  C2       1.0000 0.45136  0.47584  0.45660  Biso   1.000  C
  C3       1.0000 0.04864  0.97584  0.04340  Biso   1.000  C
  C4       1.0000 0.95136  0.97584  0.45660  Biso   1.000  C
  C5       1.0000 0.45136  0.52416  0.95660  Biso   1.000  C
  C6       1.0000 0.54864  0.52416  0.54340  Biso   1.000  C
  C7       1.0000 0.95136  0.02416  0.95660  Biso   1.000  C
  C8       1.0000 0.04864  0.02416  0.54340  Biso   1.000  C
  C9       1.0000 0.68101  0.80670  0.19540  Biso   1.000  C
  C10      1.0000 0.31899  0.80670  0.30460  Biso   1.000  C
  C11      1.0000 0.18101  0.30670  0.19540  Biso   1.000  C
  C12      1.0000 0.81899  0.30670  0.30460  Biso   1.000  C
  C13      1.0000 0.31899  0.19330  0.80460  Biso   1.000  C
  C14      1.0000 0.68101  0.19330  0.69540  Biso   1.000  C
  C15      1.0000 0.81899  0.69330  0.80460  Biso   1.000  C
  C16      1.0000 0.18101  0.69330  0.69540  Biso   1.000  C
  C17      1.0000 0.54740  0.83430  0.02120  Biso   1.000  C
  C18      1.0000 0.45260  0.83430  0.47880  Biso   1.000  C
  C19      1.0000 0.04740  0.33430  0.02120  Biso   1.000  C
  C20      1.0000 0.95260  0.33430  0.47880  Biso   1.000  C
  C21      1.0000 0.45260  0.16570  0.97880  Biso   1.000  C
  C22      1.0000 0.54740  0.16570  0.52120  Biso   1.000  C
  C23      1.0000 0.95260  0.66570  0.97880  Biso   1.000  C
  C24      1.0000 0.04740  0.66570  0.52120  Biso   1.000  C
  H1       1.0000 0.48180  0.81780  0.98910  Biso   1.000  H
  H2       1.0000 0.51820  0.81780  0.51090  Biso   1.000  H
  H3       1.0000 0.98180  0.31780  0.98910  Biso   1.000  H
  H4       1.0000 0.01820  0.31780  0.51090  Biso   1.000  H
  H5       1.0000 0.51820  0.18220  0.01090  Biso   1.000  H
  H6       1.0000 0.48180  0.18220  0.48910  Biso   1.000  H
  H7       1.0000 0.01820  0.68220  0.01090  Biso   1.000  H
  H8       1.0000 0.98180  0.68220  0.48910  Biso   1.000  H
  C25      1.0000 0.59880  0.90970  0.93480  Biso   1.000  C
  C26      1.0000 0.40120  0.90970  0.56520  Biso   1.000  C
  C27      1.0000 0.09880  0.40970  0.93480  Biso   1.000  C
  C28      1.0000 0.90120  0.40970  0.56520  Biso   1.000  C
  C29      1.0000 0.40120  0.09030  0.06520  Biso   1.000  C
  C30      1.0000 0.59880  0.09030  0.43480  Biso   1.000  C
  C31      1.0000 0.90120  0.59030  0.06520  Biso   1.000  C
  C32      1.0000 0.09880  0.59030  0.43480  Biso   1.000  C
  H9       1.0000 0.56890  0.94320  0.84570  Biso   1.000  H
  H10      1.0000 0.43110  0.94320  0.65430  Biso   1.000  H
  H11      1.0000 0.06890  0.44320  0.84570  Biso   1.000  H
  H12      1.0000 0.93110  0.44320  0.65430  Biso   1.000  H
  H13      1.0000 0.43110  0.05680  0.15430  Biso   1.000  H
  H14      1.0000 0.56890  0.05680  0.34570  Biso   1.000  H
  H15      1.0000 0.93110  0.55680  0.15430  Biso   1.000  H
  H16      1.0000 0.06890  0.55680  0.34570  Biso   1.000  H
  C33      1.0000 0.73693  0.88620  0.11170  Biso   1.000  C
  C34      1.0000 0.26307  0.88620  0.38830  Biso   1.000  C
  C35      1.0000 0.23693  0.38620  0.11170  Biso   1.000  C
  C36      1.0000 0.76307  0.38620  0.38830  Biso   1.000  C
  C37      1.0000 0.26307  0.11380  0.88830  Biso   1.000  C
  C38      1.0000 0.73693  0.11380  0.61170  Biso   1.000  C
  C39      1.0000 0.76307  0.61380  0.88830  Biso   1.000  C
  C40      1.0000 0.23693  0.61380  0.61170  Biso   1.000  C
  H17      1.0000 0.80180  0.90450  0.14630  Biso   1.000  H
  H18      1.0000 0.19820  0.90450  0.35370  Biso   1.000  H
  H19      1.0000 0.30180  0.40450  0.14630  Biso   1.000  H
  H20      1.0000 0.69820  0.40450  0.35370  Biso   1.000  H
  H21      1.0000 0.19820  0.09550  0.85370  Biso   1.000  H
  H22      1.0000 0.80180  0.09550  0.64630  Biso   1.000  H
  H23      1.0000 0.69820  0.59550  0.85370  Biso   1.000  H
  H24      1.0000 0.30180  0.59550  0.64630  Biso   1.000  H
  C41      1.0000 0.69670  0.93610  0.98140  Biso   1.000  C
  C42      1.0000 0.30330  0.93610  0.51860  Biso   1.000  C
  C43      1.0000 0.19670  0.43610  0.98140  Biso   1.000  C
  C44      1.0000 0.80330  0.43610  0.51860  Biso   1.000  C
  C45      1.0000 0.30330  0.06390  0.01860  Biso   1.000  C
  C46      1.0000 0.69670  0.06390  0.48140  Biso   1.000  C
  C47      1.0000 0.80330  0.56390  0.01860  Biso   1.000  C
  C48      1.0000 0.19670  0.56390  0.48140  Biso   1.000  C
  H25      1.0000 0.73370  0.98730  0.92390  Biso   1.000  H
  H26      1.0000 0.26630  0.98730  0.57610  Biso   1.000  H
  H27      1.0000 0.23370  0.48730  0.92390  Biso   1.000  H
  H28      1.0000 0.76630  0.48730  0.57610  Biso   1.000  H
  H29      1.0000 0.26630  0.01270  0.07610  Biso   1.000  H
  H30      1.0000 0.73370  0.01270  0.42390  Biso   1.000  H
  H31      1.0000 0.76630  0.51270  0.07610  Biso   1.000  H
  H32      1.0000 0.23370  0.51270  0.42390  Biso   1.000  H
  O1       1.0000 0.58070  0.53059  0.16186  Biso   1.000  O
  O2       1.0000 0.41930  0.53059  0.33814  Biso   1.000  O
  O3       1.0000 0.08070  0.03059  0.16186  Biso   1.000  O
  O4       1.0000 0.91930  0.03059  0.33814  Biso   1.000  O
  O5       1.0000 0.41930  0.46941  0.83814  Biso   1.000  O
  O6       1.0000 0.58070  0.46941  0.66186  Biso   1.000  O
  O7       1.0000 0.91930  0.96941  0.83814  Biso   1.000  O
  O8       1.0000 0.08070  0.96941  0.66186  Biso   1.000  O
  O9       1.0000 0.58767  0.38683  0.98902  Biso   1.000  O
  O10      1.0000 0.41233  0.38683  0.51098  Biso   1.000  O
  O11      1.0000 0.08767  0.88683  0.98902  Biso   1.000  O
  O12      1.0000 0.91233  0.88683  0.51098  Biso   1.000  O
  O13      1.0000 0.41233  0.61317  0.01098  Biso   1.000  O
  O14      1.0000 0.58767  0.61317  0.48902  Biso   1.000  O
  O15      1.0000 0.91233  0.11317  0.01098  Biso   1.000  O
  O16      1.0000 0.08767  0.11317  0.48902  Biso   1.000  O
  N9       1.0000 0.72181  0.75510  0.32300  Biso   1.000  N
  N10      1.0000 0.27819  0.75510  0.17700  Biso   1.000  N
  N11      1.0000 0.22181  0.25510  0.32300  Biso   1.000  N
  N12      1.0000 0.77819  0.25510  0.17700  Biso   1.000  N
  N13      1.0000 0.27819  0.24490  0.67700  Biso   1.000  N
  N14      1.0000 0.72181  0.24490  0.82300  Biso   1.000  N
  N15      1.0000 0.77819  0.74490  0.67700  Biso   1.000  N
  N16      1.0000 0.22181  0.74490  0.82300  Biso   1.000  N
  H33      1.0000 0.68730  0.70720  0.37480  Biso   1.000  H
  H34      1.0000 0.31270  0.70720  0.12520  Biso   1.000  H
  H35      1.0000 0.18730  0.20720  0.37480  Biso   1.000  H
  H36      1.0000 0.81270  0.20720  0.12520  Biso   1.000  H
  H37      1.0000 0.31270  0.29280  0.62520  Biso   1.000  H
  H38      1.0000 0.68730  0.29280  0.87480  Biso   1.000  H
  H39      1.0000 0.81270  0.79280  0.62520  Biso   1.000  H
  H40      1.0000 0.18730  0.79280  0.87480  Biso   1.000  H
  H41      1.0000 0.78250  0.77000  0.35310  Biso   1.000  H
  H42      1.0000 0.21750  0.77000  0.14690  Biso   1.000  H
  H43      1.0000 0.28250  0.27000  0.35310  Biso   1.000  H
  H44      1.0000 0.71750  0.27000  0.14690  Biso   1.000  H
  H45      1.0000 0.21750  0.23000  0.64690  Biso   1.000  H
  H46      1.0000 0.78250  0.23000  0.85310  Biso   1.000  H
  H47      1.0000 0.71750  0.73000  0.64690  Biso   1.000  H
  H48      1.0000 0.28250  0.73000  0.85310  Biso   1.000  H
