data_image0
_cell_length_a       13.52
_cell_length_b       11.326
_cell_length_c       8.731
_cell_angle_alpha    90
_cell_angle_beta     93.98
_cell_angle_gamma    90

_symmetry_space_group_name_H-M    "P 1"
_symmetry_int_tables_number       1

loop_
  _symmetry_equiv_pos_as_xyz
  'x, y, z'

loop_
  _atom_site_label
  _atom_site_occupancy
  _atom_site_fract_x
  _atom_site_fract_y
  _atom_site_fract_z
  _atom_site_thermal_displace_type
  _atom_site_B_iso_or_equiv
  _atom_site_type_symbol
  Cu1      1.0000 0.00000  0.34181  0.25000  Biso   1.000  Cu
  Cu2      1.0000 0.50000  0.84181  0.25000  Biso   1.000  Cu
  Cu3      1.0000 0.00000  0.65819  0.75000  Biso   1.000  Cu
  Cu4      1.0000 0.50000  0.15819  0.75000  Biso   1.000  Cu
  O1       1.0000 0.91953  0.46990  0.33810  Biso   1.000  O
  O2       1.0000 0.08047  0.46990  0.16190  Biso   1.000  O
  O3       1.0000 0.41953  0.96990  0.33810  Biso   1.000  O
  O4       1.0000 0.58047  0.96990  0.16190  Biso   1.000  O
  O5       1.0000 0.08047  0.53010  0.66190  Biso   1.000  O
  O6       1.0000 0.91953  0.53010  0.83810  Biso   1.000  O
  O7       1.0000 0.58047  0.03010  0.66190  Biso   1.000  O
  O8       1.0000 0.41953  0.03010  0.83810  Biso   1.000  O
  O9       1.0000 0.91240  0.61270  0.51150  Biso   1.000  O
  O10      1.0000 0.08760  0.61270  0.98850  Biso   1.000  O
  O11      1.0000 0.41240  0.11270  0.51150  Biso   1.000  O
  O12      1.0000 0.58760  0.11270  0.98850  Biso   1.000  O
  O13      1.0000 0.08760  0.38730  0.48850  Biso   1.000  O
  O14      1.0000 0.91240  0.38730  0.01150  Biso   1.000  O
  O15      1.0000 0.58760  0.88730  0.48850  Biso   1.000  O
  O16      1.0000 0.41240  0.88730  0.01150  Biso   1.000  O
  N1       1.0000 0.91450  0.21880  0.34870  Biso   1.000  N
  N2       1.0000 0.08550  0.21880  0.15130  Biso   1.000  N
  N3       1.0000 0.41450  0.71880  0.34870  Biso   1.000  N
  N4       1.0000 0.58550  0.71880  0.15130  Biso   1.000  N
  N5       1.0000 0.08550  0.78120  0.65130  Biso   1.000  N
  N6       1.0000 0.91450  0.78120  0.84870  Biso   1.000  N
  N7       1.0000 0.58550  0.28120  0.65130  Biso   1.000  N
  N8       1.0000 0.41450  0.28120  0.84870  Biso   1.000  N
  N9       1.0000 0.77930  0.24430  0.17790  Biso   1.000  N
  N10      1.0000 0.22070  0.24430  0.32210  Biso   1.000  N
  N11      1.0000 0.27930  0.74430  0.17790  Biso   1.000  N
  N12      1.0000 0.72070  0.74430  0.32210  Biso   1.000  N
  N13      1.0000 0.22070  0.75570  0.82210  Biso   1.000  N
  N14      1.0000 0.77930  0.75570  0.67790  Biso   1.000  N
  N15      1.0000 0.72070  0.25570  0.82210  Biso   1.000  N
  N16      1.0000 0.27930  0.25570  0.67790  Biso   1.000  N
  C1       1.0000 0.95180  0.52450  0.45730  Biso   1.000  C
  C2       1.0000 0.04820  0.52450  0.04270  Biso   1.000  C
  C3       1.0000 0.45180  0.02450  0.45730  Biso   1.000  C
  C4       1.0000 0.54820  0.02450  0.04270  Biso   1.000  C
  C5       1.0000 0.04820  0.47550  0.54270  Biso   1.000  C
  C6       1.0000 0.95180  0.47550  0.95730  Biso   1.000  C
  C7       1.0000 0.54820  0.97550  0.54270  Biso   1.000  C
  C8       1.0000 0.45180  0.97550  0.95730  Biso   1.000  C
  C9       1.0000 0.81980  0.19360  0.30480  Biso   1.000  C
  C10      1.0000 0.18020  0.19360  0.19520  Biso   1.000  C
  C11      1.0000 0.31980  0.69360  0.30480  Biso   1.000  C
  C12      1.0000 0.68020  0.69360  0.19520  Biso   1.000  C
  C13      1.0000 0.18020  0.80640  0.69520  Biso   1.000  C
  C14      1.0000 0.81980  0.80640  0.80480  Biso   1.000  C
  C15      1.0000 0.68020  0.30640  0.69520  Biso   1.000  C
  C16      1.0000 0.31980  0.30640  0.80480  Biso   1.000  C
  C17      1.0000 0.76430  0.11320  0.38740  Biso   1.000  C
  C18      1.0000 0.23570  0.11320  0.11260  Biso   1.000  C
  C19      1.0000 0.26430  0.61320  0.38740  Biso   1.000  C
  C20      1.0000 0.73570  0.61320  0.11260  Biso   1.000  C
  C21      1.0000 0.23570  0.88680  0.61260  Biso   1.000  C
  C22      1.0000 0.76430  0.88680  0.88740  Biso   1.000  C
  C23      1.0000 0.73570  0.38680  0.61260  Biso   1.000  C
  C24      1.0000 0.26430  0.38680  0.88740  Biso   1.000  C
  H1       1.0000 0.69960  0.09440  0.35240  Biso   1.000  H
  H2       1.0000 0.30040  0.09440  0.14760  Biso   1.000  H
  H3       1.0000 0.19960  0.59440  0.35240  Biso   1.000  H
  H4       1.0000 0.80040  0.59440  0.14760  Biso   1.000  H
  H5       1.0000 0.30040  0.90560  0.64760  Biso   1.000  H
  H6       1.0000 0.69960  0.90560  0.85240  Biso   1.000  H
  H7       1.0000 0.80040  0.40560  0.64760  Biso   1.000  H
  H8       1.0000 0.19960  0.40560  0.85240  Biso   1.000  H
  C25      1.0000 0.80490  0.06390  0.51610  Biso   1.000  C
  C26      1.0000 0.19510  0.06390  0.98390  Biso   1.000  C
  C27      1.0000 0.30490  0.56390  0.51610  Biso   1.000  C
  C28      1.0000 0.69510  0.56390  0.98390  Biso   1.000  C
  C29      1.0000 0.19510  0.93610  0.48390  Biso   1.000  C
  C30      1.0000 0.80490  0.93610  0.01610  Biso   1.000  C
  C31      1.0000 0.69510  0.43610  0.48390  Biso   1.000  C
  C32      1.0000 0.30490  0.43610  0.01610  Biso   1.000  C
  H9       1.0000 0.76800  0.01270  0.57290  Biso   1.000  H
  H10      1.0000 0.23200  0.01270  0.92710  Biso   1.000  H
  H11      1.0000 0.26800  0.51270  0.57290  Biso   1.000  H
  H12      1.0000 0.73200  0.51270  0.92710  Biso   1.000  H
  H13      1.0000 0.23200  0.98730  0.42710  Biso   1.000  H
  H14      1.0000 0.76800  0.98730  0.07290  Biso   1.000  H
  H15      1.0000 0.73200  0.48730  0.42710  Biso   1.000  H
  H16      1.0000 0.26800  0.48730  0.07290  Biso   1.000  H
  C33      1.0000 0.90100  0.08960  0.56340  Biso   1.000  C
  C34      1.0000 0.09900  0.08960  0.93660  Biso   1.000  C
  C35      1.0000 0.40100  0.58960  0.56340  Biso   1.000  C
  C36      1.0000 0.59900  0.58960  0.93660  Biso   1.000  C
  C37      1.0000 0.09900  0.91040  0.43660  Biso   1.000  C
  C38      1.0000 0.90100  0.91040  0.06340  Biso   1.000  C
  C39      1.0000 0.59900  0.41040  0.43660  Biso   1.000  C
  C40      1.0000 0.40100  0.41040  0.06340  Biso   1.000  C
  H17      1.0000 0.93060  0.05600  0.65230  Biso   1.000  H
  H18      1.0000 0.06940  0.05600  0.84770  Biso   1.000  H
  H19      1.0000 0.43060  0.55600  0.65230  Biso   1.000  H
  H20      1.0000 0.56940  0.55600  0.84770  Biso   1.000  H
  H21      1.0000 0.06940  0.94400  0.34770  Biso   1.000  H
  H22      1.0000 0.93060  0.94400  0.15230  Biso   1.000  H
  H23      1.0000 0.56940  0.44400  0.34770  Biso   1.000  H
  H24      1.0000 0.43060  0.44400  0.15230  Biso   1.000  H
  C41      1.0000 0.95280  0.16580  0.47770  Biso   1.000  C
  C42      1.0000 0.04720  0.16580  0.02230  Biso   1.000  C
  C43      1.0000 0.45280  0.66580  0.47770  Biso   1.000  C
  C44      1.0000 0.54720  0.66580  0.02230  Biso   1.000  C
  C45      1.0000 0.04720  0.83420  0.52230  Biso   1.000  C
  C46      1.0000 0.95280  0.83420  0.97770  Biso   1.000  C
  C47      1.0000 0.54720  0.33420  0.52230  Biso   1.000  C
  C48      1.0000 0.45280  0.33420  0.97770  Biso   1.000  C
  H25      1.0000 0.01840  0.18190  0.51020  Biso   1.000  H
  H26      1.0000 0.98160  0.18190  0.98980  Biso   1.000  H
  H27      1.0000 0.51840  0.68190  0.51020  Biso   1.000  H
  H28      1.0000 0.48160  0.68190  0.98980  Biso   1.000  H
  H29      1.0000 0.98160  0.81810  0.48980  Biso   1.000  H
  H30      1.0000 0.01840  0.81810  0.01020  Biso   1.000  H
  H31      1.0000 0.48160  0.31810  0.48980  Biso   1.000  H
  H32      1.0000 0.51840  0.31810  0.01020  Biso   1.000  H
  H33      1.0000 0.80300  0.30300  0.13500  Biso   1.000  H
  H34      1.0000 0.19700  0.30300  0.36500  Biso   1.000  H
  H35      1.0000 0.30300  0.80300  0.13500  Biso   1.000  H
  H36      1.0000 0.69700  0.80300  0.36500  Biso   1.000  H
  H37      1.0000 0.19700  0.69700  0.86500  Biso   1.000  H
  H38      1.0000 0.80300  0.69700  0.63500  Biso   1.000  H
  H39      1.0000 0.69700  0.19700  0.86500  Biso   1.000  H
  H40      1.0000 0.30300  0.19700  0.63500  Biso   1.000  H
  H41      1.0000 0.72800  0.23700  0.16200  Biso   1.000  H
  H42      1.0000 0.27200  0.23700  0.33800  Biso   1.000  H
  H43      1.0000 0.22800  0.73700  0.16200  Biso   1.000  H
  H44      1.0000 0.77200  0.73700  0.33800  Biso   1.000  H
  H45      1.0000 0.27200  0.76300  0.83800  Biso   1.000  H
  H46      1.0000 0.72800  0.76300  0.66200  Biso   1.000  H
  H47      1.0000 0.77200  0.26300  0.83800  Biso   1.000  H
  H48      1.0000 0.22800  0.26300  0.66200  Biso   1.000  H
