data_image0
_cell_length_a       13.472
_cell_length_b       11.246
_cell_length_c       8.694
_cell_angle_alpha    90
_cell_angle_beta     93.75
_cell_angle_gamma    90

_symmetry_space_group_name_H-M    "P 1"
_symmetry_int_tables_number       1

loop_
  _symmetry_equiv_pos_as_xyz
  'x, y, z'

loop_
  _atom_site_label
  _atom_site_occupancy
  _atom_site_fract_x
  _atom_site_fract_y
  _atom_site_fract_z
  _atom_site_thermal_displace_type
  _atom_site_B_iso_or_equiv
  _atom_site_type_symbol
  Cu1      1.0000 0.00000  0.15902  0.25000  Biso   1.000  Cu
  Cu2      1.0000 0.50000  0.65902  0.25000  Biso   1.000  Cu
  Cu3      1.0000 0.00000  0.84098  0.75000  Biso   1.000  Cu
  Cu4      1.0000 0.50000  0.34098  0.75000  Biso   1.000  Cu
  O1       1.0000 0.08070  0.03063  0.16208  Biso   1.000  O
  O2       1.0000 0.58070  0.53063  0.16208  Biso   1.000  O
  O3       1.0000 0.91930  0.03063  0.33792  Biso   1.000  O
  O4       1.0000 0.41930  0.53063  0.33792  Biso   1.000  O
  O5       1.0000 0.91930  0.96937  0.83792  Biso   1.000  O
  O6       1.0000 0.41930  0.46937  0.83792  Biso   1.000  O
  O7       1.0000 0.08070  0.96937  0.66208  Biso   1.000  O
  O8       1.0000 0.58070  0.46937  0.66208  Biso   1.000  O
  O9       1.0000 0.08790  0.88669  0.98891  Biso   1.000  O
  O10      1.0000 0.58790  0.38669  0.98891  Biso   1.000  O
  O11      1.0000 0.91210  0.88669  0.51109  Biso   1.000  O
  O12      1.0000 0.41210  0.38669  0.51109  Biso   1.000  O
  O13      1.0000 0.91210  0.11331  0.01109  Biso   1.000  O
  O14      1.0000 0.41210  0.61331  0.01109  Biso   1.000  O
  O15      1.0000 0.08790  0.11331  0.48891  Biso   1.000  O
  O16      1.0000 0.58790  0.61331  0.48891  Biso   1.000  O
  C1       1.0000 0.04848  0.97593  0.04320  Biso   1.000  C
  C2       1.0000 0.54848  0.47593  0.04320  Biso   1.000  C
  C3       1.0000 0.95152  0.97593  0.45680  Biso   1.000  C
  C4       1.0000 0.45152  0.47593  0.45680  Biso   1.000  C
  C5       1.0000 0.95152  0.02407  0.95680  Biso   1.000  C
  C6       1.0000 0.45152  0.52407  0.95680  Biso   1.000  C
  C7       1.0000 0.04848  0.02407  0.54320  Biso   1.000  C
  C8       1.0000 0.54848  0.52407  0.54320  Biso   1.000  C
  N1       1.0000 0.08601  0.28189  0.15090  Biso   1.000  N
  N2       1.0000 0.58601  0.78189  0.15090  Biso   1.000  N
  N3       1.0000 0.91399  0.28189  0.34910  Biso   1.000  N
  N4       1.0000 0.41399  0.78189  0.34910  Biso   1.000  N
  N5       1.0000 0.91399  0.71811  0.84910  Biso   1.000  N
  N6       1.0000 0.41399  0.21811  0.84910  Biso   1.000  N
  N7       1.0000 0.08601  0.71811  0.65090  Biso   1.000  N
  N8       1.0000 0.58601  0.21811  0.65090  Biso   1.000  N
  C9       1.0000 0.18099  0.30660  0.19510  Biso   1.000  C
  C10      1.0000 0.68099  0.80660  0.19510  Biso   1.000  C
  C11      1.0000 0.81901  0.30660  0.30490  Biso   1.000  C
  C12      1.0000 0.31901  0.80660  0.30490  Biso   1.000  C
  C13      1.0000 0.81901  0.69340  0.80490  Biso   1.000  C
  C14      1.0000 0.31901  0.19340  0.80490  Biso   1.000  C
  C15      1.0000 0.18099  0.69340  0.69510  Biso   1.000  C
  C16      1.0000 0.68099  0.19340  0.69510  Biso   1.000  C
  C17      1.0000 0.23740  0.38670  0.11180  Biso   1.000  C
  C18      1.0000 0.73740  0.88670  0.11180  Biso   1.000  C
  C19      1.0000 0.76260  0.38670  0.38820  Biso   1.000  C
  C20      1.0000 0.26260  0.88670  0.38820  Biso   1.000  C
  C21      1.0000 0.76260  0.61330  0.88820  Biso   1.000  C
  C22      1.0000 0.26260  0.11330  0.88820  Biso   1.000  C
  C23      1.0000 0.23740  0.61330  0.61180  Biso   1.000  C
  C24      1.0000 0.73740  0.11330  0.61180  Biso   1.000  C
  C25      1.0000 0.19690  0.43640  0.98090  Biso   1.000  C
  C26      1.0000 0.69690  0.93640  0.98090  Biso   1.000  C
  C27      1.0000 0.80310  0.43640  0.51910  Biso   1.000  C
  C28      1.0000 0.30310  0.93640  0.51910  Biso   1.000  C
  C29      1.0000 0.80310  0.56360  0.01910  Biso   1.000  C
  C30      1.0000 0.30310  0.06360  0.01910  Biso   1.000  C
  C31      1.0000 0.19690  0.56360  0.48090  Biso   1.000  C
  C32      1.0000 0.69690  0.06360  0.48090  Biso   1.000  C
  C33      1.0000 0.09910  0.41040  0.93380  Biso   1.000  C
  C34      1.0000 0.59910  0.91040  0.93380  Biso   1.000  C
  C35      1.0000 0.90090  0.41040  0.56620  Biso   1.000  C
  C36      1.0000 0.40090  0.91040  0.56620  Biso   1.000  C
  C37      1.0000 0.90090  0.58960  0.06620  Biso   1.000  C
  C38      1.0000 0.40090  0.08960  0.06620  Biso   1.000  C
  C39      1.0000 0.09910  0.58960  0.43380  Biso   1.000  C
  C40      1.0000 0.59910  0.08960  0.43380  Biso   1.000  C
  C41      1.0000 0.04710  0.33450  0.02110  Biso   1.000  C
  C42      1.0000 0.54710  0.83450  0.02110  Biso   1.000  C
  C43      1.0000 0.95290  0.33450  0.47890  Biso   1.000  C
  C44      1.0000 0.45290  0.83450  0.47890  Biso   1.000  C
  C45      1.0000 0.95290  0.66550  0.97890  Biso   1.000  C
  C46      1.0000 0.45290  0.16550  0.97890  Biso   1.000  C
  C47      1.0000 0.04710  0.66550  0.52110  Biso   1.000  C
  C48      1.0000 0.54710  0.16550  0.52110  Biso   1.000  C
  N9       1.0000 0.22169  0.25570  0.32340  Biso   1.000  N
  N10      1.0000 0.72169  0.75570  0.32340  Biso   1.000  N
  N11      1.0000 0.77831  0.25570  0.17660  Biso   1.000  N
  N12      1.0000 0.27831  0.75570  0.17660  Biso   1.000  N
  N13      1.0000 0.77831  0.74430  0.67660  Biso   1.000  N
  N14      1.0000 0.27831  0.24430  0.67660  Biso   1.000  N
  N15      1.0000 0.22169  0.74430  0.82340  Biso   1.000  N
  N16      1.0000 0.72169  0.24430  0.82340  Biso   1.000  N
  H1       1.0000 0.30300  0.40000  0.13800  Biso   1.000  H
  H2       1.0000 0.80300  0.90000  0.13800  Biso   1.000  H
  H3       1.0000 0.69700  0.40000  0.36200  Biso   1.000  H
  H4       1.0000 0.19700  0.90000  0.36200  Biso   1.000  H
  H5       1.0000 0.69700  0.60000  0.86200  Biso   1.000  H
  H6       1.0000 0.19700  0.10000  0.86200  Biso   1.000  H
  H7       1.0000 0.30300  0.60000  0.63800  Biso   1.000  H
  H8       1.0000 0.80300  0.10000  0.63800  Biso   1.000  H
  H9       1.0000 0.23220  0.48800  0.92600  Biso   1.000  H
  H10      1.0000 0.73220  0.98800  0.92600  Biso   1.000  H
  H11      1.0000 0.76780  0.48800  0.57400  Biso   1.000  H
  H12      1.0000 0.26780  0.98800  0.57400  Biso   1.000  H
  H13      1.0000 0.76780  0.51200  0.07400  Biso   1.000  H
  H14      1.0000 0.26780  0.01200  0.07400  Biso   1.000  H
  H15      1.0000 0.23220  0.51200  0.42600  Biso   1.000  H
  H16      1.0000 0.73220  0.01200  0.42600  Biso   1.000  H
  H17      1.0000 0.07100  0.44300  0.85200  Biso   1.000  H
  H18      1.0000 0.57100  0.94300  0.85200  Biso   1.000  H
  H19      1.0000 0.92900  0.44300  0.64800  Biso   1.000  H
  H20      1.0000 0.42900  0.94300  0.64800  Biso   1.000  H
  H21      1.0000 0.92900  0.55700  0.14800  Biso   1.000  H
  H22      1.0000 0.42900  0.05700  0.14800  Biso   1.000  H
  H23      1.0000 0.07100  0.55700  0.35200  Biso   1.000  H
  H24      1.0000 0.57100  0.05700  0.35200  Biso   1.000  H
  H25      1.0000 0.99300  0.32000  0.01000  Biso   1.000  H
  H26      1.0000 0.49300  0.82000  0.01000  Biso   1.000  H
  H27      1.0000 0.00700  0.32000  0.49000  Biso   1.000  H
  H28      1.0000 0.50700  0.82000  0.49000  Biso   1.000  H
  H29      1.0000 0.00700  0.68000  0.99000  Biso   1.000  H
  H30      1.0000 0.50700  0.18000  0.99000  Biso   1.000  H
  H31      1.0000 0.99300  0.68000  0.51000  Biso   1.000  H
  H32      1.0000 0.49300  0.18000  0.51000  Biso   1.000  H
  H33      1.0000 0.20200  0.20500  0.35700  Biso   1.000  H
  H34      1.0000 0.70200  0.70500  0.35700  Biso   1.000  H
  H35      1.0000 0.79800  0.20500  0.14300  Biso   1.000  H
  H36      1.0000 0.29800  0.70500  0.14300  Biso   1.000  H
  H37      1.0000 0.79800  0.79500  0.64300  Biso   1.000  H
  H38      1.0000 0.29800  0.29500  0.64300  Biso   1.000  H
  H39      1.0000 0.20200  0.79500  0.85700  Biso   1.000  H
  H40      1.0000 0.70200  0.29500  0.85700  Biso   1.000  H
  H41      1.0000 0.28100  0.27200  0.35000  Biso   1.000  H
  H42      1.0000 0.78100  0.77200  0.35000  Biso   1.000  H
  H43      1.0000 0.71900  0.27200  0.15000  Biso   1.000  H
  H44      1.0000 0.21900  0.77200  0.15000  Biso   1.000  H
  H45      1.0000 0.71900  0.72800  0.65000  Biso   1.000  H
  H46      1.0000 0.21900  0.22800  0.65000  Biso   1.000  H
  H47      1.0000 0.28100  0.72800  0.85000  Biso   1.000  H
  H48      1.0000 0.78100  0.22800  0.85000  Biso   1.000  H
