data_image0
_cell_length_a       12.387
_cell_length_b       12.935
_cell_length_c       18.632
_cell_angle_alpha    90
_cell_angle_beta     90
_cell_angle_gamma    90

_symmetry_space_group_name_H-M    "P 1"
_symmetry_int_tables_number       1

loop_
  _symmetry_equiv_pos_as_xyz
  'x, y, z'

loop_
  _atom_site_label
  _atom_site_occupancy
  _atom_site_fract_x
  _atom_site_fract_y
  _atom_site_fract_z
  _atom_site_thermal_displace_type
  _atom_site_B_iso_or_equiv
  _atom_site_type_symbol
  Cu1      1.0000 0.03473  0.17960  0.07365  Biso   1.000  Cu
  Cu2      1.0000 0.96527  0.17960  0.57365  Biso   1.000  Cu
  Cu3      1.0000 0.53473  0.32040  0.57365  Biso   1.000  Cu
  Cu4      1.0000 0.53473  0.67960  0.92635  Biso   1.000  Cu
  Cu5      1.0000 0.96527  0.82040  0.92635  Biso   1.000  Cu
  Cu6      1.0000 0.03473  0.82040  0.42635  Biso   1.000  Cu
  Cu7      1.0000 0.46527  0.67960  0.42635  Biso   1.000  Cu
  Cu8      1.0000 0.46527  0.32040  0.07365  Biso   1.000  Cu
  O1       1.0000 0.09050  0.03230  0.06809  Biso   1.000  O
  O2       1.0000 0.90950  0.03230  0.56809  Biso   1.000  O
  O3       1.0000 0.59050  0.46770  0.56809  Biso   1.000  O
  O4       1.0000 0.59050  0.53230  0.93191  Biso   1.000  O
  O5       1.0000 0.90950  0.96770  0.93191  Biso   1.000  O
  O6       1.0000 0.09050  0.96770  0.43191  Biso   1.000  O
  O7       1.0000 0.40950  0.53230  0.43191  Biso   1.000  O
  O8       1.0000 0.40950  0.46770  0.06809  Biso   1.000  O
  O9       1.0000 0.07060  0.88390  0.00850  Biso   1.000  O
  O10      1.0000 0.92940  0.88390  0.50850  Biso   1.000  O
  O11      1.0000 0.57060  0.61610  0.50850  Biso   1.000  O
  O12      1.0000 0.57060  0.38390  0.99150  Biso   1.000  O
  O13      1.0000 0.92940  0.11610  0.99150  Biso   1.000  O
  O14      1.0000 0.07060  0.11610  0.49150  Biso   1.000  O
  O15      1.0000 0.42940  0.38390  0.49150  Biso   1.000  O
  O16      1.0000 0.42940  0.61610  0.00850  Biso   1.000  O
  C1       1.0000 0.04660  0.97550  0.02200  Biso   1.000  C
  C2       1.0000 0.95340  0.97550  0.52200  Biso   1.000  C
  C3       1.0000 0.54660  0.52450  0.52200  Biso   1.000  C
  C4       1.0000 0.54660  0.47550  0.97800  Biso   1.000  C
  C5       1.0000 0.95340  0.02450  0.97800  Biso   1.000  C
  C6       1.0000 0.04660  0.02450  0.47800  Biso   1.000  C
  C7       1.0000 0.45340  0.47550  0.47800  Biso   1.000  C
  C8       1.0000 0.45340  0.52450  0.02200  Biso   1.000  C
  O17      1.0000 0.16750  0.21970  0.13980  Biso   1.000  O
  O18      1.0000 0.83250  0.21970  0.63980  Biso   1.000  O
  O19      1.0000 0.66750  0.28030  0.63980  Biso   1.000  O
  O20      1.0000 0.66750  0.71970  0.86020  Biso   1.000  O
  O21      1.0000 0.83250  0.78030  0.86020  Biso   1.000  O
  O22      1.0000 0.16750  0.78030  0.36020  Biso   1.000  O
  O23      1.0000 0.33250  0.71970  0.36020  Biso   1.000  O
  O24      1.0000 0.33250  0.28030  0.13980  Biso   1.000  O
  O25      1.0000 0.16400  0.22080  0.99680  Biso   1.000  O
  O26      1.0000 0.83600  0.22080  0.49680  Biso   1.000  O
  O27      1.0000 0.66400  0.27920  0.49680  Biso   1.000  O
  O28      1.0000 0.66400  0.72080  0.00320  Biso   1.000  O
  O29      1.0000 0.83600  0.77920  0.00320  Biso   1.000  O
  O30      1.0000 0.16400  0.77920  0.50320  Biso   1.000  O
  O31      1.0000 0.33600  0.72080  0.50320  Biso   1.000  O
  O32      1.0000 0.33600  0.27920  0.99680  Biso   1.000  O
  C9       1.0000 0.25000  0.25000  0.10810  Biso   1.000  C
  C10      1.0000 0.75000  0.25000  0.60810  Biso   1.000  C
  C11      1.0000 0.75000  0.75000  0.89190  Biso   1.000  C
  C12      1.0000 0.25000  0.75000  0.39190  Biso   1.000  C
  C13      1.0000 0.25000  0.25000  0.02550  Biso   1.000  C
  C14      1.0000 0.75000  0.25000  0.52550  Biso   1.000  C
  C15      1.0000 0.75000  0.75000  0.97450  Biso   1.000  C
  C16      1.0000 0.25000  0.75000  0.47450  Biso   1.000  C
  N1       1.0000 0.97290  0.32550  0.06720  Biso   1.000  N
  N2       1.0000 0.02710  0.32550  0.56720  Biso   1.000  N
  N3       1.0000 0.47290  0.17450  0.56720  Biso   1.000  N
  N4       1.0000 0.47290  0.82550  0.93280  Biso   1.000  N
  N5       1.0000 0.02710  0.67450  0.93280  Biso   1.000  N
  N6       1.0000 0.97290  0.67450  0.43280  Biso   1.000  N
  N7       1.0000 0.52710  0.82550  0.43280  Biso   1.000  N
  N8       1.0000 0.52710  0.17450  0.06720  Biso   1.000  N
  C17      1.0000 0.00490  0.39760  0.11320  Biso   1.000  C
  C18      1.0000 0.99510  0.39760  0.61320  Biso   1.000  C
  C19      1.0000 0.50490  0.10240  0.61320  Biso   1.000  C
  C20      1.0000 0.50490  0.89760  0.88680  Biso   1.000  C
  C21      1.0000 0.99510  0.60240  0.88680  Biso   1.000  C
  C22      1.0000 0.00490  0.60240  0.38680  Biso   1.000  C
  C23      1.0000 0.49510  0.89760  0.38680  Biso   1.000  C
  C24      1.0000 0.49510  0.10240  0.11320  Biso   1.000  C
  C25      1.0000 0.96390  0.49900  0.11220  Biso   1.000  C
  C26      1.0000 0.03610  0.49900  0.61220  Biso   1.000  C
  C27      1.0000 0.46390  0.00100  0.61220  Biso   1.000  C
  C28      1.0000 0.46390  0.99900  0.88780  Biso   1.000  C
  C29      1.0000 0.03610  0.50100  0.88780  Biso   1.000  C
  C30      1.0000 0.96390  0.50100  0.38780  Biso   1.000  C
  C31      1.0000 0.53610  0.99900  0.38780  Biso   1.000  C
  C32      1.0000 0.53610  0.00100  0.11220  Biso   1.000  C
  C33      1.0000 0.88700  0.52260  0.06150  Biso   1.000  C
  C34      1.0000 0.11300  0.52260  0.56150  Biso   1.000  C
  C35      1.0000 0.38700  0.97740  0.56150  Biso   1.000  C
  C36      1.0000 0.38700  0.02260  0.93850  Biso   1.000  C
  C37      1.0000 0.11300  0.47740  0.93850  Biso   1.000  C
  C38      1.0000 0.88700  0.47740  0.43850  Biso   1.000  C
  C39      1.0000 0.61300  0.02260  0.43850  Biso   1.000  C
  C40      1.0000 0.61300  0.97740  0.06150  Biso   1.000  C
  C41      1.0000 0.85390  0.44720  0.01450  Biso   1.000  C
  C42      1.0000 0.14610  0.44720  0.51450  Biso   1.000  C
  C43      1.0000 0.35390  0.05280  0.51450  Biso   1.000  C
  C44      1.0000 0.35390  0.94720  0.98550  Biso   1.000  C
  C45      1.0000 0.14610  0.55280  0.98550  Biso   1.000  C
  C46      1.0000 0.85390  0.55280  0.48550  Biso   1.000  C
  C47      1.0000 0.64610  0.94720  0.48550  Biso   1.000  C
  C48      1.0000 0.64610  0.05280  0.01450  Biso   1.000  C
  C49      1.0000 0.89660  0.34860  0.01810  Biso   1.000  C
  C50      1.0000 0.10340  0.34860  0.51810  Biso   1.000  C
  C51      1.0000 0.39660  0.15140  0.51810  Biso   1.000  C
  C52      1.0000 0.39660  0.84860  0.98190  Biso   1.000  C
  C53      1.0000 0.10340  0.65140  0.98190  Biso   1.000  C
  C54      1.0000 0.89660  0.65140  0.48190  Biso   1.000  C
  C55      1.0000 0.60340  0.84860  0.48190  Biso   1.000  C
  C56      1.0000 0.60340  0.15140  0.01810  Biso   1.000  C
  N9       1.0000 0.00070  0.56970  0.16180  Biso   1.000  N
  N10      1.0000 0.99930  0.56970  0.66180  Biso   1.000  N
  N11      1.0000 0.50070  0.93030  0.66180  Biso   1.000  N
  N12      1.0000 0.50070  0.06970  0.83820  Biso   1.000  N
  N13      1.0000 0.99930  0.43030  0.83820  Biso   1.000  N
  N14      1.0000 0.00070  0.43030  0.33820  Biso   1.000  N
  N15      1.0000 0.49930  0.06970  0.33820  Biso   1.000  N
  N16      1.0000 0.49930  0.93030  0.16180  Biso   1.000  N
  N17      1.0000 0.93530  0.14770  0.16360  Biso   1.000  N
  N18      1.0000 0.06470  0.14770  0.66360  Biso   1.000  N
  N19      1.0000 0.43530  0.35230  0.66360  Biso   1.000  N
  N20      1.0000 0.43530  0.64770  0.83640  Biso   1.000  N
  N21      1.0000 0.06470  0.85230  0.83640  Biso   1.000  N
  N22      1.0000 0.93530  0.85230  0.33640  Biso   1.000  N
  N23      1.0000 0.56470  0.64770  0.33640  Biso   1.000  N
  N24      1.0000 0.56470  0.35230  0.16360  Biso   1.000  N
  C57      1.0000 0.97330  0.16300  0.22950  Biso   1.000  C
  C58      1.0000 0.02670  0.16300  0.72950  Biso   1.000  C
  C59      1.0000 0.47330  0.33700  0.72950  Biso   1.000  C
  C60      1.0000 0.47330  0.66300  0.77050  Biso   1.000  C
  C61      1.0000 0.02670  0.83700  0.77050  Biso   1.000  C
  C62      1.0000 0.97330  0.83700  0.27050  Biso   1.000  C
  C63      1.0000 0.52670  0.66300  0.27050  Biso   1.000  C
  C64      1.0000 0.52670  0.33700  0.22950  Biso   1.000  C
  C65      1.0000 0.90930  0.16060  0.29070  Biso   1.000  C
  C66      1.0000 0.09070  0.16060  0.79070  Biso   1.000  C
  C67      1.0000 0.40930  0.33940  0.79070  Biso   1.000  C
  C68      1.0000 0.40930  0.66060  0.70930  Biso   1.000  C
  C69      1.0000 0.09070  0.83940  0.70930  Biso   1.000  C
  C70      1.0000 0.90930  0.83940  0.20930  Biso   1.000  C
  C71      1.0000 0.59070  0.66060  0.20930  Biso   1.000  C
  C72      1.0000 0.59070  0.33940  0.29070  Biso   1.000  C
  C73      1.0000 0.80130  0.13680  0.28140  Biso   1.000  C
  C74      1.0000 0.19870  0.13680  0.78140  Biso   1.000  C
  C75      1.0000 0.30130  0.36320  0.78140  Biso   1.000  C
  C76      1.0000 0.30130  0.63680  0.71860  Biso   1.000  C
  C77      1.0000 0.19870  0.86320  0.71860  Biso   1.000  C
  C78      1.0000 0.80130  0.86320  0.21860  Biso   1.000  C
  C79      1.0000 0.69870  0.63680  0.21860  Biso   1.000  C
  C80      1.0000 0.69870  0.36320  0.28140  Biso   1.000  C
  C81      1.0000 0.76200  0.11960  0.21350  Biso   1.000  C
  C82      1.0000 0.23800  0.11960  0.71350  Biso   1.000  C
  C83      1.0000 0.26200  0.38040  0.71350  Biso   1.000  C
  C84      1.0000 0.26200  0.61960  0.78650  Biso   1.000  C
  C85      1.0000 0.23800  0.88040  0.78650  Biso   1.000  C
  C86      1.0000 0.76200  0.88040  0.28650  Biso   1.000  C
  C87      1.0000 0.73800  0.61960  0.28650  Biso   1.000  C
  C88      1.0000 0.73800  0.38040  0.21350  Biso   1.000  C
  C89      1.0000 0.83050  0.12670  0.15560  Biso   1.000  C
  C90      1.0000 0.16950  0.12670  0.65560  Biso   1.000  C
  C91      1.0000 0.33050  0.37330  0.65560  Biso   1.000  C
  C92      1.0000 0.33050  0.62670  0.84440  Biso   1.000  C
  C93      1.0000 0.16950  0.87330  0.84440  Biso   1.000  C
  C94      1.0000 0.83050  0.87330  0.34440  Biso   1.000  C
  C95      1.0000 0.66950  0.62670  0.34440  Biso   1.000  C
  C96      1.0000 0.66950  0.37330  0.15560  Biso   1.000  C
  N25      1.0000 0.95250  0.18850  0.35620  Biso   1.000  N
  N26      1.0000 0.04750  0.18850  0.85620  Biso   1.000  N
  N27      1.0000 0.45250  0.31150  0.85620  Biso   1.000  N
  N28      1.0000 0.45250  0.68850  0.64380  Biso   1.000  N
  N29      1.0000 0.04750  0.81150  0.64380  Biso   1.000  N
  N30      1.0000 0.95250  0.81150  0.14380  Biso   1.000  N
  N31      1.0000 0.54750  0.68850  0.14380  Biso   1.000  N
  N32      1.0000 0.54750  0.31150  0.35620  Biso   1.000  N
  O33      1.0000 0.23540  0.03990  0.31970  Biso   1.000  O
  O34      1.0000 0.76460  0.03990  0.81970  Biso   1.000  O
  O35      1.0000 0.73540  0.46010  0.81970  Biso   1.000  O
  O36      1.0000 0.73540  0.53990  0.68030  Biso   1.000  O
  O37      1.0000 0.76460  0.96010  0.68030  Biso   1.000  O
  O38      1.0000 0.23540  0.96010  0.18030  Biso   1.000  O
  O39      1.0000 0.26460  0.53990  0.18030  Biso   1.000  O
  O40      1.0000 0.26460  0.46010  0.31970  Biso   1.000  O
  O41      1.0000 0.25000  0.25000  0.29750  Biso   1.000  O
  O42      1.0000 0.75000  0.25000  0.79750  Biso   1.000  O
  O43      1.0000 0.75000  0.75000  0.70250  Biso   1.000  O
  O44      1.0000 0.25000  0.75000  0.20250  Biso   1.000  O
  H1       1.0000 0.06390  0.38060  0.14770  Biso   1.000  H
  H2       1.0000 0.93610  0.38060  0.64770  Biso   1.000  H
  H3       1.0000 0.56390  0.11940  0.64770  Biso   1.000  H
  H4       1.0000 0.56390  0.88060  0.85230  Biso   1.000  H
  H5       1.0000 0.93610  0.61940  0.85230  Biso   1.000  H
  H6       1.0000 0.06390  0.61940  0.35230  Biso   1.000  H
  H7       1.0000 0.43610  0.88060  0.35230  Biso   1.000  H
  H8       1.0000 0.43610  0.11940  0.14770  Biso   1.000  H
  H9       1.0000 0.84430  0.59260  0.05210  Biso   1.000  H
  H10      1.0000 0.15570  0.59260  0.55210  Biso   1.000  H
  H11      1.0000 0.34430  0.90740  0.55210  Biso   1.000  H
  H12      1.0000 0.34430  0.09260  0.94790  Biso   1.000  H
  H13      1.0000 0.15570  0.40740  0.94790  Biso   1.000  H
  H14      1.0000 0.84430  0.40740  0.44790  Biso   1.000  H
  H15      1.0000 0.65570  0.09260  0.44790  Biso   1.000  H
  H16      1.0000 0.65570  0.90740  0.05210  Biso   1.000  H
  H17      1.0000 0.80490  0.46180  0.98390  Biso   1.000  H
  H18      1.0000 0.19510  0.46180  0.48390  Biso   1.000  H
  H19      1.0000 0.30490  0.03820  0.48390  Biso   1.000  H
  H20      1.0000 0.30490  0.96180  0.01610  Biso   1.000  H
  H21      1.0000 0.19510  0.53820  0.01610  Biso   1.000  H
  H22      1.0000 0.80490  0.53820  0.51610  Biso   1.000  H
  H23      1.0000 0.69510  0.96180  0.51610  Biso   1.000  H
  H24      1.0000 0.69510  0.03820  0.98390  Biso   1.000  H
  H25      1.0000 0.86780  0.29500  0.98490  Biso   1.000  H
  H26      1.0000 0.13220  0.29500  0.48490  Biso   1.000  H
  H27      1.0000 0.36780  0.20500  0.48490  Biso   1.000  H
  H28      1.0000 0.36780  0.79500  0.01510  Biso   1.000  H
  H29      1.0000 0.13220  0.70500  0.01510  Biso   1.000  H
  H30      1.0000 0.86780  0.70500  0.51510  Biso   1.000  H
  H31      1.0000 0.63220  0.79500  0.51510  Biso   1.000  H
  H32      1.0000 0.63220  0.20500  0.98490  Biso   1.000  H
  H33      1.0000 0.99010  0.62930  0.15190  Biso   1.000  H
  H34      1.0000 0.00990  0.62930  0.65190  Biso   1.000  H
  H35      1.0000 0.49010  0.87070  0.65190  Biso   1.000  H
  H36      1.0000 0.49010  0.12930  0.84810  Biso   1.000  H
  H37      1.0000 0.00990  0.37070  0.84810  Biso   1.000  H
  H38      1.0000 0.99010  0.37070  0.34810  Biso   1.000  H
  H39      1.0000 0.50990  0.12930  0.34810  Biso   1.000  H
  H40      1.0000 0.50990  0.87070  0.15190  Biso   1.000  H
  H41      1.0000 0.06850  0.55550  0.17950  Biso   1.000  H
  H42      1.0000 0.93150  0.55550  0.67950  Biso   1.000  H
  H43      1.0000 0.56850  0.94450  0.67950  Biso   1.000  H
  H44      1.0000 0.56850  0.05550  0.82050  Biso   1.000  H
  H45      1.0000 0.93150  0.44450  0.82050  Biso   1.000  H
  H46      1.0000 0.06850  0.44450  0.32050  Biso   1.000  H
  H47      1.0000 0.43150  0.05550  0.32050  Biso   1.000  H
  H48      1.0000 0.43150  0.94450  0.17950  Biso   1.000  H
  H49      1.0000 0.05500  0.18420  0.23860  Biso   1.000  H
  H50      1.0000 0.94500  0.18420  0.73860  Biso   1.000  H
  H51      1.0000 0.55500  0.31580  0.73860  Biso   1.000  H
  H52      1.0000 0.55500  0.68420  0.76140  Biso   1.000  H
  H53      1.0000 0.94500  0.81580  0.76140  Biso   1.000  H
  H54      1.0000 0.05500  0.81580  0.26140  Biso   1.000  H
  H55      1.0000 0.44500  0.68420  0.26140  Biso   1.000  H
  H56      1.0000 0.44500  0.31580  0.23860  Biso   1.000  H
  H57      1.0000 0.75380  0.13460  0.31920  Biso   1.000  H
  H58      1.0000 0.24620  0.13460  0.81920  Biso   1.000  H
  H59      1.0000 0.25380  0.36540  0.81920  Biso   1.000  H
  H60      1.0000 0.25380  0.63460  0.68080  Biso   1.000  H
  H61      1.0000 0.24620  0.86540  0.68080  Biso   1.000  H
  H62      1.0000 0.75380  0.86540  0.18080  Biso   1.000  H
  H63      1.0000 0.74620  0.63460  0.18080  Biso   1.000  H
  H64      1.0000 0.74620  0.36540  0.31920  Biso   1.000  H
  H65      1.0000 0.68700  0.10890  0.20380  Biso   1.000  H
  H66      1.0000 0.31300  0.10890  0.70380  Biso   1.000  H
  H67      1.0000 0.18700  0.39110  0.70380  Biso   1.000  H
  H68      1.0000 0.18700  0.60890  0.79620  Biso   1.000  H
  H69      1.0000 0.31300  0.89110  0.79620  Biso   1.000  H
  H70      1.0000 0.68700  0.89110  0.29620  Biso   1.000  H
  H71      1.0000 0.81300  0.60890  0.29620  Biso   1.000  H
  H72      1.0000 0.81300  0.39110  0.20380  Biso   1.000  H
  H73      1.0000 0.80750  0.11310  0.10020  Biso   1.000  H
  H74      1.0000 0.19250  0.11310  0.60020  Biso   1.000  H
  H75      1.0000 0.30750  0.38690  0.60020  Biso   1.000  H
  H76      1.0000 0.30750  0.61310  0.89980  Biso   1.000  H
  H77      1.0000 0.19250  0.88690  0.89980  Biso   1.000  H
  H78      1.0000 0.80750  0.88690  0.39980  Biso   1.000  H
  H79      1.0000 0.69250  0.61310  0.39980  Biso   1.000  H
  H80      1.0000 0.69250  0.38690  0.10020  Biso   1.000  H
  H81      1.0000 0.03020  0.17740  0.35960  Biso   1.000  H
  H82      1.0000 0.96980  0.17740  0.85960  Biso   1.000  H
  H83      1.0000 0.53020  0.32260  0.85960  Biso   1.000  H
  H84      1.0000 0.53020  0.67740  0.64040  Biso   1.000  H
  H85      1.0000 0.96980  0.82260  0.64040  Biso   1.000  H
  H86      1.0000 0.03020  0.82260  0.14040  Biso   1.000  H
  H87      1.0000 0.46980  0.67740  0.14040  Biso   1.000  H
  H88      1.0000 0.46980  0.32260  0.35960  Biso   1.000  H
  H89      1.0000 0.91430  0.17250  0.38490  Biso   1.000  H
  H90      1.0000 0.08570  0.17250  0.88490  Biso   1.000  H
  H91      1.0000 0.41430  0.32750  0.88490  Biso   1.000  H
  H92      1.0000 0.41430  0.67250  0.61510  Biso   1.000  H
  H93      1.0000 0.08570  0.82750  0.61510  Biso   1.000  H
  H94      1.0000 0.91430  0.82750  0.11510  Biso   1.000  H
  H95      1.0000 0.58570  0.67250  0.11510  Biso   1.000  H
  H96      1.0000 0.58570  0.32750  0.38490  Biso   1.000  H
