data_image0
_cell_length_a       5.663
_cell_length_b       16.589
_cell_length_c       29.125
_cell_angle_alpha    90
_cell_angle_beta     90
_cell_angle_gamma    90

_symmetry_space_group_name_H-M    "P 1"
_symmetry_int_tables_number       1

loop_
  _symmetry_equiv_pos_as_xyz
  'x, y, z'

loop_
  _atom_site_label
  _atom_site_occupancy
  _atom_site_fract_x
  _atom_site_fract_y
  _atom_site_fract_z
  _atom_site_thermal_displace_type
  _atom_site_B_iso_or_equiv
  _atom_site_type_symbol
  Cu1      1.0000 0.12500  0.12500  0.12500  Biso   1.000  Cu
  Cu2      1.0000 0.12500  0.62500  0.62500  Biso   1.000  Cu
  Cu3      1.0000 0.62500  0.12500  0.62500  Biso   1.000  Cu
  Cu4      1.0000 0.62500  0.62500  0.12500  Biso   1.000  Cu
  Cu5      1.0000 0.37500  0.37500  0.37500  Biso   1.000  Cu
  Cu6      1.0000 0.87500  0.37500  0.37500  Biso   1.000  Cu
  Cu7      1.0000 0.37500  0.87500  0.37500  Biso   1.000  Cu
  Cu8      1.0000 0.37500  0.37500  0.87500  Biso   1.000  Cu
  Cu9      1.0000 0.87500  0.87500  0.87500  Biso   1.000  Cu
  Cu10     1.0000 0.12500  0.12500  0.62500  Biso   1.000  Cu
  Cu11     1.0000 0.12500  0.62500  0.12500  Biso   1.000  Cu
  Cu12     1.0000 0.62500  0.12500  0.12500  Biso   1.000  Cu
  C1       1.0000 0.60850  0.07793  0.12610  Biso   1.000  C
  C2       1.0000 0.64150  0.17207  0.12610  Biso   1.000  C
  C3       1.0000 0.60850  0.17207  0.12390  Biso   1.000  C
  C4       1.0000 0.64150  0.07793  0.12390  Biso   1.000  C
  C5       1.0000 0.60850  0.57793  0.62610  Biso   1.000  C
  C6       1.0000 0.10850  0.07793  0.62610  Biso   1.000  C
  C7       1.0000 0.10850  0.57793  0.12610  Biso   1.000  C
  C8       1.0000 0.85850  0.32793  0.37390  Biso   1.000  C
  C9       1.0000 0.39150  0.32793  0.37610  Biso   1.000  C
  C10      1.0000 0.85850  0.42207  0.37610  Biso   1.000  C
  C11      1.0000 0.89150  0.32793  0.37610  Biso   1.000  C
  C12      1.0000 0.85850  0.92207  0.37610  Biso   1.000  C
  C13      1.0000 0.85850  0.32793  0.87390  Biso   1.000  C
  C14      1.0000 0.39150  0.92207  0.87390  Biso   1.000  C
  C15      1.0000 0.39150  0.42207  0.37390  Biso   1.000  C
  C16      1.0000 0.89150  0.92207  0.37390  Biso   1.000  C
  C17      1.0000 0.89150  0.42207  0.87390  Biso   1.000  C
  C18      1.0000 0.64150  0.17207  0.62610  Biso   1.000  C
  C19      1.0000 0.64150  0.57793  0.12390  Biso   1.000  C
  C20      1.0000 0.10850  0.17207  0.12390  Biso   1.000  C
  O1       1.0000 0.41240  0.04990  0.12783  Biso   1.000  O
  O2       1.0000 0.83760  0.20010  0.12783  Biso   1.000  O
  O3       1.0000 0.41240  0.20010  0.12217  Biso   1.000  O
  O4       1.0000 0.83760  0.04990  0.12217  Biso   1.000  O
  O5       1.0000 0.41240  0.54990  0.62783  Biso   1.000  O
  O6       1.0000 0.91240  0.04990  0.62783  Biso   1.000  O
  O7       1.0000 0.91240  0.54990  0.12783  Biso   1.000  O
  O8       1.0000 0.66240  0.29990  0.37217  Biso   1.000  O
  O9       1.0000 0.58760  0.29990  0.37783  Biso   1.000  O
  O10      1.0000 0.66240  0.45010  0.37783  Biso   1.000  O
  O11      1.0000 0.08760  0.29990  0.37783  Biso   1.000  O
  O12      1.0000 0.66240  0.95010  0.37783  Biso   1.000  O
  O13      1.0000 0.66240  0.29990  0.87217  Biso   1.000  O
  O14      1.0000 0.58760  0.95010  0.87217  Biso   1.000  O
  O15      1.0000 0.58760  0.45010  0.37217  Biso   1.000  O
  O16      1.0000 0.08760  0.95010  0.37217  Biso   1.000  O
  O17      1.0000 0.08760  0.45010  0.87217  Biso   1.000  O
  O18      1.0000 0.83760  0.20010  0.62783  Biso   1.000  O
  O19      1.0000 0.83760  0.54990  0.12217  Biso   1.000  O
  O20      1.0000 0.91240  0.20010  0.12217  Biso   1.000  O
  O21      1.0000 0.44930  0.21290  0.12604  Biso   1.000  O
  O22      1.0000 0.80070  0.03710  0.12604  Biso   1.000  O
  O23      1.0000 0.44930  0.03710  0.12396  Biso   1.000  O
  O24      1.0000 0.80070  0.21290  0.12396  Biso   1.000  O
  O25      1.0000 0.44930  0.71290  0.62604  Biso   1.000  O
  O26      1.0000 0.94930  0.21290  0.62604  Biso   1.000  O
  O27      1.0000 0.94930  0.71290  0.12604  Biso   1.000  O
  O28      1.0000 0.69930  0.46290  0.37396  Biso   1.000  O
  O29      1.0000 0.55070  0.46290  0.37604  Biso   1.000  O
  O30      1.0000 0.69930  0.28710  0.37604  Biso   1.000  O
  O31      1.0000 0.05070  0.46290  0.37604  Biso   1.000  O
  O32      1.0000 0.69930  0.78710  0.37604  Biso   1.000  O
  O33      1.0000 0.69930  0.46290  0.87396  Biso   1.000  O
  O34      1.0000 0.55070  0.78710  0.87396  Biso   1.000  O
  O35      1.0000 0.55070  0.28710  0.37396  Biso   1.000  O
  O36      1.0000 0.05070  0.78710  0.37396  Biso   1.000  O
  O37      1.0000 0.05070  0.28710  0.87396  Biso   1.000  O
  O38      1.0000 0.80070  0.03710  0.62604  Biso   1.000  O
  O39      1.0000 0.80070  0.71290  0.12396  Biso   1.000  O
  O40      1.0000 0.94930  0.03710  0.12396  Biso   1.000  O
  N1       1.0000 0.12500  0.12500  0.05629  Biso   1.000  N
  N2       1.0000 0.12500  0.12500  0.19371  Biso   1.000  N
  N3       1.0000 0.12500  0.62500  0.55629  Biso   1.000  N
  N4       1.0000 0.62500  0.12500  0.55629  Biso   1.000  N
  N5       1.0000 0.62500  0.62500  0.05629  Biso   1.000  N
  N6       1.0000 0.37500  0.37500  0.44371  Biso   1.000  N
  N7       1.0000 0.87500  0.37500  0.30629  Biso   1.000  N
  N8       1.0000 0.37500  0.37500  0.30629  Biso   1.000  N
  N9       1.0000 0.37500  0.87500  0.30629  Biso   1.000  N
  N10      1.0000 0.37500  0.37500  0.94371  Biso   1.000  N
  N11      1.0000 0.87500  0.87500  0.94371  Biso   1.000  N
  N12      1.0000 0.87500  0.37500  0.44371  Biso   1.000  N
  N13      1.0000 0.37500  0.87500  0.44371  Biso   1.000  N
  N14      1.0000 0.12500  0.12500  0.55629  Biso   1.000  N
  N15      1.0000 0.12500  0.62500  0.19371  Biso   1.000  N
  N16      1.0000 0.62500  0.12500  0.19371  Biso   1.000  N
  C21      1.0000 0.21560  0.06371  0.03221  Biso   1.000  C
  C22      1.0000 0.03440  0.18629  0.03221  Biso   1.000  C
  C23      1.0000 0.21560  0.18629  0.21779  Biso   1.000  C
  C24      1.0000 0.03440  0.06371  0.21779  Biso   1.000  C
  C25      1.0000 0.21560  0.56371  0.53221  Biso   1.000  C
  C26      1.0000 0.71560  0.06371  0.53221  Biso   1.000  C
  C27      1.0000 0.71560  0.56371  0.03221  Biso   1.000  C
  C28      1.0000 0.46560  0.31371  0.46779  Biso   1.000  C
  C29      1.0000 0.78440  0.31371  0.28221  Biso   1.000  C
  C30      1.0000 0.46560  0.43629  0.28221  Biso   1.000  C
  C31      1.0000 0.28440  0.31371  0.28221  Biso   1.000  C
  C32      1.0000 0.46560  0.93629  0.28221  Biso   1.000  C
  C33      1.0000 0.46560  0.31371  0.96779  Biso   1.000  C
  C34      1.0000 0.78440  0.93629  0.96779  Biso   1.000  C
  C35      1.0000 0.78440  0.43629  0.46779  Biso   1.000  C
  C36      1.0000 0.28440  0.93629  0.46779  Biso   1.000  C
  C37      1.0000 0.28440  0.43629  0.96779  Biso   1.000  C
  C38      1.0000 0.03440  0.18629  0.53221  Biso   1.000  C
  C39      1.0000 0.03440  0.56371  0.21779  Biso   1.000  C
  C40      1.0000 0.71560  0.18629  0.21779  Biso   1.000  C
  C41      1.0000 0.22080  0.06142  0.98520  Biso   1.000  C
  C42      1.0000 0.02920  0.18858  0.98520  Biso   1.000  C
  C43      1.0000 0.22080  0.18858  0.26480  Biso   1.000  C
  C44      1.0000 0.02920  0.06142  0.26480  Biso   1.000  C
  C45      1.0000 0.22080  0.56142  0.48520  Biso   1.000  C
  C46      1.0000 0.72080  0.06142  0.48520  Biso   1.000  C
  C47      1.0000 0.72080  0.56142  0.98520  Biso   1.000  C
  C48      1.0000 0.47080  0.31142  0.51480  Biso   1.000  C
  C49      1.0000 0.77920  0.31142  0.23520  Biso   1.000  C
  C50      1.0000 0.47080  0.43858  0.23520  Biso   1.000  C
  C51      1.0000 0.27920  0.31142  0.23520  Biso   1.000  C
  C52      1.0000 0.47080  0.93858  0.23520  Biso   1.000  C
  C53      1.0000 0.47080  0.31142  0.01480  Biso   1.000  C
  C54      1.0000 0.77920  0.93858  0.01480  Biso   1.000  C
  C55      1.0000 0.77920  0.43858  0.51480  Biso   1.000  C
  C56      1.0000 0.27920  0.93858  0.51480  Biso   1.000  C
  C57      1.0000 0.27920  0.43858  0.01480  Biso   1.000  C
  C58      1.0000 0.02920  0.18858  0.48520  Biso   1.000  C
  C59      1.0000 0.02920  0.56142  0.26480  Biso   1.000  C
  C60      1.0000 0.72080  0.18858  0.26480  Biso   1.000  C
  C61      1.0000 0.12500  0.12500  0.95983  Biso   1.000  C
  C62      1.0000 0.12500  0.12500  0.29017  Biso   1.000  C
  C63      1.0000 0.12500  0.62500  0.45983  Biso   1.000  C
  C64      1.0000 0.62500  0.12500  0.45983  Biso   1.000  C
  C65      1.0000 0.62500  0.62500  0.95983  Biso   1.000  C
  C66      1.0000 0.37500  0.37500  0.54017  Biso   1.000  C
  C67      1.0000 0.87500  0.37500  0.20983  Biso   1.000  C
  C68      1.0000 0.37500  0.37500  0.20983  Biso   1.000  C
  C69      1.0000 0.37500  0.87500  0.20983  Biso   1.000  C
  C70      1.0000 0.37500  0.37500  0.04017  Biso   1.000  C
  C71      1.0000 0.87500  0.87500  0.04017  Biso   1.000  C
  C72      1.0000 0.87500  0.37500  0.54017  Biso   1.000  C
  C73      1.0000 0.37500  0.87500  0.54017  Biso   1.000  C
  C74      1.0000 0.12500  0.12500  0.45983  Biso   1.000  C
  C75      1.0000 0.12500  0.62500  0.29017  Biso   1.000  C
  C76      1.0000 0.62500  0.12500  0.29017  Biso   1.000  C
  N17      1.0000 0.12500  0.12500  0.91362  Biso   1.000  N
  N18      1.0000 0.12500  0.12500  0.33638  Biso   1.000  N
  N19      1.0000 0.12500  0.62500  0.41362  Biso   1.000  N
  N20      1.0000 0.62500  0.12500  0.41362  Biso   1.000  N
  N21      1.0000 0.62500  0.62500  0.91362  Biso   1.000  N
  N22      1.0000 0.37500  0.37500  0.58638  Biso   1.000  N
  N23      1.0000 0.87500  0.37500  0.16362  Biso   1.000  N
  N24      1.0000 0.37500  0.37500  0.16362  Biso   1.000  N
  N25      1.0000 0.37500  0.87500  0.16362  Biso   1.000  N
  N26      1.0000 0.37500  0.37500  0.08638  Biso   1.000  N
  N27      1.0000 0.87500  0.87500  0.08638  Biso   1.000  N
  N28      1.0000 0.87500  0.37500  0.58638  Biso   1.000  N
  N29      1.0000 0.37500  0.87500  0.58638  Biso   1.000  N
  N30      1.0000 0.12500  0.12500  0.41362  Biso   1.000  N
  N31      1.0000 0.12500  0.62500  0.33638  Biso   1.000  N
  N32      1.0000 0.62500  0.12500  0.33638  Biso   1.000  N
  H1       1.0000 0.27100  0.02030  0.04840  Biso   1.000  H
  H2       1.0000 0.97900  0.22970  0.04840  Biso   1.000  H
  H3       1.0000 0.27100  0.22970  0.20160  Biso   1.000  H
  H4       1.0000 0.97900  0.02030  0.20160  Biso   1.000  H
  H5       1.0000 0.27100  0.52030  0.54840  Biso   1.000  H
  H6       1.0000 0.77100  0.02030  0.54840  Biso   1.000  H
  H7       1.0000 0.77100  0.52030  0.04840  Biso   1.000  H
  H8       1.0000 0.52100  0.27030  0.45160  Biso   1.000  H
  H9       1.0000 0.72900  0.27030  0.29840  Biso   1.000  H
  H10      1.0000 0.52100  0.47970  0.29840  Biso   1.000  H
  H11      1.0000 0.22900  0.27030  0.29840  Biso   1.000  H
  H12      1.0000 0.52100  0.97970  0.29840  Biso   1.000  H
  H13      1.0000 0.52100  0.27030  0.95160  Biso   1.000  H
  H14      1.0000 0.72900  0.97970  0.95160  Biso   1.000  H
  H15      1.0000 0.72900  0.47970  0.45160  Biso   1.000  H
  H16      1.0000 0.22900  0.97970  0.45160  Biso   1.000  H
  H17      1.0000 0.22900  0.47970  0.95160  Biso   1.000  H
  H18      1.0000 0.97900  0.22970  0.54840  Biso   1.000  H
  H19      1.0000 0.97900  0.52030  0.20160  Biso   1.000  H
  H20      1.0000 0.77100  0.22970  0.20160  Biso   1.000  H
  H21      1.0000 0.27700  0.01730  0.97220  Biso   1.000  H
  H22      1.0000 0.97300  0.23270  0.97220  Biso   1.000  H
  H23      1.0000 0.27700  0.23270  0.27780  Biso   1.000  H
  H24      1.0000 0.97300  0.01730  0.27780  Biso   1.000  H
  H25      1.0000 0.27700  0.51730  0.47220  Biso   1.000  H
  H26      1.0000 0.77700  0.01730  0.47220  Biso   1.000  H
  H27      1.0000 0.77700  0.51730  0.97220  Biso   1.000  H
  H28      1.0000 0.52700  0.26730  0.52780  Biso   1.000  H
  H29      1.0000 0.72300  0.26730  0.22220  Biso   1.000  H
  H30      1.0000 0.52700  0.48270  0.22220  Biso   1.000  H
  H31      1.0000 0.22300  0.26730  0.22220  Biso   1.000  H
  H32      1.0000 0.52700  0.98270  0.22220  Biso   1.000  H
  H33      1.0000 0.52700  0.26730  0.02780  Biso   1.000  H
  H34      1.0000 0.72300  0.98270  0.02780  Biso   1.000  H
  H35      1.0000 0.72300  0.48270  0.52780  Biso   1.000  H
  H36      1.0000 0.22300  0.98270  0.52780  Biso   1.000  H
  H37      1.0000 0.22300  0.48270  0.02780  Biso   1.000  H
  H38      1.0000 0.97300  0.23270  0.47220  Biso   1.000  H
  H39      1.0000 0.97300  0.51730  0.27780  Biso   1.000  H
  H40      1.0000 0.77700  0.23270  0.27780  Biso   1.000  H
  H41      1.0000 0.16500  0.08580  0.90010  Biso   1.000  H
  H42      1.0000 0.08500  0.16420  0.90010  Biso   1.000  H
  H43      1.0000 0.16500  0.16420  0.34990  Biso   1.000  H
  H44      1.0000 0.08500  0.08580  0.34990  Biso   1.000  H
  H45      1.0000 0.16500  0.58580  0.40010  Biso   1.000  H
  H46      1.0000 0.66500  0.08580  0.40010  Biso   1.000  H
  H47      1.0000 0.66500  0.58580  0.90010  Biso   1.000  H
  H48      1.0000 0.41500  0.33580  0.59990  Biso   1.000  H
  H49      1.0000 0.83500  0.33580  0.15010  Biso   1.000  H
  H50      1.0000 0.41500  0.41420  0.15010  Biso   1.000  H
  H51      1.0000 0.33500  0.33580  0.15010  Biso   1.000  H
  H52      1.0000 0.41500  0.91420  0.15010  Biso   1.000  H
  H53      1.0000 0.41500  0.33580  0.09990  Biso   1.000  H
  H54      1.0000 0.83500  0.91420  0.09990  Biso   1.000  H
  H55      1.0000 0.83500  0.41420  0.59990  Biso   1.000  H
  H56      1.0000 0.33500  0.91420  0.59990  Biso   1.000  H
  H57      1.0000 0.33500  0.41420  0.09990  Biso   1.000  H
  H58      1.0000 0.08500  0.16420  0.40010  Biso   1.000  H
  H59      1.0000 0.08500  0.58580  0.34990  Biso   1.000  H
  H60      1.0000 0.66500  0.16420  0.34990  Biso   1.000  H
  O41      1.0000 0.83760  0.70010  0.62783  Biso   1.000  O
  O42      1.0000 0.33760  0.20010  0.62783  Biso   1.000  O
  O43      1.0000 0.33760  0.70010  0.12783  Biso   1.000  O
  O44      1.0000 0.08760  0.45010  0.37217  Biso   1.000  O
  O45      1.0000 0.16240  0.45010  0.37783  Biso   1.000  O
  O46      1.0000 0.08760  0.79990  0.37783  Biso   1.000  O
  O47      1.0000 0.16240  0.79990  0.87217  Biso   1.000  O
  O48      1.0000 0.16240  0.29990  0.37217  Biso   1.000  O
  O49      1.0000 0.66240  0.79990  0.37217  Biso   1.000  O
  O50      1.0000 0.41240  0.04990  0.62783  Biso   1.000  O
  O51      1.0000 0.41240  0.70010  0.12217  Biso   1.000  O
  O52      1.0000 0.33760  0.04990  0.12217  Biso   1.000  O
  O53      1.0000 0.41240  0.70010  0.62217  Biso   1.000  O
  O54      1.0000 0.91240  0.20010  0.62217  Biso   1.000  O
  O55      1.0000 0.91240  0.70010  0.12217  Biso   1.000  O
  O56      1.0000 0.66240  0.45010  0.87783  Biso   1.000  O
  O57      1.0000 0.58760  0.79990  0.87783  Biso   1.000  O
  O58      1.0000 0.08760  0.29990  0.87783  Biso   1.000  O
  O59      1.0000 0.83760  0.04990  0.62217  Biso   1.000  O
  O60      1.0000 0.83760  0.70010  0.12783  Biso   1.000  O
  O61      1.0000 0.91240  0.04990  0.12783  Biso   1.000  O
  O62      1.0000 0.83760  0.54990  0.62217  Biso   1.000  O
  O63      1.0000 0.33760  0.04990  0.62217  Biso   1.000  O
  O64      1.0000 0.33760  0.54990  0.12217  Biso   1.000  O
  O65      1.0000 0.16240  0.95010  0.87783  Biso   1.000  O
  O66      1.0000 0.41240  0.20010  0.62217  Biso   1.000  O
  O67      1.0000 0.41240  0.54990  0.12783  Biso   1.000  O
  O68      1.0000 0.33760  0.20010  0.12783  Biso   1.000  O
  N33      1.0000 0.12500  0.62500  0.69371  Biso   1.000  N
  N34      1.0000 0.62500  0.12500  0.69371  Biso   1.000  N
  N35      1.0000 0.62500  0.62500  0.19371  Biso   1.000  N
  N36      1.0000 0.37500  0.37500  0.80629  Biso   1.000  N
  N37      1.0000 0.87500  0.87500  0.80629  Biso   1.000  N
  N38      1.0000 0.12500  0.12500  0.69371  Biso   1.000  N
  N39      1.0000 0.12500  0.62500  0.05629  Biso   1.000  N
  N40      1.0000 0.62500  0.12500  0.05629  Biso   1.000  N
  C77      1.0000 0.64150  0.67207  0.62610  Biso   1.000  C
  C78      1.0000 0.14150  0.17207  0.62610  Biso   1.000  C
  C79      1.0000 0.14150  0.67207  0.12610  Biso   1.000  C
  C80      1.0000 0.89150  0.42207  0.37390  Biso   1.000  C
  C81      1.0000 0.35850  0.42207  0.37610  Biso   1.000  C
  C82      1.0000 0.89150  0.82793  0.37610  Biso   1.000  C
  C83      1.0000 0.35850  0.82793  0.87390  Biso   1.000  C
  C84      1.0000 0.35850  0.32793  0.37390  Biso   1.000  C
  C85      1.0000 0.85850  0.82793  0.37390  Biso   1.000  C
  C86      1.0000 0.60850  0.07793  0.62610  Biso   1.000  C
  C87      1.0000 0.60850  0.67207  0.12390  Biso   1.000  C
  C88      1.0000 0.14150  0.07793  0.12390  Biso   1.000  C
  C89      1.0000 0.60850  0.67207  0.62390  Biso   1.000  C
  C90      1.0000 0.10850  0.17207  0.62390  Biso   1.000  C
  C91      1.0000 0.10850  0.67207  0.12390  Biso   1.000  C
  C92      1.0000 0.85850  0.42207  0.87610  Biso   1.000  C
  C93      1.0000 0.39150  0.82793  0.87610  Biso   1.000  C
  C94      1.0000 0.89150  0.32793  0.87610  Biso   1.000  C
  C95      1.0000 0.64150  0.07793  0.62390  Biso   1.000  C
  C96      1.0000 0.64150  0.67207  0.12610  Biso   1.000  C
  C97      1.0000 0.10850  0.07793  0.12610  Biso   1.000  C
  C98      1.0000 0.64150  0.57793  0.62390  Biso   1.000  C
  C99      1.0000 0.14150  0.07793  0.62390  Biso   1.000  C
  C100     1.0000 0.14150  0.57793  0.12390  Biso   1.000  C
  C101     1.0000 0.35850  0.92207  0.87610  Biso   1.000  C
  C102     1.0000 0.60850  0.17207  0.62390  Biso   1.000  C
  C103     1.0000 0.60850  0.57793  0.12610  Biso   1.000  C
  C104     1.0000 0.14150  0.17207  0.12610  Biso   1.000  C
  C105     1.0000 0.03440  0.68629  0.53221  Biso   1.000  C
  C106     1.0000 0.53440  0.18629  0.53221  Biso   1.000  C
  C107     1.0000 0.53440  0.68629  0.03221  Biso   1.000  C
  C108     1.0000 0.28440  0.43629  0.46779  Biso   1.000  C
  C109     1.0000 0.96560  0.43629  0.28221  Biso   1.000  C
  C110     1.0000 0.28440  0.81371  0.28221  Biso   1.000  C
  C111     1.0000 0.96560  0.81371  0.96779  Biso   1.000  C
  C112     1.0000 0.96560  0.31371  0.46779  Biso   1.000  C
  C113     1.0000 0.46560  0.81371  0.46779  Biso   1.000  C
  C114     1.0000 0.21560  0.06371  0.53221  Biso   1.000  C
  C115     1.0000 0.21560  0.68629  0.21779  Biso   1.000  C
  C116     1.0000 0.53440  0.06371  0.21779  Biso   1.000  C
  C117     1.0000 0.02920  0.68858  0.48520  Biso   1.000  C
  C118     1.0000 0.52920  0.18858  0.48520  Biso   1.000  C
  C119     1.0000 0.52920  0.68858  0.98520  Biso   1.000  C
  C120     1.0000 0.27920  0.43858  0.51480  Biso   1.000  C
  C121     1.0000 0.97080  0.43858  0.23520  Biso   1.000  C
  C122     1.0000 0.27920  0.81142  0.23520  Biso   1.000  C
  C123     1.0000 0.97080  0.81142  0.01480  Biso   1.000  C
  C124     1.0000 0.97080  0.31142  0.51480  Biso   1.000  C
  C125     1.0000 0.47080  0.81142  0.51480  Biso   1.000  C
  C126     1.0000 0.22080  0.06142  0.48520  Biso   1.000  C
  C127     1.0000 0.22080  0.68858  0.26480  Biso   1.000  C
  C128     1.0000 0.52920  0.06142  0.26480  Biso   1.000  C
  H61      1.0000 0.08500  0.66420  0.40010  Biso   1.000  H
  H62      1.0000 0.58500  0.16420  0.40010  Biso   1.000  H
  H63      1.0000 0.58500  0.66420  0.90010  Biso   1.000  H
  H64      1.0000 0.33500  0.41420  0.59990  Biso   1.000  H
  H65      1.0000 0.91500  0.41420  0.15010  Biso   1.000  H
  H66      1.0000 0.33500  0.83580  0.15010  Biso   1.000  H
  H67      1.0000 0.91500  0.83580  0.09990  Biso   1.000  H
  H68      1.0000 0.91500  0.33580  0.59990  Biso   1.000  H
  H69      1.0000 0.41500  0.83580  0.59990  Biso   1.000  H
  H70      1.0000 0.16500  0.08580  0.40010  Biso   1.000  H
  H71      1.0000 0.16500  0.66420  0.34990  Biso   1.000  H
  H72      1.0000 0.58500  0.08580  0.34990  Biso   1.000  H
