data_image0
_cell_length_a       16.9334
_cell_length_b       12.9383
_cell_length_c       13.4633
_cell_angle_alpha    90
_cell_angle_beta     102.199
_cell_angle_gamma    90

_symmetry_space_group_name_H-M    "P 1"
_symmetry_int_tables_number       1

loop_
  _symmetry_equiv_pos_as_xyz
  'x, y, z'

loop_
  _atom_site_label
  _atom_site_occupancy
  _atom_site_fract_x
  _atom_site_fract_y
  _atom_site_fract_z
  _atom_site_thermal_displace_type
  _atom_site_B_iso_or_equiv
  _atom_site_type_symbol
  Cu1      1.0000 0.55321  0.40918  0.44700  Biso   1.000  Cu
  Cu2      1.0000 0.05321  0.90918  0.44700  Biso   1.000  Cu
  Cu3      1.0000 0.44679  0.40918  0.05300  Biso   1.000  Cu
  Cu4      1.0000 0.94679  0.90918  0.05300  Biso   1.000  Cu
  Cu5      1.0000 0.44679  0.59082  0.55300  Biso   1.000  Cu
  Cu6      1.0000 0.94679  0.09082  0.55300  Biso   1.000  Cu
  Cu7      1.0000 0.55321  0.59082  0.94700  Biso   1.000  Cu
  Cu8      1.0000 0.05321  0.09082  0.94700  Biso   1.000  Cu
  O1       1.0000 0.44698  0.38779  0.34828  Biso   1.000  O
  O2       1.0000 0.94698  0.88779  0.34828  Biso   1.000  O
  O3       1.0000 0.55302  0.38779  0.15172  Biso   1.000  O
  O4       1.0000 0.05302  0.88779  0.15172  Biso   1.000  O
  O5       1.0000 0.55302  0.61221  0.65172  Biso   1.000  O
  O6       1.0000 0.05302  0.11221  0.65172  Biso   1.000  O
  O7       1.0000 0.44698  0.61221  0.84828  Biso   1.000  O
  O8       1.0000 0.94698  0.11221  0.84828  Biso   1.000  O
  O9       1.0000 0.49073  0.41440  0.55306  Biso   1.000  O
  O10      1.0000 0.99073  0.91440  0.55306  Biso   1.000  O
  O11      1.0000 0.50927  0.41440  0.94694  Biso   1.000  O
  O12      1.0000 0.00927  0.91440  0.94694  Biso   1.000  O
  O13      1.0000 0.50927  0.58560  0.44694  Biso   1.000  O
  O14      1.0000 0.00927  0.08560  0.44694  Biso   1.000  O
  O15      1.0000 0.49073  0.58560  0.05306  Biso   1.000  O
  O16      1.0000 0.99073  0.08560  0.05306  Biso   1.000  O
  N1       1.0000 0.33577  0.40643  0.96651  Biso   1.000  N
  N2       1.0000 0.83577  0.90643  0.96651  Biso   1.000  N
  N3       1.0000 0.66423  0.40643  0.53349  Biso   1.000  N
  N4       1.0000 0.16423  0.90643  0.53349  Biso   1.000  N
  N5       1.0000 0.66423  0.59357  0.03349  Biso   1.000  N
  N6       1.0000 0.16423  0.09357  0.03349  Biso   1.000  N
  N7       1.0000 0.33577  0.59357  0.46651  Biso   1.000  N
  N8       1.0000 0.83577  0.09357  0.46651  Biso   1.000  N
  C1       1.0000 0.26680  0.38860  0.00010  Biso   1.000  C
  C2       1.0000 0.76680  0.88860  0.00010  Biso   1.000  C
  C3       1.0000 0.73320  0.38860  0.49990  Biso   1.000  C
  C4       1.0000 0.23320  0.88860  0.49990  Biso   1.000  C
  C5       1.0000 0.73320  0.61140  0.99990  Biso   1.000  C
  C6       1.0000 0.23320  0.11140  0.99990  Biso   1.000  C
  C7       1.0000 0.26680  0.61140  0.50010  Biso   1.000  C
  C8       1.0000 0.76680  0.11140  0.50010  Biso   1.000  C
  C9       1.0000 0.19459  0.37250  0.93040  Biso   1.000  C
  C10      1.0000 0.69459  0.87250  0.93040  Biso   1.000  C
  C11      1.0000 0.80541  0.37250  0.56960  Biso   1.000  C
  C12      1.0000 0.30541  0.87250  0.56960  Biso   1.000  C
  C13      1.0000 0.80541  0.62750  0.06960  Biso   1.000  C
  C14      1.0000 0.30541  0.12750  0.06960  Biso   1.000  C
  C15      1.0000 0.19459  0.62750  0.43040  Biso   1.000  C
  C16      1.0000 0.69459  0.12750  0.43040  Biso   1.000  C
  H1       1.0000 0.14660  0.35920  0.95420  Biso   1.000  H
  H2       1.0000 0.64660  0.85920  0.95420  Biso   1.000  H
  H3       1.0000 0.85340  0.35920  0.54580  Biso   1.000  H
  H4       1.0000 0.35340  0.85920  0.54580  Biso   1.000  H
  H5       1.0000 0.85340  0.64080  0.04580  Biso   1.000  H
  H6       1.0000 0.35340  0.14080  0.04580  Biso   1.000  H
  H7       1.0000 0.14660  0.64080  0.45420  Biso   1.000  H
  H8       1.0000 0.64660  0.14080  0.45420  Biso   1.000  H
  N9       1.0000 0.32441  0.39047  0.18743  Biso   1.000  N
  N10      1.0000 0.82441  0.89047  0.18743  Biso   1.000  N
  N11      1.0000 0.67559  0.39047  0.31257  Biso   1.000  N
  N12      1.0000 0.17559  0.89047  0.31257  Biso   1.000  N
  N13      1.0000 0.67559  0.60953  0.81257  Biso   1.000  N
  N14      1.0000 0.17559  0.10953  0.81257  Biso   1.000  N
  N15      1.0000 0.32441  0.60953  0.68743  Biso   1.000  N
  N16      1.0000 0.82441  0.10953  0.68743  Biso   1.000  N
  N17      1.0000 0.40298  0.39289  0.17268  Biso   1.000  N
  N18      1.0000 0.90298  0.89289  0.17268  Biso   1.000  N
  N19      1.0000 0.59702  0.39289  0.32732  Biso   1.000  N
  N20      1.0000 0.09702  0.89289  0.32732  Biso   1.000  N
  N21      1.0000 0.59702  0.60711  0.82732  Biso   1.000  N
  N22      1.0000 0.09702  0.10711  0.82732  Biso   1.000  N
  N23      1.0000 0.40298  0.60711  0.67268  Biso   1.000  N
  N24      1.0000 0.90298  0.10711  0.67268  Biso   1.000  N
  O17      1.0000 0.49586  0.24460  0.54655  Biso   1.000  O
  O18      1.0000 0.99586  0.74460  0.54655  Biso   1.000  O
  O19      1.0000 0.50414  0.24460  0.95345  Biso   1.000  O
  O20      1.0000 0.00414  0.74460  0.95345  Biso   1.000  O
  O21      1.0000 0.50414  0.75540  0.45345  Biso   1.000  O
  O22      1.0000 0.00414  0.25540  0.45345  Biso   1.000  O
  O23      1.0000 0.49586  0.75540  0.04655  Biso   1.000  O
  O24      1.0000 0.99586  0.25540  0.04655  Biso   1.000  O
  C17      1.0000 0.19160  0.37540  0.82780  Biso   1.000  C
  C18      1.0000 0.69160  0.87540  0.82780  Biso   1.000  C
  C19      1.0000 0.80840  0.37540  0.67220  Biso   1.000  C
  C20      1.0000 0.30840  0.87540  0.67220  Biso   1.000  C
  C21      1.0000 0.80840  0.62460  0.17220  Biso   1.000  C
  C22      1.0000 0.30840  0.12460  0.17220  Biso   1.000  C
  C23      1.0000 0.19160  0.62460  0.32780  Biso   1.000  C
  C24      1.0000 0.69160  0.12460  0.32780  Biso   1.000  C
  H9       1.0000 0.14240  0.36270  0.78060  Biso   1.000  H
  H10      1.0000 0.64240  0.86270  0.78060  Biso   1.000  H
  H11      1.0000 0.85760  0.36270  0.71940  Biso   1.000  H
  H12      1.0000 0.35760  0.86270  0.71940  Biso   1.000  H
  H13      1.0000 0.85760  0.63730  0.21940  Biso   1.000  H
  H14      1.0000 0.35760  0.13730  0.21940  Biso   1.000  H
  H15      1.0000 0.14240  0.63730  0.28060  Biso   1.000  H
  H16      1.0000 0.64240  0.13730  0.28060  Biso   1.000  H
  C25      1.0000 0.26060  0.39700  0.79490  Biso   1.000  C
  C26      1.0000 0.76060  0.89700  0.79490  Biso   1.000  C
  C27      1.0000 0.73940  0.39700  0.70510  Biso   1.000  C
  C28      1.0000 0.23940  0.89700  0.70510  Biso   1.000  C
  C29      1.0000 0.73940  0.60300  0.20510  Biso   1.000  C
  C30      1.0000 0.23940  0.10300  0.20510  Biso   1.000  C
  C31      1.0000 0.26060  0.60300  0.29490  Biso   1.000  C
  C32      1.0000 0.76060  0.10300  0.29490  Biso   1.000  C
  H17      1.0000 0.26010  0.40130  0.72430  Biso   1.000  H
  H18      1.0000 0.76010  0.90130  0.72430  Biso   1.000  H
  H19      1.0000 0.73990  0.40130  0.77570  Biso   1.000  H
  H20      1.0000 0.23990  0.90130  0.77570  Biso   1.000  H
  H21      1.0000 0.73990  0.59870  0.27570  Biso   1.000  H
  H22      1.0000 0.23990  0.09870  0.27570  Biso   1.000  H
  H23      1.0000 0.26010  0.59870  0.22430  Biso   1.000  H
  H24      1.0000 0.76010  0.09870  0.22430  Biso   1.000  H
  C33      1.0000 0.33080  0.41240  0.86570  Biso   1.000  C
  C34      1.0000 0.83080  0.91240  0.86570  Biso   1.000  C
  C35      1.0000 0.66920  0.41240  0.63430  Biso   1.000  C
  C36      1.0000 0.16920  0.91240  0.63430  Biso   1.000  C
  C37      1.0000 0.66920  0.58760  0.13430  Biso   1.000  C
  C38      1.0000 0.16920  0.08760  0.13430  Biso   1.000  C
  C39      1.0000 0.33080  0.58760  0.36570  Biso   1.000  C
  C40      1.0000 0.83080  0.08760  0.36570  Biso   1.000  C
  H25      1.0000 0.37860  0.42810  0.84220  Biso   1.000  H
  H26      1.0000 0.87860  0.92810  0.84220  Biso   1.000  H
  H27      1.0000 0.62140  0.42810  0.65780  Biso   1.000  H
  H28      1.0000 0.12140  0.92810  0.65780  Biso   1.000  H
  H29      1.0000 0.62140  0.57190  0.15780  Biso   1.000  H
  H30      1.0000 0.12140  0.07190  0.15780  Biso   1.000  H
  H31      1.0000 0.37860  0.57190  0.34220  Biso   1.000  H
  H32      1.0000 0.87860  0.07190  0.34220  Biso   1.000  H
  C41      1.0000 0.26523  0.38740  0.11030  Biso   1.000  C
  C42      1.0000 0.76523  0.88740  0.11030  Biso   1.000  C
  C43      1.0000 0.73477  0.38740  0.38970  Biso   1.000  C
  C44      1.0000 0.23477  0.88740  0.38970  Biso   1.000  C
  C45      1.0000 0.73477  0.61260  0.88970  Biso   1.000  C
  C46      1.0000 0.23477  0.11260  0.88970  Biso   1.000  C
  C47      1.0000 0.26523  0.61260  0.61030  Biso   1.000  C
  C48      1.0000 0.76523  0.11260  0.61030  Biso   1.000  C
  C49      1.0000 0.18454  0.38360  0.13870  Biso   1.000  C
  C50      1.0000 0.68454  0.88360  0.13870  Biso   1.000  C
  C51      1.0000 0.81546  0.38360  0.36130  Biso   1.000  C
  C52      1.0000 0.31546  0.88360  0.36130  Biso   1.000  C
  C53      1.0000 0.81546  0.61640  0.86130  Biso   1.000  C
  C54      1.0000 0.31546  0.11640  0.86130  Biso   1.000  C
  C55      1.0000 0.18454  0.61640  0.63870  Biso   1.000  C
  C56      1.0000 0.68454  0.11640  0.63870  Biso   1.000  C
  H33      1.0000 0.19200  0.38320  0.21290  Biso   1.000  H
  H34      1.0000 0.69200  0.88320  0.21290  Biso   1.000  H
  H35      1.0000 0.80800  0.38320  0.28710  Biso   1.000  H
  H36      1.0000 0.30800  0.88320  0.28710  Biso   1.000  H
  H37      1.0000 0.80800  0.61680  0.78710  Biso   1.000  H
  H38      1.0000 0.30800  0.11680  0.78710  Biso   1.000  H
  H39      1.0000 0.19200  0.61680  0.71290  Biso   1.000  H
  H40      1.0000 0.69200  0.11680  0.71290  Biso   1.000  H
  H41      1.0000 0.15600  0.32070  0.11070  Biso   1.000  H
  H42      1.0000 0.65600  0.82070  0.11070  Biso   1.000  H
  H43      1.0000 0.84400  0.32070  0.38930  Biso   1.000  H
  H44      1.0000 0.34400  0.82070  0.38930  Biso   1.000  H
  H45      1.0000 0.84400  0.67930  0.88930  Biso   1.000  H
  H46      1.0000 0.34400  0.17930  0.88930  Biso   1.000  H
  H47      1.0000 0.15600  0.67930  0.61070  Biso   1.000  H
  H48      1.0000 0.65600  0.17930  0.61070  Biso   1.000  H
  H49      1.0000 0.15280  0.44440  0.11110  Biso   1.000  H
  H50      1.0000 0.65280  0.94440  0.11110  Biso   1.000  H
  H51      1.0000 0.84720  0.44440  0.38890  Biso   1.000  H
  H52      1.0000 0.34720  0.94440  0.38890  Biso   1.000  H
  H53      1.0000 0.84720  0.55560  0.88890  Biso   1.000  H
  H54      1.0000 0.34720  0.05560  0.88890  Biso   1.000  H
  H55      1.0000 0.15280  0.55560  0.61110  Biso   1.000  H
  H56      1.0000 0.65280  0.05560  0.61110  Biso   1.000  H
  C57      1.0000 0.45770  0.39024  0.25860  Biso   1.000  C
  C58      1.0000 0.95770  0.89024  0.25860  Biso   1.000  C
  C59      1.0000 0.54230  0.39024  0.24140  Biso   1.000  C
  C60      1.0000 0.04230  0.89024  0.24140  Biso   1.000  C
  C61      1.0000 0.54230  0.60976  0.74140  Biso   1.000  C
  C62      1.0000 0.04230  0.10976  0.74140  Biso   1.000  C
  C63      1.0000 0.45770  0.60976  0.75860  Biso   1.000  C
  C64      1.0000 0.95770  0.10976  0.75860  Biso   1.000  C
  C65      1.0000 0.46888  0.32420  0.57740  Biso   1.000  C
  C66      1.0000 0.96888  0.82420  0.57740  Biso   1.000  C
  C67      1.0000 0.53112  0.32420  0.92260  Biso   1.000  C
  C68      1.0000 0.03112  0.82420  0.92260  Biso   1.000  C
  C69      1.0000 0.53112  0.67580  0.42260  Biso   1.000  C
  C70      1.0000 0.03112  0.17580  0.42260  Biso   1.000  C
  C71      1.0000 0.46888  0.67580  0.07740  Biso   1.000  C
  C72      1.0000 0.96888  0.17580  0.07740  Biso   1.000  C
  C73      1.0000 0.40930  0.32170  0.64490  Biso   1.000  C
  C74      1.0000 0.90930  0.82170  0.64490  Biso   1.000  C
  C75      1.0000 0.59070  0.32170  0.85510  Biso   1.000  C
  C76      1.0000 0.09070  0.82170  0.85510  Biso   1.000  C
  C77      1.0000 0.59070  0.67830  0.35510  Biso   1.000  C
  C78      1.0000 0.09070  0.17830  0.35510  Biso   1.000  C
  C79      1.0000 0.40930  0.67830  0.14490  Biso   1.000  C
  C80      1.0000 0.90930  0.17830  0.14490  Biso   1.000  C
  H57      1.0000 0.39690  0.24970  0.65850  Biso   1.000  H
  H58      1.0000 0.89690  0.74970  0.65850  Biso   1.000  H
  H59      1.0000 0.60310  0.24970  0.84150  Biso   1.000  H
  H60      1.0000 0.10310  0.74970  0.84150  Biso   1.000  H
  H61      1.0000 0.60310  0.75030  0.34150  Biso   1.000  H
  H62      1.0000 0.10310  0.25030  0.34150  Biso   1.000  H
  H63      1.0000 0.39690  0.75030  0.15850  Biso   1.000  H
  H64      1.0000 0.89690  0.25030  0.15850  Biso   1.000  H
  H65      1.0000 0.35970  0.35710  0.61130  Biso   1.000  H
  H66      1.0000 0.85970  0.85710  0.61130  Biso   1.000  H
  H67      1.0000 0.64030  0.35710  0.88870  Biso   1.000  H
  H68      1.0000 0.14030  0.85710  0.88870  Biso   1.000  H
  H69      1.0000 0.64030  0.64290  0.38870  Biso   1.000  H
  H70      1.0000 0.14030  0.14290  0.38870  Biso   1.000  H
  H71      1.0000 0.35970  0.64290  0.11130  Biso   1.000  H
  H72      1.0000 0.85970  0.14290  0.11130  Biso   1.000  H
  H73      1.0000 0.43230  0.35660  0.70910  Biso   1.000  H
  H74      1.0000 0.93230  0.85660  0.70910  Biso   1.000  H
  H75      1.0000 0.56770  0.35660  0.79090  Biso   1.000  H
  H76      1.0000 0.06770  0.85660  0.79090  Biso   1.000  H
  H77      1.0000 0.56770  0.64340  0.29090  Biso   1.000  H
  H78      1.0000 0.06770  0.14340  0.29090  Biso   1.000  H
  H79      1.0000 0.43230  0.64340  0.20910  Biso   1.000  H
  H80      1.0000 0.93230  0.14340  0.20910  Biso   1.000  H
  O25      1.0000 0.30652  0.11316  0.49290  Biso   1.000  O
  O26      1.0000 0.80652  0.61316  0.49290  Biso   1.000  O
  O27      1.0000 0.69348  0.11316  0.00710  Biso   1.000  O
  O28      1.0000 0.19348  0.61316  0.00710  Biso   1.000  O
  O29      1.0000 0.69348  0.88684  0.50710  Biso   1.000  O
  O30      1.0000 0.19348  0.38684  0.50710  Biso   1.000  O
  O31      1.0000 0.30652  0.88684  0.99290  Biso   1.000  O
  O32      1.0000 0.80652  0.38684  0.99290  Biso   1.000  O
  H81      1.0000 0.35180  0.09420  0.53860  Biso   1.000  H
  H82      1.0000 0.85180  0.59420  0.53860  Biso   1.000  H
  H83      1.0000 0.64820  0.09420  0.96140  Biso   1.000  H
  H84      1.0000 0.14820  0.59420  0.96140  Biso   1.000  H
  H85      1.0000 0.64820  0.90580  0.46140  Biso   1.000  H
  H86      1.0000 0.14820  0.40580  0.46140  Biso   1.000  H
  H87      1.0000 0.35180  0.90580  0.03860  Biso   1.000  H
  H88      1.0000 0.85180  0.40580  0.03860  Biso   1.000  H
  H89      1.0000 0.32830  0.15380  0.44850  Biso   1.000  H
  H90      1.0000 0.82830  0.65380  0.44850  Biso   1.000  H
  H91      1.0000 0.67170  0.15380  0.05150  Biso   1.000  H
  H92      1.0000 0.17170  0.65380  0.05150  Biso   1.000  H
  H93      1.0000 0.67170  0.84620  0.55150  Biso   1.000  H
  H94      1.0000 0.17170  0.34620  0.55150  Biso   1.000  H
  H95      1.0000 0.32830  0.84620  0.94850  Biso   1.000  H
  H96      1.0000 0.82830  0.34620  0.94850  Biso   1.000  H
  O33      1.0000 0.20475  0.20090  0.60420  Biso   1.000  O
  O34      1.0000 0.70475  0.70090  0.60420  Biso   1.000  O
  O35      1.0000 0.79525  0.20090  0.89580  Biso   1.000  O
  O36      1.0000 0.29525  0.70090  0.89580  Biso   1.000  O
  O37      1.0000 0.79525  0.79910  0.39580  Biso   1.000  O
  O38      1.0000 0.29525  0.29910  0.39580  Biso   1.000  O
  O39      1.0000 0.20475  0.79910  0.10420  Biso   1.000  O
  O40      1.0000 0.70475  0.29910  0.10420  Biso   1.000  O
  H97      1.0000 0.17940  0.15940  0.64750  Biso   1.000  H
  H98      1.0000 0.67940  0.65940  0.64750  Biso   1.000  H
  H99      1.0000 0.82060  0.15940  0.85250  Biso   1.000  H
  H100     1.0000 0.32060  0.65940  0.85250  Biso   1.000  H
  H101     1.0000 0.82060  0.84060  0.35250  Biso   1.000  H
  H102     1.0000 0.32060  0.34060  0.35250  Biso   1.000  H
  H103     1.0000 0.17940  0.84060  0.14750  Biso   1.000  H
  H104     1.0000 0.67940  0.34060  0.14750  Biso   1.000  H
  H105     1.0000 0.23110  0.15280  0.58370  Biso   1.000  H
  H106     1.0000 0.73110  0.65280  0.58370  Biso   1.000  H
  H107     1.0000 0.76890  0.15280  0.91630  Biso   1.000  H
  H108     1.0000 0.26890  0.65280  0.91630  Biso   1.000  H
  H109     1.0000 0.76890  0.84720  0.41630  Biso   1.000  H
  H110     1.0000 0.26890  0.34720  0.41630  Biso   1.000  H
  H111     1.0000 0.23110  0.84720  0.08370  Biso   1.000  H
  H112     1.0000 0.73110  0.34720  0.08370  Biso   1.000  H
  O41      1.0000 0.48778  0.14290  0.35230  Biso   1.000  O
  O42      1.0000 0.98778  0.64290  0.35230  Biso   1.000  O
  O43      1.0000 0.51222  0.14290  0.14770  Biso   1.000  O
  O44      1.0000 0.01222  0.64290  0.14770  Biso   1.000  O
  O45      1.0000 0.51222  0.85710  0.64770  Biso   1.000  O
  O46      1.0000 0.01222  0.35710  0.64770  Biso   1.000  O
  O47      1.0000 0.48778  0.85710  0.85230  Biso   1.000  O
  O48      1.0000 0.98778  0.35710  0.85230  Biso   1.000  O
  H113     1.0000 0.48820  0.19090  0.40030  Biso   1.000  H
  H114     1.0000 0.98820  0.69090  0.40030  Biso   1.000  H
  H115     1.0000 0.51180  0.19090  0.09970  Biso   1.000  H
  H116     1.0000 0.01180  0.69090  0.09970  Biso   1.000  H
  H117     1.0000 0.51180  0.80910  0.59970  Biso   1.000  H
  H118     1.0000 0.01180  0.30910  0.59970  Biso   1.000  H
  H119     1.0000 0.48820  0.80910  0.90030  Biso   1.000  H
  H120     1.0000 0.98820  0.30910  0.90030  Biso   1.000  H
  H121     1.0000 0.50870  0.15540  0.31700  Biso   1.000  H
  H122     1.0000 0.00870  0.65540  0.31700  Biso   1.000  H
  H123     1.0000 0.49130  0.15540  0.18300  Biso   1.000  H
  H124     1.0000 0.99130  0.65540  0.18300  Biso   1.000  H
  H125     1.0000 0.49130  0.84460  0.68300  Biso   1.000  H
  H126     1.0000 0.99130  0.34460  0.68300  Biso   1.000  H
  H127     1.0000 0.50870  0.84460  0.81700  Biso   1.000  H
  H128     1.0000 0.00870  0.34460  0.81700  Biso   1.000  H
  O49      1.0000 0.46800  0.06300  0.64360  Biso   1.000  O
  O50      1.0000 0.96800  0.56300  0.64360  Biso   1.000  O
  O51      1.0000 0.53200  0.06300  0.85640  Biso   1.000  O
  O52      1.0000 0.03200  0.56300  0.85640  Biso   1.000  O
  O53      1.0000 0.53200  0.93700  0.35640  Biso   1.000  O
  O54      1.0000 0.03200  0.43700  0.35640  Biso   1.000  O
  O55      1.0000 0.46800  0.93700  0.14360  Biso   1.000  O
  O56      1.0000 0.96800  0.43700  0.14360  Biso   1.000  O
  H129     1.0000 0.49520  0.01820  0.61850  Biso   1.000  H
  H130     1.0000 0.99520  0.51820  0.61850  Biso   1.000  H
  H131     1.0000 0.50480  0.01820  0.88150  Biso   1.000  H
  H132     1.0000 0.00480  0.51820  0.88150  Biso   1.000  H
  H133     1.0000 0.50480  0.98180  0.38150  Biso   1.000  H
  H134     1.0000 0.00480  0.48180  0.38150  Biso   1.000  H
  H135     1.0000 0.49520  0.98180  0.11850  Biso   1.000  H
  H136     1.0000 0.99520  0.48180  0.11850  Biso   1.000  H
  H137     1.0000 0.48820  0.11190  0.60620  Biso   1.000  H
  H138     1.0000 0.98820  0.61190  0.60620  Biso   1.000  H
  H139     1.0000 0.51180  0.11190  0.89380  Biso   1.000  H
  H140     1.0000 0.01180  0.61190  0.89380  Biso   1.000  H
  H141     1.0000 0.51180  0.88810  0.39380  Biso   1.000  H
  H142     1.0000 0.01180  0.38810  0.39380  Biso   1.000  H
  H143     1.0000 0.48820  0.88810  0.10620  Biso   1.000  H
  H144     1.0000 0.98820  0.38810  0.10620  Biso   1.000  H
