data_image0
_cell_length_a       5.1398
_cell_length_b       18.853
_cell_length_c       20.981
_cell_angle_alpha    90
_cell_angle_beta     90.066
_cell_angle_gamma    90

_symmetry_space_group_name_H-M    "P 1"
_symmetry_int_tables_number       1

loop_
  _symmetry_equiv_pos_as_xyz
  'x, y, z'

loop_
  _atom_site_label
  _atom_site_occupancy
  _atom_site_fract_x
  _atom_site_fract_y
  _atom_site_fract_z
  _atom_site_thermal_displace_type
  _atom_site_B_iso_or_equiv
  _atom_site_type_symbol
  Cu1      1.0000 0.50000  0.04602  0.25000  Biso   1.000  Cu
  Cu2      1.0000 0.00000  0.54602  0.25000  Biso   1.000  Cu
  Cu3      1.0000 0.50000  0.95398  0.75000  Biso   1.000  Cu
  Cu4      1.0000 0.00000  0.45398  0.75000  Biso   1.000  Cu
  N1       1.0000 0.31110  0.96580  0.20680  Biso   1.000  N
  N2       1.0000 0.81110  0.46580  0.20680  Biso   1.000  N
  N3       1.0000 0.68890  0.96580  0.29320  Biso   1.000  N
  N4       1.0000 0.18890  0.46580  0.29320  Biso   1.000  N
  N5       1.0000 0.68890  0.03420  0.79320  Biso   1.000  N
  N6       1.0000 0.18890  0.53420  0.79320  Biso   1.000  N
  N7       1.0000 0.31110  0.03420  0.70680  Biso   1.000  N
  N8       1.0000 0.81110  0.53420  0.70680  Biso   1.000  N
  C1       1.0000 0.12420  0.96830  0.16430  Biso   1.000  C
  C2       1.0000 0.62420  0.46830  0.16430  Biso   1.000  C
  C3       1.0000 0.87580  0.96830  0.33570  Biso   1.000  C
  C4       1.0000 0.37580  0.46830  0.33570  Biso   1.000  C
  C5       1.0000 0.87580  0.03170  0.83570  Biso   1.000  C
  C6       1.0000 0.37580  0.53170  0.83570  Biso   1.000  C
  C7       1.0000 0.12420  0.03170  0.66430  Biso   1.000  C
  C8       1.0000 0.62420  0.53170  0.66430  Biso   1.000  C
  H1       1.0000 0.06230  0.01200  0.15040  Biso   1.000  H
  H2       1.0000 0.56230  0.51200  0.15040  Biso   1.000  H
  H3       1.0000 0.93770  0.01200  0.34960  Biso   1.000  H
  H4       1.0000 0.43770  0.51200  0.34960  Biso   1.000  H
  H5       1.0000 0.93770  0.98800  0.84960  Biso   1.000  H
  H6       1.0000 0.43770  0.48800  0.84960  Biso   1.000  H
  H7       1.0000 0.06230  0.98800  0.65040  Biso   1.000  H
  H8       1.0000 0.56230  0.48800  0.65040  Biso   1.000  H
  C9       1.0000 0.01650  0.90560  0.13940  Biso   1.000  C
  C10      1.0000 0.51650  0.40560  0.13940  Biso   1.000  C
  C11      1.0000 0.98350  0.90560  0.36060  Biso   1.000  C
  C12      1.0000 0.48350  0.40560  0.36060  Biso   1.000  C
  C13      1.0000 0.98350  0.09440  0.86060  Biso   1.000  C
  C14      1.0000 0.48350  0.59440  0.86060  Biso   1.000  C
  C15      1.0000 0.01650  0.09440  0.63940  Biso   1.000  C
  C16      1.0000 0.51650  0.59440  0.63940  Biso   1.000  C
  H9       1.0000 0.88550  0.90900  0.10900  Biso   1.000  H
  H10      1.0000 0.38550  0.40900  0.10900  Biso   1.000  H
  H11      1.0000 0.11450  0.90900  0.39100  Biso   1.000  H
  H12      1.0000 0.61450  0.40900  0.39100  Biso   1.000  H
  H13      1.0000 0.11450  0.09100  0.89100  Biso   1.000  H
  H14      1.0000 0.61450  0.59100  0.89100  Biso   1.000  H
  H15      1.0000 0.88550  0.09100  0.60900  Biso   1.000  H
  H16      1.0000 0.38550  0.59100  0.60900  Biso   1.000  H
  C17      1.0000 0.09500  0.84100  0.15800  Biso   1.000  C
  C18      1.0000 0.59500  0.34100  0.15800  Biso   1.000  C
  C19      1.0000 0.90500  0.84100  0.34200  Biso   1.000  C
  C20      1.0000 0.40500  0.34100  0.34200  Biso   1.000  C
  C21      1.0000 0.90500  0.15900  0.84200  Biso   1.000  C
  C22      1.0000 0.40500  0.65900  0.84200  Biso   1.000  C
  C23      1.0000 0.09500  0.15900  0.65800  Biso   1.000  C
  C24      1.0000 0.59500  0.65900  0.65800  Biso   1.000  C
  H17      1.0000 0.01950  0.80030  0.14110  Biso   1.000  H
  H18      1.0000 0.51950  0.30030  0.14110  Biso   1.000  H
  H19      1.0000 0.98050  0.80030  0.35890  Biso   1.000  H
  H20      1.0000 0.48050  0.30030  0.35890  Biso   1.000  H
  H21      1.0000 0.98050  0.19970  0.85890  Biso   1.000  H
  H22      1.0000 0.48050  0.69970  0.85890  Biso   1.000  H
  H23      1.0000 0.01950  0.19970  0.64110  Biso   1.000  H
  H24      1.0000 0.51950  0.69970  0.64110  Biso   1.000  H
  C25      1.0000 0.30000  0.83620  0.20440  Biso   1.000  C
  C26      1.0000 0.80000  0.33620  0.20440  Biso   1.000  C
  C27      1.0000 0.70000  0.83620  0.29560  Biso   1.000  C
  C28      1.0000 0.20000  0.33620  0.29560  Biso   1.000  C
  C29      1.0000 0.70000  0.16380  0.79560  Biso   1.000  C
  C30      1.0000 0.20000  0.66380  0.79560  Biso   1.000  C
  C31      1.0000 0.30000  0.16380  0.70440  Biso   1.000  C
  C32      1.0000 0.80000  0.66380  0.70440  Biso   1.000  C
  C33      1.0000 0.40700  0.77170  0.22780  Biso   1.000  C
  C34      1.0000 0.90700  0.27170  0.22780  Biso   1.000  C
  C35      1.0000 0.59300  0.77170  0.27220  Biso   1.000  C
  C36      1.0000 0.09300  0.27170  0.27220  Biso   1.000  C
  C37      1.0000 0.59300  0.22830  0.77220  Biso   1.000  C
  C38      1.0000 0.09300  0.72830  0.77220  Biso   1.000  C
  C39      1.0000 0.40700  0.22830  0.72780  Biso   1.000  C
  C40      1.0000 0.90700  0.72830  0.72780  Biso   1.000  C
  H25      1.0000 0.34680  0.72870  0.21180  Biso   1.000  H
  H26      1.0000 0.84680  0.22870  0.21180  Biso   1.000  H
  H27      1.0000 0.65320  0.72870  0.28820  Biso   1.000  H
  H28      1.0000 0.15320  0.22870  0.28820  Biso   1.000  H
  H29      1.0000 0.65320  0.27130  0.78820  Biso   1.000  H
  H30      1.0000 0.15320  0.77130  0.78820  Biso   1.000  H
  H31      1.0000 0.34680  0.27130  0.71180  Biso   1.000  H
  H32      1.0000 0.84680  0.77130  0.71180  Biso   1.000  H
  C41      1.0000 0.39780  0.90110  0.22650  Biso   1.000  C
  C42      1.0000 0.89780  0.40110  0.22650  Biso   1.000  C
  C43      1.0000 0.60220  0.90110  0.27350  Biso   1.000  C
  C44      1.0000 0.10220  0.40110  0.27350  Biso   1.000  C
  C45      1.0000 0.60220  0.09890  0.77350  Biso   1.000  C
  C46      1.0000 0.10220  0.59890  0.77350  Biso   1.000  C
  C47      1.0000 0.39780  0.09890  0.72650  Biso   1.000  C
  C48      1.0000 0.89780  0.59890  0.72650  Biso   1.000  C
  O1       1.0000 0.30000  0.11420  0.20220  Biso   1.000  O
  O2       1.0000 0.80000  0.61420  0.20220  Biso   1.000  O
  O3       1.0000 0.70000  0.11420  0.29780  Biso   1.000  O
  O4       1.0000 0.20000  0.61420  0.29780  Biso   1.000  O
  O5       1.0000 0.70000  0.88580  0.79780  Biso   1.000  O
  O6       1.0000 0.20000  0.38580  0.79780  Biso   1.000  O
  O7       1.0000 0.30000  0.88580  0.70220  Biso   1.000  O
  O8       1.0000 0.80000  0.38580  0.70220  Biso   1.000  O
  O9       1.0000 0.65500  0.07900  0.13680  Biso   1.000  O
  O10      1.0000 0.15500  0.57900  0.13680  Biso   1.000  O
  O11      1.0000 0.34500  0.07900  0.36320  Biso   1.000  O
  O12      1.0000 0.84500  0.57900  0.36320  Biso   1.000  O
  O13      1.0000 0.34500  0.92100  0.86320  Biso   1.000  O
  O14      1.0000 0.84500  0.42100  0.86320  Biso   1.000  O
  O15      1.0000 0.65500  0.92100  0.63680  Biso   1.000  O
  O16      1.0000 0.15500  0.42100  0.63680  Biso   1.000  O
  C49      1.0000 0.42100  0.12000  0.15360  Biso   1.000  C
  C50      1.0000 0.92100  0.62000  0.15360  Biso   1.000  C
  C51      1.0000 0.57900  0.12000  0.34640  Biso   1.000  C
  C52      1.0000 0.07900  0.62000  0.34640  Biso   1.000  C
  C53      1.0000 0.57900  0.88000  0.84640  Biso   1.000  C
  C54      1.0000 0.07900  0.38000  0.84640  Biso   1.000  C
  C55      1.0000 0.42100  0.88000  0.65360  Biso   1.000  C
  C56      1.0000 0.92100  0.38000  0.65360  Biso   1.000  C
  C57      1.0000 0.38700  0.16450  0.08480  Biso   1.000  C
  C58      1.0000 0.88700  0.66450  0.08480  Biso   1.000  C
  C59      1.0000 0.61300  0.16450  0.41520  Biso   1.000  C
  C60      1.0000 0.11300  0.66450  0.41520  Biso   1.000  C
  C61      1.0000 0.61300  0.83550  0.91520  Biso   1.000  C
  C62      1.0000 0.11300  0.33550  0.91520  Biso   1.000  C
  C63      1.0000 0.38700  0.83550  0.58480  Biso   1.000  C
  C64      1.0000 0.88700  0.33550  0.58480  Biso   1.000  C
  C65      1.0000 0.16530  0.20510  0.09570  Biso   1.000  C
  C66      1.0000 0.66530  0.70510  0.09570  Biso   1.000  C
  C67      1.0000 0.83470  0.20510  0.40430  Biso   1.000  C
  C68      1.0000 0.33470  0.70510  0.40430  Biso   1.000  C
  C69      1.0000 0.83470  0.79490  0.90430  Biso   1.000  C
  C70      1.0000 0.33470  0.29490  0.90430  Biso   1.000  C
  C71      1.0000 0.16530  0.79490  0.59570  Biso   1.000  C
  C72      1.0000 0.66530  0.29490  0.59570  Biso   1.000  C
  H33      1.0000 0.07150  0.20030  0.13510  Biso   1.000  H
  H34      1.0000 0.57150  0.70030  0.13510  Biso   1.000  H
  H35      1.0000 0.92850  0.20030  0.36490  Biso   1.000  H
  H36      1.0000 0.42850  0.70030  0.36490  Biso   1.000  H
  H37      1.0000 0.92850  0.79970  0.86490  Biso   1.000  H
  H38      1.0000 0.42850  0.29970  0.86490  Biso   1.000  H
  H39      1.0000 0.07150  0.79970  0.63510  Biso   1.000  H
  H40      1.0000 0.57150  0.29970  0.63510  Biso   1.000  H
  C73      1.0000 0.07950  0.25270  0.04960  Biso   1.000  C
  C74      1.0000 0.57950  0.75270  0.04960  Biso   1.000  C
  C75      1.0000 0.92050  0.25270  0.45040  Biso   1.000  C
  C76      1.0000 0.42050  0.75270  0.45040  Biso   1.000  C
  C77      1.0000 0.92050  0.74730  0.95040  Biso   1.000  C
  C78      1.0000 0.42050  0.24730  0.95040  Biso   1.000  C
  C79      1.0000 0.07950  0.74730  0.54960  Biso   1.000  C
  C80      1.0000 0.57950  0.24730  0.54960  Biso   1.000  C
  H41      1.0000 0.92660  0.28070  0.05710  Biso   1.000  H
  H42      1.0000 0.42660  0.78070  0.05710  Biso   1.000  H
  H43      1.0000 0.07340  0.28070  0.44290  Biso   1.000  H
  H44      1.0000 0.57340  0.78070  0.44290  Biso   1.000  H
  H45      1.0000 0.07340  0.71930  0.94290  Biso   1.000  H
  H46      1.0000 0.57340  0.21930  0.94290  Biso   1.000  H
  H47      1.0000 0.92660  0.71930  0.55710  Biso   1.000  H
  H48      1.0000 0.42660  0.21930  0.55710  Biso   1.000  H
  C81      1.0000 0.21500  0.25960  0.99270  Biso   1.000  C
  C82      1.0000 0.71500  0.75960  0.99270  Biso   1.000  C
  C83      1.0000 0.78500  0.25960  0.50730  Biso   1.000  C
  C84      1.0000 0.28500  0.75960  0.50730  Biso   1.000  C
  C85      1.0000 0.78500  0.74040  0.00730  Biso   1.000  C
  C86      1.0000 0.28500  0.24040  0.00730  Biso   1.000  C
  C87      1.0000 0.21500  0.74040  0.49270  Biso   1.000  C
  C88      1.0000 0.71500  0.24040  0.49270  Biso   1.000  C
  C89      1.0000 0.06400  0.28100  0.01820  Biso   1.000  C
  C90      1.0000 0.56400  0.78100  0.01820  Biso   1.000  C
  C91      1.0000 0.93600  0.28100  0.48180  Biso   1.000  C
  C92      1.0000 0.43600  0.78100  0.48180  Biso   1.000  C
  C93      1.0000 0.93600  0.71900  0.98180  Biso   1.000  C
  C94      1.0000 0.43600  0.21900  0.98180  Biso   1.000  C
  C95      1.0000 0.06400  0.71900  0.51820  Biso   1.000  C
  C96      1.0000 0.56400  0.21900  0.51820  Biso   1.000  C
  H49      1.0000 0.96970  0.27610  0.05760  Biso   1.000  H
  H50      1.0000 0.46970  0.77610  0.05760  Biso   1.000  H
  H51      1.0000 0.03030  0.27610  0.44240  Biso   1.000  H
  H52      1.0000 0.53030  0.77610  0.44240  Biso   1.000  H
  H53      1.0000 0.03030  0.72390  0.94240  Biso   1.000  H
  H54      1.0000 0.53030  0.22390  0.94240  Biso   1.000  H
  H55      1.0000 0.96970  0.72390  0.55760  Biso   1.000  H
  H56      1.0000 0.46970  0.22390  0.55760  Biso   1.000  H
  C97      1.0000 0.52220  0.17150  0.02790  Biso   1.000  C
  C98      1.0000 0.02220  0.67150  0.02790  Biso   1.000  C
  C99      1.0000 0.47780  0.17150  0.47210  Biso   1.000  C
  C100     1.0000 0.97780  0.67150  0.47210  Biso   1.000  C
  C101     1.0000 0.47780  0.82850  0.97210  Biso   1.000  C
  C102     1.0000 0.97780  0.32850  0.97210  Biso   1.000  C
  C103     1.0000 0.52220  0.82850  0.52790  Biso   1.000  C
  C104     1.0000 0.02220  0.32850  0.52790  Biso   1.000  C
  H57      1.0000 0.67520  0.14350  0.02030  Biso   1.000  H
  H58      1.0000 0.17520  0.64350  0.02030  Biso   1.000  H
  H59      1.0000 0.32480  0.14350  0.47970  Biso   1.000  H
  H60      1.0000 0.82480  0.64350  0.47970  Biso   1.000  H
  H61      1.0000 0.32480  0.85650  0.97970  Biso   1.000  H
  H62      1.0000 0.82480  0.35650  0.97970  Biso   1.000  H
  H63      1.0000 0.67520  0.85650  0.52030  Biso   1.000  H
  H64      1.0000 0.17520  0.35650  0.52030  Biso   1.000  H
  C105     1.0000 0.40800  0.18660  0.05290  Biso   1.000  C
  C106     1.0000 0.90800  0.68660  0.05290  Biso   1.000  C
  C107     1.0000 0.59200  0.18660  0.44710  Biso   1.000  C
  C108     1.0000 0.09200  0.68660  0.44710  Biso   1.000  C
  C109     1.0000 0.59200  0.81340  0.94710  Biso   1.000  C
  C110     1.0000 0.09200  0.31340  0.94710  Biso   1.000  C
  C111     1.0000 0.40800  0.81340  0.55290  Biso   1.000  C
  C112     1.0000 0.90800  0.31340  0.55290  Biso   1.000  C
  H65      1.0000 0.57640  0.16870  0.04120  Biso   1.000  H
  H66      1.0000 0.07640  0.66870  0.04120  Biso   1.000  H
  H67      1.0000 0.42360  0.16870  0.45880  Biso   1.000  H
  H68      1.0000 0.92360  0.66870  0.45880  Biso   1.000  H
  H69      1.0000 0.42360  0.83130  0.95880  Biso   1.000  H
  H70      1.0000 0.92360  0.33130  0.95880  Biso   1.000  H
  H71      1.0000 0.57640  0.83130  0.54120  Biso   1.000  H
  H72      1.0000 0.07640  0.33130  0.54120  Biso   1.000  H
  C113     1.0000 0.29800  0.17110  0.10600  Biso   1.000  C
  C114     1.0000 0.79800  0.67110  0.10600  Biso   1.000  C
  C115     1.0000 0.70200  0.17110  0.39400  Biso   1.000  C
  C116     1.0000 0.20200  0.67110  0.39400  Biso   1.000  C
  C117     1.0000 0.70200  0.82890  0.89400  Biso   1.000  C
  C118     1.0000 0.20200  0.32890  0.89400  Biso   1.000  C
  C119     1.0000 0.29800  0.82890  0.60600  Biso   1.000  C
  C120     1.0000 0.79800  0.32890  0.60600  Biso   1.000  C
  H73      1.0000 0.12860  0.18560  0.12020  Biso   1.000  H
  H74      1.0000 0.62860  0.68560  0.12020  Biso   1.000  H
  H75      1.0000 0.87140  0.18560  0.37980  Biso   1.000  H
  H76      1.0000 0.37140  0.68560  0.37980  Biso   1.000  H
  H77      1.0000 0.87140  0.81440  0.87980  Biso   1.000  H
  H78      1.0000 0.37140  0.31440  0.87980  Biso   1.000  H
  H79      1.0000 0.12860  0.81440  0.62020  Biso   1.000  H
  H80      1.0000 0.62860  0.31440  0.62020  Biso   1.000  H
  C121     1.0000 0.49600  0.11490  0.13820  Biso   1.000  C
  C122     1.0000 0.99600  0.61490  0.13820  Biso   1.000  C
  C123     1.0000 0.50400  0.11490  0.36180  Biso   1.000  C
  C124     1.0000 0.00400  0.61490  0.36180  Biso   1.000  C
  C125     1.0000 0.50400  0.88510  0.86180  Biso   1.000  C
  C126     1.0000 0.00400  0.38510  0.86180  Biso   1.000  C
  C127     1.0000 0.49600  0.88510  0.63820  Biso   1.000  C
  C128     1.0000 0.99600  0.38510  0.63820  Biso   1.000  C
  O17      1.0000 0.12900  0.38260  0.80960  Biso   1.000  O
  O18      1.0000 0.62900  0.88260  0.80960  Biso   1.000  O
  O19      1.0000 0.87100  0.38260  0.69040  Biso   1.000  O
  O20      1.0000 0.37100  0.88260  0.69040  Biso   1.000  O
  O21      1.0000 0.87100  0.61740  0.19040  Biso   1.000  O
  O22      1.0000 0.37100  0.11740  0.19040  Biso   1.000  O
  O23      1.0000 0.12900  0.61740  0.30960  Biso   1.000  O
  O24      1.0000 0.62900  0.11740  0.30960  Biso   1.000  O
  O25      1.0000 0.84000  0.41570  0.86600  Biso   1.000  O
  O26      1.0000 0.34000  0.91570  0.86600  Biso   1.000  O
  O27      1.0000 0.16000  0.41570  0.63400  Biso   1.000  O
  O28      1.0000 0.66000  0.91570  0.63400  Biso   1.000  O
  O29      1.0000 0.16000  0.58430  0.13400  Biso   1.000  O
  O30      1.0000 0.66000  0.08430  0.13400  Biso   1.000  O
  O31      1.0000 0.84000  0.58430  0.36600  Biso   1.000  O
  O32      1.0000 0.34000  0.08430  0.36600  Biso   1.000  O
  O33      1.0000 0.75600  0.00870  0.02090  Biso   1.000  O
  O34      1.0000 0.25600  0.50870  0.02090  Biso   1.000  O
  O35      1.0000 0.24400  0.00870  0.47910  Biso   1.000  O
  O36      1.0000 0.74400  0.50870  0.47910  Biso   1.000  O
  O37      1.0000 0.24400  0.99130  0.97910  Biso   1.000  O
  O38      1.0000 0.74400  0.49130  0.97910  Biso   1.000  O
  O39      1.0000 0.75600  0.99130  0.52090  Biso   1.000  O
  O40      1.0000 0.25600  0.49130  0.52090  Biso   1.000  O
  H81      1.0000 0.79050  0.05030  0.02610  Biso   1.000  H
  H82      1.0000 0.29050  0.55030  0.02610  Biso   1.000  H
  H83      1.0000 0.20950  0.05030  0.47390  Biso   1.000  H
  H84      1.0000 0.70950  0.55030  0.47390  Biso   1.000  H
  H85      1.0000 0.20950  0.94970  0.97390  Biso   1.000  H
  H86      1.0000 0.70950  0.44970  0.97390  Biso   1.000  H
  H87      1.0000 0.79050  0.94970  0.52610  Biso   1.000  H
  H88      1.0000 0.29050  0.44970  0.52610  Biso   1.000  H
  H89      1.0000 0.68440  0.98130  0.04600  Biso   1.000  H
  H90      1.0000 0.18440  0.48130  0.04600  Biso   1.000  H
  H91      1.0000 0.31560  0.98130  0.45400  Biso   1.000  H
  H92      1.0000 0.81560  0.48130  0.45400  Biso   1.000  H
  H93      1.0000 0.31560  0.01870  0.95400  Biso   1.000  H
  H94      1.0000 0.81560  0.51870  0.95400  Biso   1.000  H
  H95      1.0000 0.68440  0.01870  0.54600  Biso   1.000  H
  H96      1.0000 0.18440  0.51870  0.54600  Biso   1.000  H
