data_image0
_cell_length_a       5.9865
_cell_length_b       23.4129
_cell_length_c       21.7231
_cell_angle_alpha    90
_cell_angle_beta     91.934
_cell_angle_gamma    90

_symmetry_space_group_name_H-M    "P 1"
_symmetry_int_tables_number       1

loop_
  _symmetry_equiv_pos_as_xyz
  'x, y, z'

loop_
  _atom_site_label
  _atom_site_occupancy
  _atom_site_fract_x
  _atom_site_fract_y
  _atom_site_fract_z
  _atom_site_thermal_displace_type
  _atom_site_B_iso_or_equiv
  _atom_site_type_symbol
  C1       1.0000 0.23780  0.14190  0.19260  Biso   1.000  C
  C2       1.0000 0.76220  0.64190  0.30740  Biso   1.000  C
  C3       1.0000 0.76220  0.85810  0.80740  Biso   1.000  C
  C4       1.0000 0.23780  0.35810  0.69260  Biso   1.000  C
  C5       1.0000 0.23830  0.11850  0.25210  Biso   1.000  C
  C6       1.0000 0.76170  0.61850  0.24790  Biso   1.000  C
  C7       1.0000 0.76170  0.88150  0.74790  Biso   1.000  C
  C8       1.0000 0.23830  0.38150  0.75210  Biso   1.000  C
  H1       1.0000 0.23730  0.14250  0.28740  Biso   1.000  H
  H2       1.0000 0.76270  0.64250  0.21260  Biso   1.000  H
  H3       1.0000 0.76270  0.85750  0.71260  Biso   1.000  H
  H4       1.0000 0.23730  0.35750  0.78740  Biso   1.000  H
  C9       1.0000 0.24010  0.05880  0.25830  Biso   1.000  C
  C10      1.0000 0.75990  0.55880  0.24170  Biso   1.000  C
  C11      1.0000 0.75990  0.94120  0.74170  Biso   1.000  C
  C12      1.0000 0.24010  0.44120  0.75830  Biso   1.000  C
  H5       1.0000 0.24420  0.04180  0.29800  Biso   1.000  H
  H6       1.0000 0.75580  0.54180  0.20200  Biso   1.000  H
  H7       1.0000 0.75580  0.95820  0.70200  Biso   1.000  H
  H8       1.0000 0.24420  0.45820  0.79800  Biso   1.000  H
  C13      1.0000 0.23610  0.02510  0.20650  Biso   1.000  C
  C14      1.0000 0.76390  0.52510  0.29350  Biso   1.000  C
  C15      1.0000 0.76390  0.97490  0.79350  Biso   1.000  C
  C16      1.0000 0.23610  0.47490  0.70650  Biso   1.000  C
  C17      1.0000 0.22740  0.04810  0.14730  Biso   1.000  C
  C18      1.0000 0.77260  0.54810  0.35270  Biso   1.000  C
  C19      1.0000 0.77260  0.95190  0.85270  Biso   1.000  C
  C20      1.0000 0.22740  0.45190  0.64730  Biso   1.000  C
  H9       1.0000 0.22160  0.02360  0.11240  Biso   1.000  H
  H10      1.0000 0.77840  0.52360  0.38760  Biso   1.000  H
  H11      1.0000 0.77840  0.97640  0.88760  Biso   1.000  H
  H12      1.0000 0.22160  0.47640  0.61240  Biso   1.000  H
  C21      1.0000 0.22730  0.10630  0.13930  Biso   1.000  C
  C22      1.0000 0.77270  0.60630  0.36070  Biso   1.000  C
  C23      1.0000 0.77270  0.89370  0.86070  Biso   1.000  C
  C24      1.0000 0.22730  0.39370  0.63930  Biso   1.000  C
  H13      1.0000 0.22040  0.12250  0.09920  Biso   1.000  H
  H14      1.0000 0.77960  0.62250  0.40080  Biso   1.000  H
  H15      1.0000 0.77960  0.87750  0.90080  Biso   1.000  H
  H16      1.0000 0.22040  0.37750  0.59920  Biso   1.000  H
  C25      1.0000 0.25480  0.20620  0.18500  Biso   1.000  C
  C26      1.0000 0.74520  0.70620  0.31500  Biso   1.000  C
  C27      1.0000 0.74520  0.79380  0.81500  Biso   1.000  C
  C28      1.0000 0.25480  0.29380  0.68500  Biso   1.000  C
  H17      1.0000 0.17880  0.21710  0.14560  Biso   1.000  H
  H18      1.0000 0.82120  0.71710  0.35440  Biso   1.000  H
  H19      1.0000 0.82120  0.78290  0.85440  Biso   1.000  H
  H20      1.0000 0.17880  0.28290  0.64560  Biso   1.000  H
  H21      1.0000 0.17400  0.22480  0.21860  Biso   1.000  H
  H22      1.0000 0.82600  0.72480  0.28140  Biso   1.000  H
  H23      1.0000 0.82600  0.77520  0.78140  Biso   1.000  H
  H24      1.0000 0.17400  0.27520  0.71860  Biso   1.000  H
  C29      1.0000 0.62000  0.20500  0.13450  Biso   1.000  C
  C30      1.0000 0.38000  0.70500  0.36550  Biso   1.000  C
  C31      1.0000 0.38000  0.79500  0.86550  Biso   1.000  C
  C32      1.0000 0.62000  0.29500  0.63450  Biso   1.000  C
  H25      1.0000 0.60310  0.16300  0.13310  Biso   1.000  H
  H26      1.0000 0.39690  0.66300  0.36690  Biso   1.000  H
  H27      1.0000 0.39690  0.83700  0.86690  Biso   1.000  H
  H28      1.0000 0.60310  0.33700  0.63310  Biso   1.000  H
  H29      1.0000 0.78060  0.21400  0.14100  Biso   1.000  H
  H30      1.0000 0.21940  0.71400  0.35900  Biso   1.000  H
  H31      1.0000 0.21940  0.78600  0.85900  Biso   1.000  H
  H32      1.0000 0.78060  0.28600  0.64100  Biso   1.000  H
  C33      1.0000 0.60780  0.22260  0.24710  Biso   1.000  C
  C34      1.0000 0.39220  0.72260  0.25290  Biso   1.000  C
  C35      1.0000 0.39220  0.77740  0.75290  Biso   1.000  C
  C36      1.0000 0.60780  0.27740  0.74710  Biso   1.000  C
  H33      1.0000 0.77000  0.22940  0.24320  Biso   1.000  H
  H34      1.0000 0.23000  0.72940  0.25680  Biso   1.000  H
  H35      1.0000 0.23000  0.77060  0.75680  Biso   1.000  H
  H36      1.0000 0.77000  0.27060  0.74320  Biso   1.000  H
  H37      1.0000 0.58690  0.18340  0.26290  Biso   1.000  H
  H38      1.0000 0.41310  0.68340  0.23710  Biso   1.000  H
  H39      1.0000 0.41310  0.81660  0.73710  Biso   1.000  H
  H40      1.0000 0.58690  0.31660  0.76290  Biso   1.000  H
  C37      1.0000 0.52270  0.42080  0.10320  Biso   1.000  C
  C38      1.0000 0.47730  0.92080  0.39680  Biso   1.000  C
  C39      1.0000 0.47730  0.57920  0.89680  Biso   1.000  C
  C40      1.0000 0.52270  0.07920  0.60320  Biso   1.000  C
  H41      1.0000 0.60510  0.39640  0.07750  Biso   1.000  H
  H42      1.0000 0.39490  0.89640  0.42250  Biso   1.000  H
  H43      1.0000 0.39490  0.60360  0.92250  Biso   1.000  H
  H44      1.0000 0.60510  0.10360  0.57750  Biso   1.000  H
  C41      1.0000 0.50990  0.47810  0.08850  Biso   1.000  C
  C42      1.0000 0.49010  0.97810  0.41150  Biso   1.000  C
  C43      1.0000 0.49010  0.52190  0.91150  Biso   1.000  C
  C44      1.0000 0.50990  0.02190  0.58850  Biso   1.000  C
  H45      1.0000 0.58660  0.49260  0.05420  Biso   1.000  H
  H46      1.0000 0.41340  0.99260  0.44580  Biso   1.000  H
  H47      1.0000 0.41340  0.50740  0.94580  Biso   1.000  H
  H48      1.0000 0.58660  0.00740  0.55420  Biso   1.000  H
  C45      1.0000 0.38390  0.51450  0.12420  Biso   1.000  C
  C46      1.0000 0.61610  0.01450  0.37580  Biso   1.000  C
  C47      1.0000 0.61610  0.48550  0.87580  Biso   1.000  C
  C48      1.0000 0.38390  0.98550  0.62420  Biso   1.000  C
  C49      1.0000 0.28310  0.49040  0.17520  Biso   1.000  C
  C50      1.0000 0.71690  0.99040  0.32480  Biso   1.000  C
  C51      1.0000 0.71690  0.50960  0.82480  Biso   1.000  C
  C52      1.0000 0.28310  0.00960  0.67520  Biso   1.000  C
  H49      1.0000 0.19790  0.51370  0.20150  Biso   1.000  H
  H50      1.0000 0.80210  0.01370  0.29850  Biso   1.000  H
  H51      1.0000 0.80210  0.48630  0.79850  Biso   1.000  H
  H52      1.0000 0.19790  0.98630  0.70150  Biso   1.000  H
  C53      1.0000 0.30760  0.43290  0.18730  Biso   1.000  C
  C54      1.0000 0.69240  0.93290  0.31270  Biso   1.000  C
  C55      1.0000 0.69240  0.56710  0.81270  Biso   1.000  C
  C56      1.0000 0.30760  0.06710  0.68730  Biso   1.000  C
  H53      1.0000 0.23830  0.41740  0.22220  Biso   1.000  H
  H54      1.0000 0.76170  0.91740  0.27780  Biso   1.000  H
  H55      1.0000 0.76170  0.58260  0.77780  Biso   1.000  H
  H56      1.0000 0.23830  0.08260  0.72220  Biso   1.000  H
  C57      1.0000 0.15940  0.66450  0.11550  Biso   1.000  C
  C58      1.0000 0.84060  0.16450  0.38450  Biso   1.000  C
  C59      1.0000 0.84060  0.33550  0.88450  Biso   1.000  C
  C60      1.0000 0.15940  0.83550  0.61550  Biso   1.000  C
  H57      1.0000 0.03300  0.68510  0.12890  Biso   1.000  H
  H58      1.0000 0.96700  0.18510  0.37110  Biso   1.000  H
  H59      1.0000 0.96700  0.31490  0.87110  Biso   1.000  H
  H60      1.0000 0.03300  0.81490  0.62890  Biso   1.000  H
  C61      1.0000 0.17680  0.60730  0.12900  Biso   1.000  C
  C62      1.0000 0.82320  0.10730  0.37100  Biso   1.000  C
  C63      1.0000 0.82320  0.39270  0.87100  Biso   1.000  C
  C64      1.0000 0.17680  0.89270  0.62900  Biso   1.000  C
  H61      1.0000 0.06170  0.58880  0.15050  Biso   1.000  H
  H62      1.0000 0.93830  0.08880  0.34950  Biso   1.000  H
  H63      1.0000 0.93830  0.41120  0.84950  Biso   1.000  H
  H64      1.0000 0.06170  0.91120  0.65050  Biso   1.000  H
  C65      1.0000 0.36280  0.57610  0.11110  Biso   1.000  C
  C66      1.0000 0.63720  0.07610  0.38890  Biso   1.000  C
  C67      1.0000 0.63720  0.42390  0.88890  Biso   1.000  C
  C68      1.0000 0.36280  0.92390  0.61110  Biso   1.000  C
  C69      1.0000 0.52170  0.60590  0.07850  Biso   1.000  C
  C70      1.0000 0.47830  0.10590  0.42150  Biso   1.000  C
  C71      1.0000 0.47830  0.39410  0.92150  Biso   1.000  C
  C72      1.0000 0.52170  0.89410  0.57850  Biso   1.000  C
  H65      1.0000 0.65020  0.58650  0.06480  Biso   1.000  H
  H66      1.0000 0.34980  0.08650  0.43520  Biso   1.000  H
  H67      1.0000 0.34980  0.41350  0.93520  Biso   1.000  H
  H68      1.0000 0.65020  0.91350  0.56480  Biso   1.000  H
  C73      1.0000 0.49470  0.66320  0.06600  Biso   1.000  C
  C74      1.0000 0.50530  0.16320  0.43400  Biso   1.000  C
  C75      1.0000 0.50530  0.33680  0.93400  Biso   1.000  C
  C76      1.0000 0.49470  0.83680  0.56600  Biso   1.000  C
  H69      1.0000 0.60630  0.68240  0.04390  Biso   1.000  H
  H70      1.0000 0.39370  0.18240  0.45610  Biso   1.000  H
  H71      1.0000 0.39370  0.31760  0.95610  Biso   1.000  H
  H72      1.0000 0.60630  0.81760  0.54390  Biso   1.000  H
  C77      1.0000 0.77050  0.11170  0.99550  Biso   1.000  C
  C78      1.0000 0.22950  0.61170  0.50450  Biso   1.000  C
  C79      1.0000 0.22950  0.88830  0.00450  Biso   1.000  C
  C80      1.0000 0.77050  0.38830  0.49550  Biso   1.000  C
  H73      1.0000 0.89480  0.13070  0.01460  Biso   1.000  H
  H74      1.0000 0.10520  0.63070  0.48540  Biso   1.000  H
  H75      1.0000 0.10520  0.86930  0.98540  Biso   1.000  H
  H76      1.0000 0.89480  0.36930  0.51460  Biso   1.000  H
  C81      1.0000 0.71620  0.05790  0.01570  Biso   1.000  C
  C82      1.0000 0.28380  0.55790  0.48430  Biso   1.000  C
  C83      1.0000 0.28380  0.94210  0.98430  Biso   1.000  C
  C84      1.0000 0.71620  0.44210  0.51570  Biso   1.000  C
  H77      1.0000 0.80420  0.04030  0.04760  Biso   1.000  H
  H78      1.0000 0.19580  0.54030  0.45240  Biso   1.000  H
  H79      1.0000 0.19580  0.95970  0.95240  Biso   1.000  H
  H80      1.0000 0.80420  0.45970  0.54760  Biso   1.000  H
  C85      1.0000 0.53310  0.02910  0.98970  Biso   1.000  C
  C86      1.0000 0.46690  0.52910  0.51030  Biso   1.000  C
  C87      1.0000 0.46690  0.97090  0.01030  Biso   1.000  C
  C88      1.0000 0.53310  0.47090  0.48970  Biso   1.000  C
  C89      1.0000 0.41780  0.05710  0.94260  Biso   1.000  C
  C90      1.0000 0.58220  0.55710  0.55740  Biso   1.000  C
  C91      1.0000 0.58220  0.94290  0.05740  Biso   1.000  C
  C92      1.0000 0.41780  0.44290  0.44260  Biso   1.000  C
  H81      1.0000 0.29220  0.03940  0.92280  Biso   1.000  H
  H82      1.0000 0.70780  0.53940  0.57720  Biso   1.000  H
  H83      1.0000 0.70780  0.96060  0.07720  Biso   1.000  H
  H84      1.0000 0.29220  0.46060  0.42280  Biso   1.000  H
  C93      1.0000 0.48410  0.11080  0.92420  Biso   1.000  C
  C94      1.0000 0.51590  0.61080  0.57580  Biso   1.000  C
  C95      1.0000 0.51590  0.88920  0.07580  Biso   1.000  C
  C96      1.0000 0.48410  0.38920  0.42420  Biso   1.000  C
  H85      1.0000 0.40250  0.12890  0.89140  Biso   1.000  H
  H86      1.0000 0.59750  0.62890  0.60860  Biso   1.000  H
  H87      1.0000 0.59750  0.87110  0.10860  Biso   1.000  H
  H88      1.0000 0.40250  0.37110  0.39140  Biso   1.000  H
  Cu1      1.0000 0.47190  0.31487  0.16974  Biso   1.000  Cu
  Cu2      1.0000 0.52810  0.81487  0.33026  Biso   1.000  Cu
  Cu3      1.0000 0.52810  0.68513  0.83026  Biso   1.000  Cu
  Cu4      1.0000 0.47190  0.18513  0.66974  Biso   1.000  Cu
  Cu5      1.0000 0.71537  0.22243  0.93254  Biso   1.000  Cu
  Cu6      1.0000 0.28463  0.72243  0.56746  Biso   1.000  Cu
  Cu7      1.0000 0.28463  0.77757  0.06746  Biso   1.000  Cu
  Cu8      1.0000 0.71537  0.27757  0.43254  Biso   1.000  Cu
  F1       1.0000 0.23550  0.96770  0.21330  Biso   1.000  F
  F2       1.0000 0.76450  0.46770  0.28670  Biso   1.000  F
  F3       1.0000 0.76450  0.03230  0.78670  Biso   1.000  F
  F4       1.0000 0.23550  0.53230  0.71330  Biso   1.000  F
  N1       1.0000 0.49120  0.22873  0.18560  Biso   1.000  N
  N2       1.0000 0.50880  0.72873  0.31440  Biso   1.000  N
  N3       1.0000 0.50880  0.77127  0.81440  Biso   1.000  N
  N4       1.0000 0.49120  0.27127  0.68560  Biso   1.000  N
  N5       1.0000 0.42470  0.39810  0.15180  Biso   1.000  N
  N6       1.0000 0.57530  0.89810  0.34820  Biso   1.000  N
  N7       1.0000 0.57530  0.60190  0.84820  Biso   1.000  N
  N8       1.0000 0.42470  0.10190  0.65180  Biso   1.000  N
  N9       1.0000 0.31700  0.69263  0.08390  Biso   1.000  N
  N10      1.0000 0.68300  0.19263  0.41610  Biso   1.000  N
  N11      1.0000 0.68300  0.30737  0.91610  Biso   1.000  N
  N12      1.0000 0.31700  0.80737  0.58390  Biso   1.000  N
  N13      1.0000 0.65700  0.13830  0.95040  Biso   1.000  N
  N14      1.0000 0.34300  0.63830  0.54960  Biso   1.000  N
  N15      1.0000 0.34300  0.86170  0.04960  Biso   1.000  N
  N16      1.0000 0.65700  0.36170  0.45040  Biso   1.000  N
  O1       1.0000 0.71990  0.23902  0.02070  Biso   1.000  O
  O2       1.0000 0.28010  0.73902  0.47930  Biso   1.000  O
  O3       1.0000 0.28010  0.76098  0.97930  Biso   1.000  O
  O4       1.0000 0.71990  0.26098  0.52070  Biso   1.000  O
  O5       1.0000 0.44630  0.29702  0.08230  Biso   1.000  O
  O6       1.0000 0.55370  0.79702  0.41770  Biso   1.000  O
  O7       1.0000 0.55370  0.70298  0.91770  Biso   1.000  O
  O8       1.0000 0.44630  0.20298  0.58230  Biso   1.000  O
  O9       1.0000 0.32440  0.20230  0.03475  Biso   1.000  O
  O10      1.0000 0.67560  0.70230  0.46525  Biso   1.000  O
  O11      1.0000 0.67560  0.79770  0.96525  Biso   1.000  O
  O12      1.0000 0.32440  0.29770  0.53475  Biso   1.000  O
  O13      1.0000 0.43110  0.32422  0.25739  Biso   1.000  O
  O14      1.0000 0.56890  0.82422  0.24261  Biso   1.000  O
  O15      1.0000 0.56890  0.67578  0.74261  Biso   1.000  O
  O16      1.0000 0.43110  0.17578  0.75739  Biso   1.000  O
  O17      1.0000 0.29300  0.24963  0.33176  Biso   1.000  O
  O18      1.0000 0.70700  0.74963  0.16824  Biso   1.000  O
  O19      1.0000 0.70700  0.75037  0.66824  Biso   1.000  O
  O20      1.0000 0.29300  0.25037  0.83176  Biso   1.000  O
  O21      1.0000 0.68240  0.29168  0.34473  Biso   1.000  O
  O22      1.0000 0.31760  0.79168  0.15527  Biso   1.000  O
  O23      1.0000 0.31760  0.70832  0.65527  Biso   1.000  O
  O24      1.0000 0.68240  0.20832  0.84473  Biso   1.000  O
  O25      1.0000 0.07680  0.21690  0.93173  Biso   1.000  O
  O26      1.0000 0.92320  0.71690  0.56827  Biso   1.000  O
  O27      1.0000 0.92320  0.78310  0.06827  Biso   1.000  O
  O28      1.0000 0.07680  0.28310  0.43173  Biso   1.000  O
  H89      1.0000 0.13940  0.22340  0.96670  Biso   1.000  H
  H90      1.0000 0.86060  0.72340  0.53330  Biso   1.000  H
  H91      1.0000 0.86060  0.77660  0.03330  Biso   1.000  H
  H92      1.0000 0.13940  0.27660  0.46670  Biso   1.000  H
  H93      1.0000 0.13200  0.23820  0.90440  Biso   1.000  H
  H94      1.0000 0.86800  0.73820  0.59560  Biso   1.000  H
  H95      1.0000 0.86800  0.76180  0.09560  Biso   1.000  H
  H96      1.0000 0.13200  0.26180  0.40440  Biso   1.000  H
  O29      1.0000 0.84810  0.32294  0.17310  Biso   1.000  O
  O30      1.0000 0.15190  0.82294  0.32690  Biso   1.000  O
  O31      1.0000 0.15190  0.67706  0.82690  Biso   1.000  O
  O32      1.0000 0.84810  0.17706  0.67310  Biso   1.000  O
  H97      1.0000 0.90890  0.30380  0.14490  Biso   1.000  H
  H98      1.0000 0.09110  0.80380  0.35510  Biso   1.000  H
  H99      1.0000 0.09110  0.69620  0.85510  Biso   1.000  H
  H100     1.0000 0.90890  0.19620  0.64490  Biso   1.000  H
  H101     1.0000 0.90490  0.31360  0.20800  Biso   1.000  H
  H102     1.0000 0.09510  0.81360  0.29200  Biso   1.000  H
  H103     1.0000 0.09510  0.68640  0.79200  Biso   1.000  H
  H104     1.0000 0.90490  0.18640  0.70800  Biso   1.000  H
  P1       1.0000 0.51610  0.23616  0.06187  Biso   1.000  P
  P2       1.0000 0.48390  0.73616  0.43813  Biso   1.000  P
  P3       1.0000 0.48390  0.76384  0.93813  Biso   1.000  P
  P4       1.0000 0.51610  0.26384  0.56187  Biso   1.000  P
  P5       1.0000 0.49180  0.27443  0.30027  Biso   1.000  P
  P6       1.0000 0.50820  0.77443  0.19973  Biso   1.000  P
  P7       1.0000 0.50820  0.72557  0.69973  Biso   1.000  P
  P8       1.0000 0.49180  0.22557  0.80027  Biso   1.000  P
  H105     1.0000 0.01000  0.45800  0.03700  Biso   1.000  H
  H106     1.0000 0.99000  0.95800  0.46300  Biso   1.000  H
  H107     1.0000 0.99000  0.54200  0.96300  Biso   1.000  H
  H108     1.0000 0.01000  0.04200  0.53700  Biso   1.000  H
  O33      1.0000 0.00950  0.43990  0.00310  Biso   1.000  O
  O34      1.0000 0.99050  0.93990  0.49690  Biso   1.000  O
  O35      1.0000 0.99050  0.56010  0.99690  Biso   1.000  O
  O36      1.0000 0.00950  0.06010  0.50310  Biso   1.000  O
  H109     1.0000 0.01690  0.40870  0.02290  Biso   1.000  H
  H110     1.0000 0.98310  0.90870  0.47710  Biso   1.000  H
  H111     1.0000 0.98310  0.59130  0.97710  Biso   1.000  H
  H112     1.0000 0.01690  0.09130  0.52290  Biso   1.000  H
  O37      1.0000 0.99620  0.36050  0.28700  Biso   1.000  O
  O38      1.0000 0.00380  0.86050  0.21300  Biso   1.000  O
  O39      1.0000 0.00380  0.63950  0.71300  Biso   1.000  O
  O40      1.0000 0.99620  0.13950  0.78700  Biso   1.000  O
  H113     1.0000 0.12180  0.34520  0.28030  Biso   1.000  H
  H114     1.0000 0.87820  0.84520  0.21970  Biso   1.000  H
  H115     1.0000 0.87820  0.65480  0.71970  Biso   1.000  H
  H116     1.0000 0.12180  0.15480  0.78030  Biso   1.000  H
  H117     1.0000 0.91440  0.33610  0.30450  Biso   1.000  H
  H118     1.0000 0.08560  0.83610  0.19550  Biso   1.000  H
  H119     1.0000 0.08560  0.66390  0.69550  Biso   1.000  H
  H120     1.0000 0.91440  0.16390  0.80450  Biso   1.000  H
  O41      1.0000 0.01210  0.32967  0.05360  Biso   1.000  O
  O42      1.0000 0.98790  0.82967  0.44640  Biso   1.000  O
  O43      1.0000 0.98790  0.67033  0.94640  Biso   1.000  O
  O44      1.0000 0.01210  0.17033  0.55360  Biso   1.000  O
  H121     1.0000 0.93010  0.30120  0.04400  Biso   1.000  H
  H122     1.0000 0.06990  0.80120  0.45600  Biso   1.000  H
  H123     1.0000 0.06990  0.69880  0.95600  Biso   1.000  H
  H124     1.0000 0.93010  0.19880  0.54400  Biso   1.000  H
  H125     1.0000 0.14360  0.31770  0.06210  Biso   1.000  H
  H126     1.0000 0.85640  0.81770  0.43790  Biso   1.000  H
  H127     1.0000 0.85640  0.68230  0.93790  Biso   1.000  H
  H128     1.0000 0.14360  0.18230  0.56210  Biso   1.000  H
