data_image0
_cell_length_a       7.6273
_cell_length_b       13.947
_cell_length_c       7.9549
_cell_angle_alpha    90
_cell_angle_beta     111.556
_cell_angle_gamma    90

_symmetry_space_group_name_H-M    "P 1"
_symmetry_int_tables_number       1

loop_
  _symmetry_equiv_pos_as_xyz
  'x, y, z'

loop_
  _atom_site_label
  _atom_site_occupancy
  _atom_site_fract_x
  _atom_site_fract_y
  _atom_site_fract_z
  _atom_site_thermal_displace_type
  _atom_site_B_iso_or_equiv
  _atom_site_type_symbol
  Cu1      1.0000 0.48476  0.25000  0.30827  Biso   1.000  Cu
  Cu2      1.0000 0.51524  0.75000  0.69173  Biso   1.000  Cu
  Cl1      1.0000 0.29700  0.36660  0.35190  Biso   1.000  Cl
  Cl2      1.0000 0.29700  0.13340  0.35190  Biso   1.000  Cl
  Cl3      1.0000 0.70300  0.63340  0.64810  Biso   1.000  Cl
  Cl4      1.0000 0.70300  0.86660  0.64810  Biso   1.000  Cl
  N1       1.0000 0.76920  0.25000  0.57660  Biso   1.000  N
  N2       1.0000 0.23080  0.75000  0.42340  Biso   1.000  N
  N3       1.0000 0.61040  0.25000  0.96590  Biso   1.000  N
  N4       1.0000 0.38960  0.75000  0.03410  Biso   1.000  N
  N5       1.0000 0.62300  0.34770  0.21410  Biso   1.000  N
  N6       1.0000 0.62300  0.15230  0.21410  Biso   1.000  N
  N7       1.0000 0.37700  0.65230  0.78590  Biso   1.000  N
  N8       1.0000 0.37700  0.84770  0.78590  Biso   1.000  N
  C1       1.0000 0.60070  0.25000  0.77690  Biso   1.000  C
  C2       1.0000 0.39930  0.75000  0.22310  Biso   1.000  C
  H1       1.0000 0.53000  0.30600  0.71680  Biso   1.000  H
  H2       1.0000 0.53000  0.19400  0.71680  Biso   1.000  H
  H3       1.0000 0.47000  0.69400  0.28320  Biso   1.000  H
  H4       1.0000 0.47000  0.80600  0.28320  Biso   1.000  H
  C3       1.0000 0.78640  0.25000  0.75120  Biso   1.000  C
  C4       1.0000 0.21360  0.75000  0.24880  Biso   1.000  C
  C5       1.0000 0.96050  0.25000  0.89520  Biso   1.000  C
  C6       1.0000 0.03950  0.75000  0.10480  Biso   1.000  C
  H5       1.0000 0.96680  0.25000  0.01420  Biso   1.000  H
  H6       1.0000 0.03320  0.75000  0.98580  Biso   1.000  H
  C7       1.0000 0.12430  0.25000  0.85600  Biso   1.000  C
  C8       1.0000 0.87570  0.75000  0.14400  Biso   1.000  C
  H7       1.0000 0.24230  0.25000  0.94870  Biso   1.000  H
  H8       1.0000 0.75770  0.75000  0.05130  Biso   1.000  H
  C9       1.0000 0.10890  0.25000  0.67820  Biso   1.000  C
  C10      1.0000 0.89110  0.75000  0.32180  Biso   1.000  C
  H9       1.0000 0.21660  0.25000  0.64950  Biso   1.000  H
  H10      1.0000 0.78340  0.75000  0.35050  Biso   1.000  H
  C11      1.0000 0.93190  0.25000  0.54200  Biso   1.000  C
  C12      1.0000 0.06810  0.75000  0.45800  Biso   1.000  C
  H11      1.0000 0.92360  0.25000  0.42240  Biso   1.000  H
  H12      1.0000 0.07640  0.75000  0.57760  Biso   1.000  H
  C13      1.0000 0.64940  0.33920  0.05660  Biso   1.000  C
  C14      1.0000 0.64940  0.16080  0.05660  Biso   1.000  C
  C15      1.0000 0.35060  0.66080  0.94340  Biso   1.000  C
  C16      1.0000 0.35060  0.83920  0.94340  Biso   1.000  C
  C17      1.0000 0.71380  0.41690  0.98250  Biso   1.000  C
  C18      1.0000 0.71380  0.08310  0.98250  Biso   1.000  C
  C19      1.0000 0.28620  0.58310  0.01750  Biso   1.000  C
  C20      1.0000 0.28620  0.91690  0.01750  Biso   1.000  C
  H13      1.0000 0.72080  0.41220  0.86850  Biso   1.000  H
  H14      1.0000 0.72080  0.08780  0.86850  Biso   1.000  H
  H15      1.0000 0.27920  0.58780  0.13150  Biso   1.000  H
  H16      1.0000 0.27920  0.91220  0.13150  Biso   1.000  H
  C21      1.0000 0.76670  0.50050  0.08270  Biso   1.000  C
  C22      1.0000 0.76670  0.99950  0.08270  Biso   1.000  C
  C23      1.0000 0.23330  0.49950  0.91730  Biso   1.000  C
  C24      1.0000 0.23330  0.00050  0.91730  Biso   1.000  C
  H17      1.0000 0.81010  0.55270  0.03620  Biso   1.000  H
  H18      1.0000 0.81010  0.94730  0.03620  Biso   1.000  H
  H19      1.0000 0.18990  0.44730  0.96380  Biso   1.000  H
  H20      1.0000 0.18990  0.05270  0.96380  Biso   1.000  H
  C25      1.0000 0.75490  0.50640  0.25170  Biso   1.000  C
  C26      1.0000 0.75490  0.99360  0.25170  Biso   1.000  C
  C27      1.0000 0.24510  0.49360  0.74830  Biso   1.000  C
  C28      1.0000 0.24510  0.00640  0.74830  Biso   1.000  C
  H21      1.0000 0.79840  0.56010  0.32430  Biso   1.000  H
  H22      1.0000 0.79840  0.93990  0.32430  Biso   1.000  H
  H23      1.0000 0.20160  0.43990  0.67570  Biso   1.000  H
  H24      1.0000 0.20160  0.06010  0.67570  Biso   1.000  H
  C29      1.0000 0.67640  0.42980  0.30900  Biso   1.000  C
  C30      1.0000 0.67640  0.07020  0.30900  Biso   1.000  C
  C31      1.0000 0.32360  0.57020  0.69100  Biso   1.000  C
  C32      1.0000 0.32360  0.92980  0.69100  Biso   1.000  C
  H25      1.0000 0.65950  0.43520  0.41860  Biso   1.000  H
  H26      1.0000 0.65950  0.06480  0.41860  Biso   1.000  H
  H27      1.0000 0.34050  0.56480  0.58140  Biso   1.000  H
  H28      1.0000 0.34050  0.93520  0.58140  Biso   1.000  H
