data_image0
_cell_length_a       11.921
_cell_length_b       11.153
_cell_length_c       5.155
_cell_angle_alpha    90
_cell_angle_beta     113.38
_cell_angle_gamma    90

_symmetry_space_group_name_H-M    "P 1"
_symmetry_int_tables_number       1

loop_
  _symmetry_equiv_pos_as_xyz
  'x, y, z'

loop_
  _atom_site_label
  _atom_site_occupancy
  _atom_site_fract_x
  _atom_site_fract_y
  _atom_site_fract_z
  _atom_site_thermal_displace_type
  _atom_site_B_iso_or_equiv
  _atom_site_type_symbol
  Cu1      1.0000 0.12330  0.00000  0.83130  Biso   1.000  Cu
  Cu2      1.0000 0.62330  0.50000  0.83130  Biso   1.000  Cu
  O1       1.0000 0.24140  0.00000  0.65500  Biso   1.000  O
  O2       1.0000 0.74140  0.50000  0.65500  Biso   1.000  O
  O3       1.0000 0.99260  0.00000  0.39200  Biso   1.000  O
  O4       1.0000 0.49260  0.50000  0.39200  Biso   1.000  O
  O5       1.0000 0.00810  0.00000  0.01250  Biso   1.000  O
  O6       1.0000 0.50810  0.50000  0.01250  Biso   1.000  O
  O7       1.0000 0.25670  0.00000  0.25940  Biso   1.000  O
  O8       1.0000 0.75670  0.50000  0.25940  Biso   1.000  O
  C1       1.0000 0.19320  0.00000  0.40500  Biso   1.000  C
  C2       1.0000 0.69320  0.50000  0.40500  Biso   1.000  C
  C3       1.0000 0.04930  0.00000  0.26100  Biso   1.000  C
  C4       1.0000 0.54930  0.50000  0.26100  Biso   1.000  C
  N1       1.0000 0.11590  0.18205  0.82320  Biso   1.000  N
  N2       1.0000 0.11590  0.81795  0.82320  Biso   1.000  N
  N3       1.0000 0.61590  0.68205  0.82320  Biso   1.000  N
  N4       1.0000 0.61590  0.31795  0.82320  Biso   1.000  N
  C5       1.0000 0.22620  0.24360  0.93500  Biso   1.000  C
  C6       1.0000 0.22620  0.75640  0.93500  Biso   1.000  C
  C7       1.0000 0.72620  0.74360  0.93500  Biso   1.000  C
  C8       1.0000 0.72620  0.25640  0.93500  Biso   1.000  C
  H1       1.0000 0.29950  0.20140  0.00810  Biso   1.000  H
  H2       1.0000 0.29950  0.79860  0.00810  Biso   1.000  H
  H3       1.0000 0.79950  0.70140  0.00810  Biso   1.000  H
  H4       1.0000 0.79950  0.29860  0.00810  Biso   1.000  H
  C9       1.0000 0.22710  0.36830  0.93760  Biso   1.000  C
  C10      1.0000 0.22710  0.63170  0.93760  Biso   1.000  C
  C11      1.0000 0.72710  0.86830  0.93760  Biso   1.000  C
  C12      1.0000 0.72710  0.13170  0.93760  Biso   1.000  C
  H5       1.0000 0.30090  0.40950  0.01250  Biso   1.000  H
  H6       1.0000 0.30090  0.59050  0.01250  Biso   1.000  H
  H7       1.0000 0.80090  0.90950  0.01250  Biso   1.000  H
  H8       1.0000 0.80090  0.09050  0.01250  Biso   1.000  H
  C13      1.0000 0.11760  0.43131  0.82800  Biso   1.000  C
  C14      1.0000 0.11760  0.56869  0.82800  Biso   1.000  C
  C15      1.0000 0.61760  0.93131  0.82800  Biso   1.000  C
  C16      1.0000 0.61760  0.06869  0.82800  Biso   1.000  C
  C17      1.0000 0.00720  0.36970  0.71660  Biso   1.000  C
  C18      1.0000 0.00720  0.63030  0.71660  Biso   1.000  C
  C19      1.0000 0.50720  0.86970  0.71660  Biso   1.000  C
  C20      1.0000 0.50720  0.13030  0.71660  Biso   1.000  C
  H9       1.0000 0.93400  0.41190  0.64350  Biso   1.000  H
  H10      1.0000 0.93400  0.58810  0.64350  Biso   1.000  H
  H11      1.0000 0.43400  0.91190  0.64350  Biso   1.000  H
  H12      1.0000 0.43400  0.08810  0.64350  Biso   1.000  H
  C21      1.0000 0.00640  0.24510  0.71390  Biso   1.000  C
  C22      1.0000 0.00640  0.75490  0.71390  Biso   1.000  C
  C23      1.0000 0.50640  0.74510  0.71390  Biso   1.000  C
  C24      1.0000 0.50640  0.25490  0.71390  Biso   1.000  C
  H13      1.0000 0.93260  0.20390  0.63910  Biso   1.000  H
  H14      1.0000 0.93260  0.79610  0.63910  Biso   1.000  H
  H15      1.0000 0.43260  0.70390  0.63910  Biso   1.000  H
  H16      1.0000 0.43260  0.29610  0.63910  Biso   1.000  H
