data_image0
_cell_length_a       12.5527
_cell_length_b       7.4161
_cell_length_c       18.5198
_cell_angle_alpha    90
_cell_angle_beta     100.578
_cell_angle_gamma    90

_symmetry_space_group_name_H-M    "P 1"
_symmetry_int_tables_number       1

loop_
  _symmetry_equiv_pos_as_xyz
  'x, y, z'

loop_
  _atom_site_label
  _atom_site_occupancy
  _atom_site_fract_x
  _atom_site_fract_y
  _atom_site_fract_z
  _atom_site_thermal_displace_type
  _atom_site_B_iso_or_equiv
  _atom_site_type_symbol
  Cu1      1.0000 0.42950  0.18289  0.44997  Biso   1.000  Cu
  Cu2      1.0000 0.42950  0.81711  0.94997  Biso   1.000  Cu
  Cu3      1.0000 0.92950  0.68289  0.44997  Biso   1.000  Cu
  Cu4      1.0000 0.92950  0.31711  0.94997  Biso   1.000  Cu
  Cu5      1.0000 0.57050  0.81711  0.55003  Biso   1.000  Cu
  Cu6      1.0000 0.57050  0.18289  0.05003  Biso   1.000  Cu
  Cu7      1.0000 0.07050  0.31711  0.55003  Biso   1.000  Cu
  Cu8      1.0000 0.07050  0.68289  0.05003  Biso   1.000  Cu
  O1       1.0000 0.38655  0.28230  0.54108  Biso   1.000  O
  O2       1.0000 0.38655  0.71770  0.04108  Biso   1.000  O
  O3       1.0000 0.88655  0.78230  0.54108  Biso   1.000  O
  O4       1.0000 0.88655  0.21770  0.04108  Biso   1.000  O
  O5       1.0000 0.61345  0.71770  0.45892  Biso   1.000  O
  O6       1.0000 0.61345  0.28230  0.95892  Biso   1.000  O
  O7       1.0000 0.11345  0.21770  0.45892  Biso   1.000  O
  O8       1.0000 0.11345  0.78230  0.95892  Biso   1.000  O
  O9       1.0000 0.57382  0.20140  0.51038  Biso   1.000  O
  O10      1.0000 0.57382  0.79860  0.01038  Biso   1.000  O
  O11      1.0000 0.07382  0.70140  0.51038  Biso   1.000  O
  O12      1.0000 0.07382  0.29860  0.01038  Biso   1.000  O
  O13      1.0000 0.42618  0.79860  0.48962  Biso   1.000  O
  O14      1.0000 0.42618  0.20140  0.98962  Biso   1.000  O
  O15      1.0000 0.92618  0.29860  0.48962  Biso   1.000  O
  O16      1.0000 0.92618  0.70140  0.98962  Biso   1.000  O
  O17      1.0000 0.73007  0.09040  0.39254  Biso   1.000  O
  O18      1.0000 0.73007  0.90960  0.89254  Biso   1.000  O
  O19      1.0000 0.23007  0.59040  0.39254  Biso   1.000  O
  O20      1.0000 0.23007  0.40960  0.89254  Biso   1.000  O
  O21      1.0000 0.26993  0.90960  0.60746  Biso   1.000  O
  O22      1.0000 0.26993  0.09040  0.10746  Biso   1.000  O
  O23      1.0000 0.76993  0.40960  0.60746  Biso   1.000  O
  O24      1.0000 0.76993  0.59040  0.10746  Biso   1.000  O
  O25      1.0000 0.44147  0.47380  0.38452  Biso   1.000  O
  O26      1.0000 0.44147  0.52620  0.88452  Biso   1.000  O
  O27      1.0000 0.94147  0.97380  0.38452  Biso   1.000  O
  O28      1.0000 0.94147  0.02620  0.88452  Biso   1.000  O
  O29      1.0000 0.55853  0.52620  0.61548  Biso   1.000  O
  O30      1.0000 0.55853  0.47380  0.11548  Biso   1.000  O
  O31      1.0000 0.05853  0.02620  0.61548  Biso   1.000  O
  O32      1.0000 0.05853  0.97380  0.11548  Biso   1.000  O
  O33      1.0000 0.50000  0.35070  0.25000  Biso   1.000  O
  O34      1.0000 0.50000  0.64930  0.75000  Biso   1.000  O
  O35      1.0000 0.00000  0.85070  0.25000  Biso   1.000  O
  O36      1.0000 0.00000  0.14930  0.75000  Biso   1.000  O
  N1       1.0000 0.02570  0.44680  0.63403  Biso   1.000  N
  N2       1.0000 0.02570  0.55320  0.13403  Biso   1.000  N
  N3       1.0000 0.52570  0.94680  0.63403  Biso   1.000  N
  N4       1.0000 0.52570  0.05320  0.13403  Biso   1.000  N
  N5       1.0000 0.97430  0.55320  0.36597  Biso   1.000  N
  N6       1.0000 0.97430  0.44680  0.86597  Biso   1.000  N
  N7       1.0000 0.47430  0.05320  0.36597  Biso   1.000  N
  N8       1.0000 0.47430  0.94680  0.86597  Biso   1.000  N
  H1       1.0000 0.99324  0.36690  0.65951  Biso   1.000  H
  H2       1.0000 0.99324  0.63310  0.15951  Biso   1.000  H
  H3       1.0000 0.49324  0.86690  0.65951  Biso   1.000  H
  H4       1.0000 0.49324  0.13310  0.15951  Biso   1.000  H
  H5       1.0000 0.00676  0.63310  0.34049  Biso   1.000  H
  H6       1.0000 0.00676  0.36690  0.84049  Biso   1.000  H
  H7       1.0000 0.50676  0.13310  0.34049  Biso   1.000  H
  H8       1.0000 0.50676  0.86690  0.84049  Biso   1.000  H
  H9       1.0000 0.97575  0.52980  0.61564  Biso   1.000  H
  H10      1.0000 0.97575  0.47020  0.11564  Biso   1.000  H
  H11      1.0000 0.47575  0.02980  0.61564  Biso   1.000  H
  H12      1.0000 0.47575  0.97020  0.11564  Biso   1.000  H
  H13      1.0000 0.02425  0.47020  0.38436  Biso   1.000  H
  H14      1.0000 0.02425  0.52980  0.88436  Biso   1.000  H
  H15      1.0000 0.52425  0.97020  0.38436  Biso   1.000  H
  H16      1.0000 0.52425  0.02980  0.88436  Biso   1.000  H
  N9       1.0000 0.22701  0.33890  0.58339  Biso   1.000  N
  N10      1.0000 0.22701  0.66110  0.08339  Biso   1.000  N
  N11      1.0000 0.72701  0.83890  0.58339  Biso   1.000  N
  N12      1.0000 0.72701  0.16110  0.08339  Biso   1.000  N
  N13      1.0000 0.77299  0.66110  0.41661  Biso   1.000  N
  N14      1.0000 0.77299  0.33890  0.91661  Biso   1.000  N
  N15      1.0000 0.27299  0.16110  0.41661  Biso   1.000  N
  N16      1.0000 0.27299  0.83890  0.91661  Biso   1.000  N
  C1       1.0000 0.11290  0.53860  0.68615  Biso   1.000  C
  C2       1.0000 0.11290  0.46140  0.18615  Biso   1.000  C
  C3       1.0000 0.61290  0.03860  0.68615  Biso   1.000  C
  C4       1.0000 0.61290  0.96140  0.18615  Biso   1.000  C
  C5       1.0000 0.88710  0.46140  0.31385  Biso   1.000  C
  C6       1.0000 0.88710  0.53860  0.81385  Biso   1.000  C
  C7       1.0000 0.38710  0.96140  0.31385  Biso   1.000  C
  C8       1.0000 0.38710  0.03860  0.81385  Biso   1.000  C
  H17      1.0000 0.13539  0.64580  0.66297  Biso   1.000  H
  H18      1.0000 0.13539  0.35420  0.16297  Biso   1.000  H
  H19      1.0000 0.63539  0.14580  0.66297  Biso   1.000  H
  H20      1.0000 0.63539  0.85420  0.16297  Biso   1.000  H
  H21      1.0000 0.86461  0.35420  0.33703  Biso   1.000  H
  H22      1.0000 0.86461  0.64580  0.83703  Biso   1.000  H
  H23      1.0000 0.36461  0.85420  0.33703  Biso   1.000  H
  H24      1.0000 0.36461  0.14580  0.83703  Biso   1.000  H
  H25      1.0000 0.08460  0.57630  0.72910  Biso   1.000  H
  H26      1.0000 0.08460  0.42370  0.22910  Biso   1.000  H
  H27      1.0000 0.58460  0.07630  0.72910  Biso   1.000  H
  H28      1.0000 0.58460  0.92370  0.22910  Biso   1.000  H
  H29      1.0000 0.91540  0.42370  0.27090  Biso   1.000  H
  H30      1.0000 0.91540  0.57630  0.77090  Biso   1.000  H
  H31      1.0000 0.41540  0.92370  0.27090  Biso   1.000  H
  H32      1.0000 0.41540  0.07630  0.77090  Biso   1.000  H
  C9       1.0000 0.21070  0.41780  0.71016  Biso   1.000  C
  C10      1.0000 0.21070  0.58220  0.21016  Biso   1.000  C
  C11      1.0000 0.71070  0.91780  0.71016  Biso   1.000  C
  C12      1.0000 0.71070  0.08220  0.21016  Biso   1.000  C
  C13      1.0000 0.78930  0.58220  0.28984  Biso   1.000  C
  C14      1.0000 0.78930  0.41780  0.78984  Biso   1.000  C
  C15      1.0000 0.28930  0.08220  0.28984  Biso   1.000  C
  C16      1.0000 0.28930  0.91780  0.78984  Biso   1.000  C
  H33      1.0000 0.18567  0.29780  0.71957  Biso   1.000  H
  H34      1.0000 0.18567  0.70220  0.21957  Biso   1.000  H
  H35      1.0000 0.68567  0.79780  0.71957  Biso   1.000  H
  H36      1.0000 0.68567  0.20220  0.21957  Biso   1.000  H
  H37      1.0000 0.81433  0.70220  0.28043  Biso   1.000  H
  H38      1.0000 0.81433  0.29780  0.78043  Biso   1.000  H
  H39      1.0000 0.31433  0.20220  0.28043  Biso   1.000  H
  H40      1.0000 0.31433  0.79780  0.78043  Biso   1.000  H
  H41      1.0000 0.25202  0.46360  0.75589  Biso   1.000  H
  H42      1.0000 0.25202  0.53640  0.25589  Biso   1.000  H
  H43      1.0000 0.75202  0.96360  0.75589  Biso   1.000  H
  H44      1.0000 0.75202  0.03640  0.25589  Biso   1.000  H
  H45      1.0000 0.74798  0.53640  0.24411  Biso   1.000  H
  H46      1.0000 0.74798  0.46360  0.74411  Biso   1.000  H
  H47      1.0000 0.24798  0.03640  0.24411  Biso   1.000  H
  H48      1.0000 0.24798  0.96360  0.74411  Biso   1.000  H
  C17      1.0000 0.28485  0.40450  0.65415  Biso   1.000  C
  C18      1.0000 0.28485  0.59550  0.15415  Biso   1.000  C
  C19      1.0000 0.78485  0.90450  0.65415  Biso   1.000  C
  C20      1.0000 0.78485  0.09550  0.15415  Biso   1.000  C
  C21      1.0000 0.71515  0.59550  0.34585  Biso   1.000  C
  C22      1.0000 0.71515  0.40450  0.84585  Biso   1.000  C
  C23      1.0000 0.21515  0.09550  0.34585  Biso   1.000  C
  C24      1.0000 0.21515  0.90450  0.84585  Biso   1.000  C
  H49      1.0000 0.34430  0.32330  0.67244  Biso   1.000  H
  H50      1.0000 0.34430  0.67670  0.17244  Biso   1.000  H
  H51      1.0000 0.84430  0.82330  0.67244  Biso   1.000  H
  H52      1.0000 0.84430  0.17670  0.17244  Biso   1.000  H
  H53      1.0000 0.65570  0.67670  0.32756  Biso   1.000  H
  H54      1.0000 0.65570  0.32330  0.82756  Biso   1.000  H
  H55      1.0000 0.15570  0.17670  0.32756  Biso   1.000  H
  H56      1.0000 0.15570  0.82330  0.82756  Biso   1.000  H
  H57      1.0000 0.31518  0.52240  0.64763  Biso   1.000  H
  H58      1.0000 0.31518  0.47760  0.14763  Biso   1.000  H
  H59      1.0000 0.81518  0.02240  0.64763  Biso   1.000  H
  H60      1.0000 0.81518  0.97760  0.14763  Biso   1.000  H
  H61      1.0000 0.68482  0.47760  0.35237  Biso   1.000  H
  H62      1.0000 0.68482  0.52240  0.85237  Biso   1.000  H
  H63      1.0000 0.18482  0.97760  0.35237  Biso   1.000  H
  H64      1.0000 0.18482  0.02240  0.85237  Biso   1.000  H
  C25      1.0000 0.28326  0.28430  0.53532  Biso   1.000  C
  C26      1.0000 0.28326  0.71570  0.03532  Biso   1.000  C
  C27      1.0000 0.78326  0.78430  0.53532  Biso   1.000  C
  C28      1.0000 0.78326  0.21570  0.03532  Biso   1.000  C
  C29      1.0000 0.71674  0.71570  0.46468  Biso   1.000  C
  C30      1.0000 0.71674  0.28430  0.96468  Biso   1.000  C
  C31      1.0000 0.21674  0.21570  0.46468  Biso   1.000  C
  C32      1.0000 0.21674  0.78430  0.96468  Biso   1.000  C
  C33      1.0000 0.67047  0.22790  0.50259  Biso   1.000  C
  C34      1.0000 0.67047  0.77210  0.00259  Biso   1.000  C
  C35      1.0000 0.17047  0.72790  0.50259  Biso   1.000  C
  C36      1.0000 0.17047  0.27210  0.00259  Biso   1.000  C
  C37      1.0000 0.32953  0.77210  0.49741  Biso   1.000  C
  C38      1.0000 0.32953  0.22790  0.99741  Biso   1.000  C
  C39      1.0000 0.82953  0.27210  0.49741  Biso   1.000  C
  C40      1.0000 0.82953  0.72790  0.99741  Biso   1.000  C
  C41      1.0000 0.73984  0.17720  0.45043  Biso   1.000  C
  C42      1.0000 0.73984  0.82280  0.95043  Biso   1.000  C
  C43      1.0000 0.23984  0.67720  0.45043  Biso   1.000  C
  C44      1.0000 0.23984  0.32280  0.95043  Biso   1.000  C
  C45      1.0000 0.26016  0.82280  0.54957  Biso   1.000  C
  C46      1.0000 0.26016  0.17720  0.04957  Biso   1.000  C
  C47      1.0000 0.76016  0.32280  0.54957  Biso   1.000  C
  C48      1.0000 0.76016  0.67720  0.04957  Biso   1.000  C
  H65      1.0000 0.38440  0.51990  0.38410  Biso   1.000  H
  H66      1.0000 0.38440  0.48010  0.88410  Biso   1.000  H
  H67      1.0000 0.88440  0.01990  0.38410  Biso   1.000  H
  H68      1.0000 0.88440  0.98010  0.88410  Biso   1.000  H
  H69      1.0000 0.61560  0.48010  0.61590  Biso   1.000  H
  H70      1.0000 0.61560  0.51990  0.11590  Biso   1.000  H
  H71      1.0000 0.11560  0.98010  0.61590  Biso   1.000  H
  H72      1.0000 0.11560  0.01990  0.11590  Biso   1.000  H
  H73      1.0000 0.47880  0.52250  0.40560  Biso   1.000  H
  H74      1.0000 0.47880  0.47750  0.90560  Biso   1.000  H
  H75      1.0000 0.97880  0.02250  0.40560  Biso   1.000  H
  H76      1.0000 0.97880  0.97750  0.90560  Biso   1.000  H
  H77      1.0000 0.52120  0.47750  0.59440  Biso   1.000  H
  H78      1.0000 0.52120  0.52250  0.09440  Biso   1.000  H
  H79      1.0000 0.02120  0.97750  0.59440  Biso   1.000  H
  H80      1.0000 0.02120  0.02250  0.09440  Biso   1.000  H
  H81      1.0000 0.47830  0.41560  0.27680  Biso   1.000  H
  H82      1.0000 0.47830  0.58440  0.77680  Biso   1.000  H
  H83      1.0000 0.97830  0.91560  0.27680  Biso   1.000  H
  H84      1.0000 0.97830  0.08440  0.77680  Biso   1.000  H
  H85      1.0000 0.52170  0.58440  0.72320  Biso   1.000  H
  H86      1.0000 0.52170  0.41560  0.22320  Biso   1.000  H
  H87      1.0000 0.02170  0.08440  0.72320  Biso   1.000  H
  H88      1.0000 0.02170  0.91560  0.22320  Biso   1.000  H
