data_image0
_cell_length_a       9.732
_cell_length_b       9.795
_cell_length_c       10.285
_cell_angle_alpha    84.95
_cell_angle_beta     77.3
_cell_angle_gamma    85.61

_symmetry_space_group_name_H-M    "P 1"
_symmetry_int_tables_number       1

loop_
  _symmetry_equiv_pos_as_xyz
  'x, y, z'

loop_
  _atom_site_label
  _atom_site_occupancy
  _atom_site_fract_x
  _atom_site_fract_y
  _atom_site_fract_z
  _atom_site_thermal_displace_type
  _atom_site_B_iso_or_equiv
  _atom_site_type_symbol
  Cu1      1.0000 0.16864  0.03215  0.92648  Biso   1.000  Cu
  Cu2      1.0000 0.83136  0.96785  0.07352  Biso   1.000  Cu
  Cu3      1.0000 0.51122  0.64533  0.07458  Biso   1.000  Cu
  Cu4      1.0000 0.48878  0.35467  0.92542  Biso   1.000  Cu
  O1       1.0000 0.21220  0.94870  0.09690  Biso   1.000  O
  O2       1.0000 0.78780  0.05130  0.90310  Biso   1.000  O
  O3       1.0000 0.48120  0.74260  0.90510  Biso   1.000  O
  O4       1.0000 0.51880  0.25740  0.09490  Biso   1.000  O
  O5       1.0000 0.33650  0.47710  0.03520  Biso   1.000  O
  O6       1.0000 0.66350  0.52290  0.96480  Biso   1.000  O
  O7       1.0000 0.28960  0.23140  0.92980  Biso   1.000  O
  O8       1.0000 0.71040  0.76860  0.07020  Biso   1.000  O
  O9       1.0000 0.01160  0.15040  0.03680  Biso   1.000  O
  O10      1.0000 0.98840  0.84960  0.96320  Biso   1.000  O
  O11      1.0000 0.85630  0.37740  0.20030  Biso   1.000  O
  O12      1.0000 0.14370  0.62260  0.79970  Biso   1.000  O
  O13      1.0000 0.05800  0.58070  0.19750  Biso   1.000  O
  O14      1.0000 0.94200  0.41930  0.80250  Biso   1.000  O
  O15      1.0000 0.26480  0.14840  0.26780  Biso   1.000  O
  O16      1.0000 0.73520  0.85160  0.73220  Biso   1.000  O
  H1       1.0000 0.34150  0.19690  0.20320  Biso   1.000  H
  H2       1.0000 0.65850  0.80310  0.79680  Biso   1.000  H
  H3       1.0000 0.24030  0.09660  0.20270  Biso   1.000  H
  H4       1.0000 0.75970  0.90340  0.79730  Biso   1.000  H
  O17      1.0000 0.23000  0.37720  0.63620  Biso   1.000  O
  O18      1.0000 0.77000  0.62280  0.36380  Biso   1.000  O
  H5       1.0000 0.18900  0.36150  0.56200  Biso   1.000  H
  H6       1.0000 0.81100  0.63850  0.43800  Biso   1.000  H
  H7       1.0000 0.17380  0.41980  0.72170  Biso   1.000  H
  H8       1.0000 0.82620  0.58020  0.27830  Biso   1.000  H
  O19      1.0000 0.07770  0.31170  0.44540  Biso   1.000  O
  O20      1.0000 0.92230  0.68830  0.55460  Biso   1.000  O
  H9       1.0000 0.12750  0.27120  0.36200  Biso   1.000  H
  H10      1.0000 0.87250  0.72880  0.63800  Biso   1.000  H
  H11      1.0000 0.05910  0.39640  0.38070  Biso   1.000  H
  H12      1.0000 0.94090  0.60360  0.61930  Biso   1.000  H
  N1       1.0000 0.09880  0.09570  0.76410  Biso   1.000  N
  N2       1.0000 0.90120  0.90430  0.23590  Biso   1.000  N
  H13      1.0000 0.13600  0.18000  0.74080  Biso   1.000  H
  H14      1.0000 0.86400  0.82000  0.25920  Biso   1.000  H
  H15      1.0000 0.00380  0.09510  0.77970  Biso   1.000  H
  H16      1.0000 0.99620  0.90490  0.22030  Biso   1.000  H
  N3       1.0000 0.32440  0.91010  0.84370  Biso   1.000  N
  N4       1.0000 0.67560  0.08990  0.15630  Biso   1.000  N
  N5       1.0000 0.35950  0.77120  0.15890  Biso   1.000  N
  N6       1.0000 0.64050  0.22880  0.84110  Biso   1.000  N
  N7       1.0000 0.52580  0.52540  0.23570  Biso   1.000  N
  N8       1.0000 0.47420  0.47460  0.76430  Biso   1.000  N
  H17      1.0000 0.54450  0.43540  0.21710  Biso   1.000  H
  H18      1.0000 0.45550  0.56460  0.78290  Biso   1.000  H
  H19      1.0000 0.59750  0.54860  0.25720  Biso   1.000  H
  H20      1.0000 0.40250  0.45140  0.74280  Biso   1.000  H
  C1       1.0000 0.15150  0.01350  0.64800  Biso   1.000  C
  C2       1.0000 0.84850  0.98650  0.35200  Biso   1.000  C
  H21      1.0000 0.11830  0.05730  0.57140  Biso   1.000  H
  H22      1.0000 0.88170  0.94270  0.42860  Biso   1.000  H
  H23      1.0000 0.11430  0.92320  0.66730  Biso   1.000  H
  H24      1.0000 0.88570  0.07680  0.33270  Biso   1.000  H
  C3       1.0000 0.31060  0.99910  0.61490  Biso   1.000  C
  C4       1.0000 0.68940  0.00090  0.38510  Biso   1.000  C
  H25      1.0000 0.34680  0.08660  0.62370  Biso   1.000  H
  H26      1.0000 0.65320  0.91340  0.37630  Biso   1.000  H
  H27      1.0000 0.34190  0.97770  0.52230  Biso   1.000  H
  H28      1.0000 0.65810  0.02230  0.47770  Biso   1.000  H
  C5       1.0000 0.37370  0.88960  0.70190  Biso   1.000  C
  C6       1.0000 0.62630  0.11040  0.29810  Biso   1.000  C
  H29      1.0000 0.34850  0.80010  0.68450  Biso   1.000  H
  H30      1.0000 0.65150  0.19990  0.31550  Biso   1.000  H
  H31      1.0000 0.47570  0.89120  0.67860  Biso   1.000  H
  H32      1.0000 0.52430  0.10880  0.32140  Biso   1.000  H
  C7       1.0000 0.37890  0.83440  0.92900  Biso   1.000  C
  C8       1.0000 0.62110  0.16560  0.07100  Biso   1.000  C
  C9       1.0000 0.31190  0.85460  0.07360  Biso   1.000  C
  C10      1.0000 0.68810  0.14540  0.92640  Biso   1.000  C
  C11      1.0000 0.29220  0.77380  0.30000  Biso   1.000  C
  C12      1.0000 0.70780  0.22620  0.70000  Biso   1.000  C
  H33      1.0000 0.19690  0.74410  0.31360  Biso   1.000  H
  H34      1.0000 0.80310  0.25590  0.68640  Biso   1.000  H
  H35      1.0000 0.28610  0.86730  0.32590  Biso   1.000  H
  H36      1.0000 0.71390  0.13270  0.67410  Biso   1.000  H
  C13      1.0000 0.37240  0.68200  0.38830  Biso   1.000  C
  C14      1.0000 0.62760  0.31800  0.61170  Biso   1.000  C
  H37      1.0000 0.46080  0.72220  0.38690  Biso   1.000  H
  H38      1.0000 0.53920  0.27780  0.61310  Biso   1.000  H
  H39      1.0000 0.31780  0.67980  0.47950  Biso   1.000  H
  H40      1.0000 0.68220  0.32020  0.52050  Biso   1.000  H
  C15      1.0000 0.40400  0.53600  0.34810  Biso   1.000  C
  C16      1.0000 0.59600  0.46400  0.65190  Biso   1.000  C
  H41      1.0000 0.42280  0.47710  0.42380  Biso   1.000  H
  H42      1.0000 0.57720  0.52290  0.57620  Biso   1.000  H
  H43      1.0000 0.32210  0.50420  0.32320  Biso   1.000  H
  H44      1.0000 0.67790  0.49580  0.67680  Biso   1.000  H
  C17      1.0000 0.21730  0.42630  0.05660  Biso   1.000  C
  C18      1.0000 0.78270  0.57370  0.94340  Biso   1.000  C
  C19      1.0000 0.19650  0.30020  0.00480  Biso   1.000  C
  C20      1.0000 0.80350  0.69980  0.99520  Biso   1.000  C
  C21      1.0000 0.05470  0.26300  0.05730  Biso   1.000  C
  C22      1.0000 0.94530  0.73700  0.94270  Biso   1.000  C
  C23      1.0000 0.98010  0.37150  0.13830  Biso   1.000  C
  C24      1.0000 0.01990  0.62850  0.86170  Biso   1.000  C
  C25      1.0000 0.08430  0.47610  0.13730  Biso   1.000  C
  C26      1.0000 0.91570  0.52390  0.86270  Biso   1.000  C
