data_image0
_cell_length_a       18.973
_cell_length_b       10.5682
_cell_length_c       19.633
_cell_angle_alpha    90
_cell_angle_beta     94.565
_cell_angle_gamma    90

_symmetry_space_group_name_H-M    "P 1"
_symmetry_int_tables_number       1

loop_
  _symmetry_equiv_pos_as_xyz
  'x, y, z'

loop_
  _atom_site_label
  _atom_site_occupancy
  _atom_site_fract_x
  _atom_site_fract_y
  _atom_site_fract_z
  _atom_site_thermal_displace_type
  _atom_site_B_iso_or_equiv
  _atom_site_type_symbol
  Cu1      1.0000 0.04636  0.05815  0.06743  Biso   1.000  Cu
  Cu2      1.0000 0.54636  0.55815  0.06743  Biso   1.000  Cu
  Cu3      1.0000 0.04636  0.94185  0.56743  Biso   1.000  Cu
  Cu4      1.0000 0.54636  0.44185  0.56743  Biso   1.000  Cu
  Cu5      1.0000 0.95364  0.94185  0.93257  Biso   1.000  Cu
  Cu6      1.0000 0.45364  0.44185  0.93257  Biso   1.000  Cu
  Cu7      1.0000 0.95364  0.05815  0.43257  Biso   1.000  Cu
  Cu8      1.0000 0.45364  0.55815  0.43257  Biso   1.000  Cu
  Cu9      1.0000 0.00000  0.18667  0.25000  Biso   1.000  Cu
  Cu10     1.0000 0.50000  0.68667  0.25000  Biso   1.000  Cu
  Cu11     1.0000 0.00000  0.81333  0.75000  Biso   1.000  Cu
  Cu12     1.0000 0.50000  0.31333  0.75000  Biso   1.000  Cu
  V1       1.0000 0.96378  0.80181  0.10443  Biso   1.000  V
  V2       1.0000 0.46378  0.30181  0.10443  Biso   1.000  V
  V3       1.0000 0.96378  0.19819  0.60443  Biso   1.000  V
  V4       1.0000 0.46378  0.69819  0.60443  Biso   1.000  V
  V5       1.0000 0.03622  0.19819  0.89557  Biso   1.000  V
  V6       1.0000 0.53622  0.69819  0.89557  Biso   1.000  V
  V7       1.0000 0.03622  0.80181  0.39557  Biso   1.000  V
  V8       1.0000 0.53622  0.30181  0.39557  Biso   1.000  V
  V9       1.0000 0.89079  0.94624  0.23763  Biso   1.000  V
  V10      1.0000 0.39079  0.44624  0.23763  Biso   1.000  V
  V11      1.0000 0.89079  0.05376  0.73763  Biso   1.000  V
  V12      1.0000 0.39079  0.55376  0.73763  Biso   1.000  V
  V13      1.0000 0.10921  0.05376  0.76237  Biso   1.000  V
  V14      1.0000 0.60921  0.55376  0.76237  Biso   1.000  V
  V15      1.0000 0.10921  0.94624  0.26237  Biso   1.000  V
  V16      1.0000 0.60921  0.44624  0.26237  Biso   1.000  V
  V17      1.0000 0.86957  0.80156  0.38361  Biso   1.000  V
  V18      1.0000 0.36957  0.30156  0.38361  Biso   1.000  V
  V19      1.0000 0.86957  0.19844  0.88361  Biso   1.000  V
  V20      1.0000 0.36957  0.69844  0.88361  Biso   1.000  V
  V21      1.0000 0.13043  0.19844  0.61639  Biso   1.000  V
  V22      1.0000 0.63043  0.69844  0.61639  Biso   1.000  V
  V23      1.0000 0.13043  0.80156  0.11639  Biso   1.000  V
  V24      1.0000 0.63043  0.30156  0.11639  Biso   1.000  V
  O1       1.0000 0.97090  0.93050  0.05320  Biso   1.000  O
  O2       1.0000 0.47090  0.43050  0.05320  Biso   1.000  O
  O3       1.0000 0.97090  0.06950  0.55320  Biso   1.000  O
  O4       1.0000 0.47090  0.56950  0.55320  Biso   1.000  O
  O5       1.0000 0.02910  0.06950  0.94680  Biso   1.000  O
  O6       1.0000 0.52910  0.56950  0.94680  Biso   1.000  O
  O7       1.0000 0.02910  0.93050  0.44680  Biso   1.000  O
  O8       1.0000 0.52910  0.43050  0.44680  Biso   1.000  O
  O9       1.0000 0.87890  0.93230  0.43220  Biso   1.000  O
  O10      1.0000 0.37890  0.43230  0.43220  Biso   1.000  O
  O11      1.0000 0.87890  0.06770  0.93220  Biso   1.000  O
  O12      1.0000 0.37890  0.56770  0.93220  Biso   1.000  O
  O13      1.0000 0.12110  0.06770  0.56780  Biso   1.000  O
  O14      1.0000 0.62110  0.56770  0.56780  Biso   1.000  O
  O15      1.0000 0.12110  0.93230  0.06780  Biso   1.000  O
  O16      1.0000 0.62110  0.43230  0.06780  Biso   1.000  O
  O17      1.0000 0.94560  0.85050  0.18840  Biso   1.000  O
  O18      1.0000 0.44560  0.35050  0.18840  Biso   1.000  O
  O19      1.0000 0.94560  0.14950  0.68840  Biso   1.000  O
  O20      1.0000 0.44560  0.64950  0.68840  Biso   1.000  O
  O21      1.0000 0.05440  0.14950  0.81160  Biso   1.000  O
  O22      1.0000 0.55440  0.64950  0.81160  Biso   1.000  O
  O23      1.0000 0.05440  0.85050  0.31160  Biso   1.000  O
  O24      1.0000 0.55440  0.35050  0.31160  Biso   1.000  O
  O25      1.0000 0.90160  0.71100  0.07090  Biso   1.000  O
  O26      1.0000 0.40160  0.21100  0.07090  Biso   1.000  O
  O27      1.0000 0.90160  0.28900  0.57090  Biso   1.000  O
  O28      1.0000 0.40160  0.78900  0.57090  Biso   1.000  O
  O29      1.0000 0.09840  0.28900  0.92910  Biso   1.000  O
  O30      1.0000 0.59840  0.78900  0.92910  Biso   1.000  O
  O31      1.0000 0.09840  0.71100  0.42910  Biso   1.000  O
  O32      1.0000 0.59840  0.21100  0.42910  Biso   1.000  O
  O33      1.0000 0.04640  0.71810  0.10870  Biso   1.000  O
  O34      1.0000 0.54640  0.21810  0.10870  Biso   1.000  O
  O35      1.0000 0.04640  0.28190  0.60870  Biso   1.000  O
  O36      1.0000 0.54640  0.78190  0.60870  Biso   1.000  O
  O37      1.0000 0.95360  0.28190  0.89130  Biso   1.000  O
  O38      1.0000 0.45360  0.78190  0.89130  Biso   1.000  O
  O39      1.0000 0.95360  0.71810  0.39130  Biso   1.000  O
  O40      1.0000 0.45360  0.21810  0.39130  Biso   1.000  O
  O41      1.0000 0.80720  0.71440  0.40880  Biso   1.000  O
  O42      1.0000 0.30720  0.21440  0.40880  Biso   1.000  O
  O43      1.0000 0.80720  0.28560  0.90880  Biso   1.000  O
  O44      1.0000 0.30720  0.78560  0.90880  Biso   1.000  O
  O45      1.0000 0.19280  0.28560  0.59120  Biso   1.000  O
  O46      1.0000 0.69280  0.78560  0.59120  Biso   1.000  O
  O47      1.0000 0.19280  0.71440  0.09120  Biso   1.000  O
  O48      1.0000 0.69280  0.21440  0.09120  Biso   1.000  O
  O49      1.0000 0.84900  0.84540  0.29470  Biso   1.000  O
  O50      1.0000 0.34900  0.34540  0.29470  Biso   1.000  O
  O51      1.0000 0.84900  0.15460  0.79470  Biso   1.000  O
  O52      1.0000 0.34900  0.65460  0.79470  Biso   1.000  O
  O53      1.0000 0.15100  0.15460  0.70530  Biso   1.000  O
  O54      1.0000 0.65100  0.65460  0.70530  Biso   1.000  O
  O55      1.0000 0.15100  0.84540  0.20530  Biso   1.000  O
  O56      1.0000 0.65100  0.34540  0.20530  Biso   1.000  O
  O57      1.0000 0.93790  0.06070  0.28120  Biso   1.000  O
  O58      1.0000 0.43790  0.56070  0.28120  Biso   1.000  O
  O59      1.0000 0.93790  0.93930  0.78120  Biso   1.000  O
  O60      1.0000 0.43790  0.43930  0.78120  Biso   1.000  O
  O61      1.0000 0.06210  0.93930  0.71880  Biso   1.000  O
  O62      1.0000 0.56210  0.43930  0.71880  Biso   1.000  O
  O63      1.0000 0.06210  0.06070  0.21880  Biso   1.000  O
  O64      1.0000 0.56210  0.56070  0.21880  Biso   1.000  O
  O65      1.0000 0.83000  0.01330  0.18720  Biso   1.000  O
  O66      1.0000 0.33000  0.51330  0.18720  Biso   1.000  O
  O67      1.0000 0.83000  0.98670  0.68720  Biso   1.000  O
  O68      1.0000 0.33000  0.48670  0.68720  Biso   1.000  O
  O69      1.0000 0.17000  0.98670  0.81280  Biso   1.000  O
  O70      1.0000 0.67000  0.48670  0.81280  Biso   1.000  O
  O71      1.0000 0.17000  0.01330  0.31280  Biso   1.000  O
  O72      1.0000 0.67000  0.51330  0.31280  Biso   1.000  O
  N1       1.0000 0.97750  0.19860  0.07670  Biso   1.000  N
  N2       1.0000 0.47750  0.69860  0.07670  Biso   1.000  N
  N3       1.0000 0.97750  0.80140  0.57670  Biso   1.000  N
  N4       1.0000 0.47750  0.30140  0.57670  Biso   1.000  N
  N5       1.0000 0.02250  0.80140  0.92330  Biso   1.000  N
  N6       1.0000 0.52250  0.30140  0.92330  Biso   1.000  N
  N7       1.0000 0.02250  0.19860  0.42330  Biso   1.000  N
  N8       1.0000 0.52250  0.69860  0.42330  Biso   1.000  N
  N9       1.0000 0.11520  0.19870  0.07970  Biso   1.000  N
  N10      1.0000 0.61520  0.69870  0.07970  Biso   1.000  N
  N11      1.0000 0.11520  0.80130  0.57970  Biso   1.000  N
  N12      1.0000 0.61520  0.30130  0.57970  Biso   1.000  N
  N13      1.0000 0.88480  0.80130  0.92030  Biso   1.000  N
  N14      1.0000 0.38480  0.30130  0.92030  Biso   1.000  N
  N15      1.0000 0.88480  0.19870  0.42030  Biso   1.000  N
  N16      1.0000 0.38480  0.69870  0.42030  Biso   1.000  N
  N17      1.0000 0.06740  0.32800  0.25290  Biso   1.000  N
  N18      1.0000 0.56740  0.82800  0.25290  Biso   1.000  N
  N19      1.0000 0.06740  0.67200  0.75290  Biso   1.000  N
  N20      1.0000 0.56740  0.17200  0.75290  Biso   1.000  N
  N21      1.0000 0.93260  0.67200  0.74710  Biso   1.000  N
  N22      1.0000 0.43260  0.17200  0.74710  Biso   1.000  N
  N23      1.0000 0.93260  0.32800  0.24710  Biso   1.000  N
  N24      1.0000 0.43260  0.82800  0.24710  Biso   1.000  N
  C1       1.0000 0.90650  0.18720  0.07460  Biso   1.000  C
  C2       1.0000 0.40650  0.68720  0.07460  Biso   1.000  C
  C3       1.0000 0.90650  0.81280  0.57460  Biso   1.000  C
  C4       1.0000 0.40650  0.31280  0.57460  Biso   1.000  C
  C5       1.0000 0.09350  0.81280  0.92540  Biso   1.000  C
  C6       1.0000 0.59350  0.31280  0.92540  Biso   1.000  C
  C7       1.0000 0.09350  0.18720  0.42540  Biso   1.000  C
  C8       1.0000 0.59350  0.68720  0.42540  Biso   1.000  C
  H1       1.0000 0.88690  0.10650  0.07440  Biso   1.000  H
  H2       1.0000 0.38690  0.60650  0.07440  Biso   1.000  H
  H3       1.0000 0.88690  0.89350  0.57440  Biso   1.000  H
  H4       1.0000 0.38690  0.39350  0.57440  Biso   1.000  H
  H5       1.0000 0.11310  0.89350  0.92560  Biso   1.000  H
  H6       1.0000 0.61310  0.39350  0.92560  Biso   1.000  H
  H7       1.0000 0.11310  0.10650  0.42560  Biso   1.000  H
  H8       1.0000 0.61310  0.60650  0.42560  Biso   1.000  H
  C9       1.0000 0.86240  0.28870  0.07280  Biso   1.000  C
  C10      1.0000 0.36240  0.78870  0.07280  Biso   1.000  C
  C11      1.0000 0.86240  0.71130  0.57280  Biso   1.000  C
  C12      1.0000 0.36240  0.21130  0.57280  Biso   1.000  C
  C13      1.0000 0.13760  0.71130  0.92720  Biso   1.000  C
  C14      1.0000 0.63760  0.21130  0.92720  Biso   1.000  C
  C15      1.0000 0.13760  0.28870  0.42720  Biso   1.000  C
  C16      1.0000 0.63760  0.78870  0.42720  Biso   1.000  C
  H9       1.0000 0.81370  0.27770  0.07170  Biso   1.000  H
  H10      1.0000 0.31370  0.77770  0.07170  Biso   1.000  H
  H11      1.0000 0.81370  0.72230  0.57170  Biso   1.000  H
  H12      1.0000 0.31370  0.22230  0.57170  Biso   1.000  H
  H13      1.0000 0.18630  0.72230  0.92830  Biso   1.000  H
  H14      1.0000 0.68630  0.22230  0.92830  Biso   1.000  H
  H15      1.0000 0.18630  0.27770  0.42830  Biso   1.000  H
  H16      1.0000 0.68630  0.77770  0.42830  Biso   1.000  H
  C17      1.0000 0.89210  0.41180  0.07250  Biso   1.000  C
  C18      1.0000 0.39210  0.91180  0.07250  Biso   1.000  C
  C19      1.0000 0.89210  0.58820  0.57250  Biso   1.000  C
  C20      1.0000 0.39210  0.08820  0.57250  Biso   1.000  C
  C21      1.0000 0.10790  0.58820  0.92750  Biso   1.000  C
  C22      1.0000 0.60790  0.08820  0.92750  Biso   1.000  C
  C23      1.0000 0.10790  0.41180  0.42750  Biso   1.000  C
  C24      1.0000 0.60790  0.91180  0.42750  Biso   1.000  C
  H17      1.0000 0.86350  0.48340  0.07030  Biso   1.000  H
  H18      1.0000 0.36350  0.98340  0.07030  Biso   1.000  H
  H19      1.0000 0.86350  0.51660  0.57030  Biso   1.000  H
  H20      1.0000 0.36350  0.01660  0.57030  Biso   1.000  H
  H21      1.0000 0.13650  0.51660  0.92970  Biso   1.000  H
  H22      1.0000 0.63650  0.01660  0.92970  Biso   1.000  H
  H23      1.0000 0.13650  0.48340  0.42970  Biso   1.000  H
  H24      1.0000 0.63650  0.98340  0.42970  Biso   1.000  H
  C25      1.0000 0.96460  0.42190  0.07560  Biso   1.000  C
  C26      1.0000 0.46460  0.92190  0.07560  Biso   1.000  C
  C27      1.0000 0.96460  0.57810  0.57560  Biso   1.000  C
  C28      1.0000 0.46460  0.07810  0.57560  Biso   1.000  C
  C29      1.0000 0.03540  0.57810  0.92440  Biso   1.000  C
  C30      1.0000 0.53540  0.07810  0.92440  Biso   1.000  C
  C31      1.0000 0.03540  0.42190  0.42440  Biso   1.000  C
  C32      1.0000 0.53540  0.92190  0.42440  Biso   1.000  C
  H25      1.0000 0.98560  0.50140  0.07560  Biso   1.000  H
  H26      1.0000 0.48560  0.00140  0.07560  Biso   1.000  H
  H27      1.0000 0.98560  0.49860  0.57560  Biso   1.000  H
  H28      1.0000 0.48560  0.99860  0.57560  Biso   1.000  H
  H29      1.0000 0.01440  0.49860  0.92440  Biso   1.000  H
  H30      1.0000 0.51440  0.99860  0.92440  Biso   1.000  H
  H31      1.0000 0.01440  0.50140  0.42440  Biso   1.000  H
  H32      1.0000 0.51440  0.00140  0.42440  Biso   1.000  H
  C33      1.0000 0.00630  0.31480  0.07870  Biso   1.000  C
  C34      1.0000 0.50630  0.81480  0.07870  Biso   1.000  C
  C35      1.0000 0.00630  0.68520  0.57870  Biso   1.000  C
  C36      1.0000 0.50630  0.18520  0.57870  Biso   1.000  C
  C37      1.0000 0.99370  0.68520  0.92130  Biso   1.000  C
  C38      1.0000 0.49370  0.18520  0.92130  Biso   1.000  C
  C39      1.0000 0.99370  0.31480  0.42130  Biso   1.000  C
  C40      1.0000 0.49370  0.81480  0.42130  Biso   1.000  C
  C41      1.0000 0.12630  0.42390  0.08480  Biso   1.000  C
  C42      1.0000 0.62630  0.92390  0.08480  Biso   1.000  C
  C43      1.0000 0.12630  0.57610  0.58480  Biso   1.000  C
  C44      1.0000 0.62630  0.07610  0.58480  Biso   1.000  C
  C45      1.0000 0.87370  0.57610  0.91520  Biso   1.000  C
  C46      1.0000 0.37370  0.07610  0.91520  Biso   1.000  C
  C47      1.0000 0.87370  0.42390  0.41520  Biso   1.000  C
  C48      1.0000 0.37370  0.92390  0.41520  Biso   1.000  C
  H33      1.0000 0.10480  0.50290  0.08550  Biso   1.000  H
  H34      1.0000 0.60480  0.00290  0.08550  Biso   1.000  H
  H35      1.0000 0.10480  0.49710  0.58550  Biso   1.000  H
  H36      1.0000 0.60480  0.99710  0.58550  Biso   1.000  H
  H37      1.0000 0.89520  0.49710  0.91450  Biso   1.000  H
  H38      1.0000 0.39520  0.99710  0.91450  Biso   1.000  H
  H39      1.0000 0.89520  0.50290  0.41450  Biso   1.000  H
  H40      1.0000 0.39520  0.00290  0.41450  Biso   1.000  H
  C49      1.0000 0.19930  0.41340  0.08790  Biso   1.000  C
  C50      1.0000 0.69930  0.91340  0.08790  Biso   1.000  C
  C51      1.0000 0.19930  0.58660  0.58790  Biso   1.000  C
  C52      1.0000 0.69930  0.08660  0.58790  Biso   1.000  C
  C53      1.0000 0.80070  0.58660  0.91210  Biso   1.000  C
  C54      1.0000 0.30070  0.08660  0.91210  Biso   1.000  C
  C55      1.0000 0.80070  0.41340  0.41210  Biso   1.000  C
  C56      1.0000 0.30070  0.91340  0.41210  Biso   1.000  C
  H41      1.0000 0.22730  0.48560  0.09140  Biso   1.000  H
  H42      1.0000 0.72730  0.98560  0.09140  Biso   1.000  H
  H43      1.0000 0.22730  0.51440  0.59140  Biso   1.000  H
  H44      1.0000 0.72730  0.01440  0.59140  Biso   1.000  H
  H45      1.0000 0.77270  0.51440  0.90860  Biso   1.000  H
  H46      1.0000 0.27270  0.01440  0.90860  Biso   1.000  H
  H47      1.0000 0.77270  0.48560  0.40860  Biso   1.000  H
  H48      1.0000 0.27270  0.98560  0.40860  Biso   1.000  H
  C57      1.0000 0.23080  0.29350  0.08590  Biso   1.000  C
  C58      1.0000 0.73080  0.79350  0.08590  Biso   1.000  C
  C59      1.0000 0.23080  0.70650  0.58590  Biso   1.000  C
  C60      1.0000 0.73080  0.20650  0.58590  Biso   1.000  C
  C61      1.0000 0.76920  0.70650  0.91410  Biso   1.000  C
  C62      1.0000 0.26920  0.20650  0.91410  Biso   1.000  C
  C63      1.0000 0.76920  0.29350  0.41410  Biso   1.000  C
  C64      1.0000 0.26920  0.79350  0.41410  Biso   1.000  C
  H49      1.0000 0.27970  0.28370  0.08820  Biso   1.000  H
  H50      1.0000 0.77970  0.78370  0.08820  Biso   1.000  H
  H51      1.0000 0.27970  0.71630  0.58820  Biso   1.000  H
  H52      1.0000 0.77970  0.21630  0.58820  Biso   1.000  H
  H53      1.0000 0.72030  0.71630  0.91180  Biso   1.000  H
  H54      1.0000 0.22030  0.21630  0.91180  Biso   1.000  H
  H55      1.0000 0.72030  0.28370  0.41180  Biso   1.000  H
  H56      1.0000 0.22030  0.78370  0.41180  Biso   1.000  H
  C65      1.0000 0.18570  0.19060  0.08050  Biso   1.000  C
  C66      1.0000 0.68570  0.69060  0.08050  Biso   1.000  C
  C67      1.0000 0.18570  0.80940  0.58050  Biso   1.000  C
  C68      1.0000 0.68570  0.30940  0.58050  Biso   1.000  C
  C69      1.0000 0.81430  0.80940  0.91950  Biso   1.000  C
  C70      1.0000 0.31430  0.30940  0.91950  Biso   1.000  C
  C71      1.0000 0.81430  0.19060  0.41950  Biso   1.000  C
  C72      1.0000 0.31430  0.69060  0.41950  Biso   1.000  C
  H57      1.0000 0.20560  0.11060  0.07710  Biso   1.000  H
  H58      1.0000 0.70560  0.61060  0.07710  Biso   1.000  H
  H59      1.0000 0.20560  0.88940  0.57710  Biso   1.000  H
  H60      1.0000 0.70560  0.38940  0.57710  Biso   1.000  H
  H61      1.0000 0.79440  0.88940  0.92290  Biso   1.000  H
  H62      1.0000 0.29440  0.38940  0.92290  Biso   1.000  H
  H63      1.0000 0.79440  0.11060  0.42290  Biso   1.000  H
  H64      1.0000 0.29440  0.61060  0.42290  Biso   1.000  H
  C73      1.0000 0.03870  0.44450  0.25190  Biso   1.000  C
  C74      1.0000 0.53870  0.94450  0.25190  Biso   1.000  C
  C75      1.0000 0.03870  0.55550  0.75190  Biso   1.000  C
  C76      1.0000 0.53870  0.05550  0.75190  Biso   1.000  C
  C77      1.0000 0.96130  0.55550  0.74810  Biso   1.000  C
  C78      1.0000 0.46130  0.05550  0.74810  Biso   1.000  C
  C79      1.0000 0.96130  0.44450  0.24810  Biso   1.000  C
  C80      1.0000 0.46130  0.94450  0.24810  Biso   1.000  C
  C81      1.0000 0.08020  0.55560  0.25450  Biso   1.000  C
  C82      1.0000 0.58020  0.05560  0.25450  Biso   1.000  C
  C83      1.0000 0.08020  0.44440  0.75450  Biso   1.000  C
  C84      1.0000 0.58020  0.94440  0.75450  Biso   1.000  C
  C85      1.0000 0.91980  0.44440  0.74550  Biso   1.000  C
  C86      1.0000 0.41980  0.94440  0.74550  Biso   1.000  C
  C87      1.0000 0.91980  0.55560  0.24550  Biso   1.000  C
  C88      1.0000 0.41980  0.05560  0.24550  Biso   1.000  C
  H65      1.0000 0.05980  0.63570  0.25340  Biso   1.000  H
  H66      1.0000 0.55980  0.13570  0.25340  Biso   1.000  H
  H67      1.0000 0.05980  0.36430  0.75340  Biso   1.000  H
  H68      1.0000 0.55980  0.86430  0.75340  Biso   1.000  H
  H69      1.0000 0.94020  0.36430  0.74660  Biso   1.000  H
  H70      1.0000 0.44020  0.86430  0.74660  Biso   1.000  H
  H71      1.0000 0.94020  0.63570  0.24660  Biso   1.000  H
  H72      1.0000 0.44020  0.13570  0.24660  Biso   1.000  H
  C89      1.0000 0.15350  0.53880  0.25880  Biso   1.000  C
  C90      1.0000 0.65350  0.03880  0.25880  Biso   1.000  C
  C91      1.0000 0.15350  0.46120  0.75880  Biso   1.000  C
  C92      1.0000 0.65350  0.96120  0.75880  Biso   1.000  C
  C93      1.0000 0.84650  0.46120  0.74120  Biso   1.000  C
  C94      1.0000 0.34650  0.96120  0.74120  Biso   1.000  C
  C95      1.0000 0.84650  0.53880  0.24120  Biso   1.000  C
  C96      1.0000 0.34650  0.03880  0.24120  Biso   1.000  C
  H73      1.0000 0.18270  0.60960  0.26030  Biso   1.000  H
  H74      1.0000 0.68270  0.10960  0.26030  Biso   1.000  H
  H75      1.0000 0.18270  0.39040  0.76030  Biso   1.000  H
  H76      1.0000 0.68270  0.89040  0.76030  Biso   1.000  H
  H77      1.0000 0.81730  0.39040  0.73970  Biso   1.000  H
  H78      1.0000 0.31730  0.89040  0.73970  Biso   1.000  H
  H79      1.0000 0.81730  0.60960  0.23970  Biso   1.000  H
  H80      1.0000 0.31730  0.10960  0.23970  Biso   1.000  H
  C97      1.0000 0.18360  0.42090  0.26080  Biso   1.000  C
  C98      1.0000 0.68360  0.92090  0.26080  Biso   1.000  C
  C99      1.0000 0.18360  0.57910  0.76080  Biso   1.000  C
  C100     1.0000 0.68360  0.07910  0.76080  Biso   1.000  C
  C101     1.0000 0.81640  0.57910  0.73920  Biso   1.000  C
  C102     1.0000 0.31640  0.07910  0.73920  Biso   1.000  C
  C103     1.0000 0.81640  0.42090  0.23920  Biso   1.000  C
  C104     1.0000 0.31640  0.92090  0.23920  Biso   1.000  C
  H81      1.0000 0.23250  0.41110  0.26450  Biso   1.000  H
  H82      1.0000 0.73250  0.91110  0.26450  Biso   1.000  H
  H83      1.0000 0.23250  0.58890  0.76450  Biso   1.000  H
  H84      1.0000 0.73250  0.08890  0.76450  Biso   1.000  H
  H85      1.0000 0.76750  0.58890  0.73550  Biso   1.000  H
  H86      1.0000 0.26750  0.08890  0.73550  Biso   1.000  H
  H87      1.0000 0.76750  0.41110  0.23550  Biso   1.000  H
  H88      1.0000 0.26750  0.91110  0.23550  Biso   1.000  H
  C105     1.0000 0.13840  0.31460  0.25710  Biso   1.000  C
  C106     1.0000 0.63840  0.81460  0.25710  Biso   1.000  C
  C107     1.0000 0.13840  0.68540  0.75710  Biso   1.000  C
  C108     1.0000 0.63840  0.18540  0.75710  Biso   1.000  C
  C109     1.0000 0.86160  0.68540  0.74290  Biso   1.000  C
  C110     1.0000 0.36160  0.18540  0.74290  Biso   1.000  C
  C111     1.0000 0.86160  0.31460  0.24290  Biso   1.000  C
  C112     1.0000 0.36160  0.81460  0.24290  Biso   1.000  C
  H89      1.0000 0.15790  0.23380  0.25750  Biso   1.000  H
  H90      1.0000 0.65790  0.73380  0.25750  Biso   1.000  H
  H91      1.0000 0.15790  0.76620  0.75750  Biso   1.000  H
  H92      1.0000 0.65790  0.26620  0.75750  Biso   1.000  H
  H93      1.0000 0.84210  0.76620  0.74250  Biso   1.000  H
  H94      1.0000 0.34210  0.26620  0.74250  Biso   1.000  H
  H95      1.0000 0.84210  0.23380  0.24250  Biso   1.000  H
  H96      1.0000 0.34210  0.73380  0.24250  Biso   1.000  H
  C113     1.0000 0.08640  0.31590  0.08060  Biso   1.000  C
  C114     1.0000 0.58640  0.81590  0.08060  Biso   1.000  C
  C115     1.0000 0.08640  0.68410  0.58060  Biso   1.000  C
  C116     1.0000 0.58640  0.18410  0.58060  Biso   1.000  C
  C117     1.0000 0.91360  0.68410  0.91940  Biso   1.000  C
  C118     1.0000 0.41360  0.18410  0.91940  Biso   1.000  C
  C119     1.0000 0.91360  0.31590  0.41940  Biso   1.000  C
  C120     1.0000 0.41360  0.81590  0.41940  Biso   1.000  C
