data_image0
_cell_length_a       9.3222
_cell_length_b       21.2995
_cell_length_c       8.3524
_cell_angle_alpha    90
_cell_angle_beta     92.787
_cell_angle_gamma    90

_symmetry_space_group_name_H-M    "P 1"
_symmetry_int_tables_number       1

loop_
  _symmetry_equiv_pos_as_xyz
  'x, y, z'

loop_
  _atom_site_label
  _atom_site_occupancy
  _atom_site_fract_x
  _atom_site_fract_y
  _atom_site_fract_z
  _atom_site_thermal_displace_type
  _atom_site_B_iso_or_equiv
  _atom_site_type_symbol
  Cu1      1.0000 0.02996  0.37919  0.60516  Biso   1.000  Cu
  Cu2      1.0000 0.02996  0.12081  0.10516  Biso   1.000  Cu
  Cu3      1.0000 0.97004  0.62081  0.39484  Biso   1.000  Cu
  Cu4      1.0000 0.97004  0.87919  0.89484  Biso   1.000  Cu
  V1       1.0000 0.28104  0.32015  0.33807  Biso   1.000  V
  V2       1.0000 0.28104  0.17985  0.83807  Biso   1.000  V
  V3       1.0000 0.71896  0.67985  0.66193  Biso   1.000  V
  V4       1.0000 0.71896  0.82015  0.16193  Biso   1.000  V
  V5       1.0000 0.24987  0.32703  0.92987  Biso   1.000  V
  V6       1.0000 0.24987  0.17297  0.42987  Biso   1.000  V
  V7       1.0000 0.75013  0.67297  0.07013  Biso   1.000  V
  V8       1.0000 0.75013  0.82703  0.57013  Biso   1.000  V
  O1       1.0000 0.09570  0.33308  0.82430  Biso   1.000  O
  O2       1.0000 0.09570  0.16692  0.32430  Biso   1.000  O
  O3       1.0000 0.90430  0.66692  0.17570  Biso   1.000  O
  O4       1.0000 0.90430  0.83308  0.67570  Biso   1.000  O
  O5       1.0000 0.15030  0.33932  0.46070  Biso   1.000  O
  O6       1.0000 0.15030  0.16068  0.96070  Biso   1.000  O
  O7       1.0000 0.84970  0.66068  0.53930  Biso   1.000  O
  O8       1.0000 0.84970  0.83932  0.03930  Biso   1.000  O
  O9       1.0000 0.20690  0.32422  0.13750  Biso   1.000  O
  O10      1.0000 0.20690  0.17578  0.63750  Biso   1.000  O
  O11      1.0000 0.79310  0.67578  0.86250  Biso   1.000  O
  O12      1.0000 0.79310  0.82422  0.36250  Biso   1.000  O
  O13      1.0000 0.41430  0.36851  0.36170  Biso   1.000  O
  O14      1.0000 0.41430  0.13149  0.86170  Biso   1.000  O
  O15      1.0000 0.58570  0.63149  0.63830  Biso   1.000  O
  O16      1.0000 0.58570  0.86851  0.13830  Biso   1.000  O
  O17      1.0000 0.34750  0.24269  0.37720  Biso   1.000  O
  O18      1.0000 0.34750  0.25731  0.87720  Biso   1.000  O
  O19      1.0000 0.65250  0.75731  0.62280  Biso   1.000  O
  O20      1.0000 0.65250  0.74269  0.12280  Biso   1.000  O
  O21      1.0000 0.34990  0.38780  0.89610  Biso   1.000  O
  O22      1.0000 0.34990  0.11220  0.39610  Biso   1.000  O
  O23      1.0000 0.65010  0.61220  0.10390  Biso   1.000  O
  O24      1.0000 0.65010  0.88780  0.60390  Biso   1.000  O
  N1       1.0000 0.13910  0.46137  0.64060  Biso   1.000  N
  N2       1.0000 0.13910  0.03863  0.14060  Biso   1.000  N
  N3       1.0000 0.86090  0.53863  0.35940  Biso   1.000  N
  N4       1.0000 0.86090  0.96137  0.85940  Biso   1.000  N
  N5       1.0000 0.88120  0.42940  0.69630  Biso   1.000  N
  N6       1.0000 0.88120  0.07060  0.19630  Biso   1.000  N
  N7       1.0000 0.11880  0.57060  0.30370  Biso   1.000  N
  N8       1.0000 0.11880  0.92940  0.80370  Biso   1.000  N
  N9       1.0000 0.86070  0.31876  0.58130  Biso   1.000  N
  N10      1.0000 0.86070  0.18124  0.08130  Biso   1.000  N
  N11      1.0000 0.13930  0.68124  0.41870  Biso   1.000  N
  N12      1.0000 0.13930  0.81876  0.91870  Biso   1.000  N
  C1       1.0000 0.27400  0.47210  0.60550  Biso   1.000  C
  C2       1.0000 0.27400  0.02790  0.10550  Biso   1.000  C
  C3       1.0000 0.72600  0.52790  0.39450  Biso   1.000  C
  C4       1.0000 0.72600  0.97210  0.89450  Biso   1.000  C
  H1       1.0000 0.32590  0.44070  0.55710  Biso   1.000  H
  H2       1.0000 0.32590  0.05930  0.05710  Biso   1.000  H
  H3       1.0000 0.67410  0.55930  0.44290  Biso   1.000  H
  H4       1.0000 0.67410  0.94070  0.94290  Biso   1.000  H
  C5       1.0000 0.33930  0.52940  0.63980  Biso   1.000  C
  C6       1.0000 0.33930  0.97060  0.13980  Biso   1.000  C
  C7       1.0000 0.66070  0.47060  0.36020  Biso   1.000  C
  C8       1.0000 0.66070  0.02940  0.86020  Biso   1.000  C
  H5       1.0000 0.43410  0.53630  0.61460  Biso   1.000  H
  H6       1.0000 0.43410  0.96370  0.11460  Biso   1.000  H
  H7       1.0000 0.56590  0.46370  0.38540  Biso   1.000  H
  H8       1.0000 0.56590  0.03630  0.88540  Biso   1.000  H
  C9       1.0000 0.26280  0.57600  0.71140  Biso   1.000  C
  C10      1.0000 0.26280  0.92400  0.21140  Biso   1.000  C
  C11      1.0000 0.73720  0.42400  0.28860  Biso   1.000  C
  C12      1.0000 0.73720  0.07600  0.78860  Biso   1.000  C
  H9       1.0000 0.30530  0.61480  0.73390  Biso   1.000  H
  H10      1.0000 0.30530  0.88520  0.23390  Biso   1.000  H
  H11      1.0000 0.69470  0.38520  0.26610  Biso   1.000  H
  H12      1.0000 0.69470  0.11480  0.76610  Biso   1.000  H
  C13      1.0000 0.12200  0.56495  0.74980  Biso   1.000  C
  C14      1.0000 0.12200  0.93505  0.24980  Biso   1.000  C
  C15      1.0000 0.87800  0.43505  0.25020  Biso   1.000  C
  C16      1.0000 0.87800  0.06495  0.75020  Biso   1.000  C
  H13      1.0000 0.06830  0.59580  0.79790  Biso   1.000  H
  H14      1.0000 0.06830  0.90420  0.29790  Biso   1.000  H
  H15      1.0000 0.93170  0.40420  0.20210  Biso   1.000  H
  H16      1.0000 0.93170  0.09580  0.70210  Biso   1.000  H
  C17      1.0000 0.06390  0.50633  0.71440  Biso   1.000  C
  C18      1.0000 0.06390  0.99367  0.21440  Biso   1.000  C
  C19      1.0000 0.93610  0.49367  0.28560  Biso   1.000  C
  C20      1.0000 0.93610  0.00633  0.78560  Biso   1.000  C
  C21      1.0000 0.91590  0.48740  0.75220  Biso   1.000  C
  C22      1.0000 0.91590  0.01260  0.25220  Biso   1.000  C
  C23      1.0000 0.08410  0.51260  0.24780  Biso   1.000  C
  C24      1.0000 0.08410  0.98740  0.74780  Biso   1.000  C
  C25      1.0000 0.81670  0.52210  0.83210  Biso   1.000  C
  C26      1.0000 0.81670  0.97790  0.33210  Biso   1.000  C
  C27      1.0000 0.18330  0.47790  0.16790  Biso   1.000  C
  C28      1.0000 0.18330  0.02210  0.66790  Biso   1.000  C
  H17      1.0000 0.83920  0.56210  0.87010  Biso   1.000  H
  H18      1.0000 0.83920  0.93790  0.37010  Biso   1.000  H
  H19      1.0000 0.16080  0.43790  0.12990  Biso   1.000  H
  H20      1.0000 0.16080  0.06210  0.62990  Biso   1.000  H
  C29      1.0000 0.68210  0.49600  0.85480  Biso   1.000  C
  C30      1.0000 0.68210  0.00400  0.35480  Biso   1.000  C
  C31      1.0000 0.31790  0.50400  0.14520  Biso   1.000  C
  C32      1.0000 0.31790  0.99600  0.64520  Biso   1.000  C
  H21      1.0000 0.61430  0.51850  0.90940  Biso   1.000  H
  H22      1.0000 0.61430  0.98150  0.40940  Biso   1.000  H
  H23      1.0000 0.38570  0.48150  0.09060  Biso   1.000  H
  H24      1.0000 0.38570  0.01850  0.59060  Biso   1.000  H
  C33      1.0000 0.64870  0.43610  0.79570  Biso   1.000  C
  C34      1.0000 0.64870  0.06390  0.29570  Biso   1.000  C
  C35      1.0000 0.35130  0.56390  0.20430  Biso   1.000  C
  C36      1.0000 0.35130  0.93610  0.70430  Biso   1.000  C
  H25      1.0000 0.55880  0.41860  0.80910  Biso   1.000  H
  H26      1.0000 0.55880  0.08140  0.30910  Biso   1.000  H
  H27      1.0000 0.44120  0.58140  0.19090  Biso   1.000  H
  H28      1.0000 0.44120  0.91860  0.69090  Biso   1.000  H
  C37      1.0000 0.75210  0.40367  0.71690  Biso   1.000  C
  C38      1.0000 0.75210  0.09633  0.21690  Biso   1.000  C
  C39      1.0000 0.24790  0.59633  0.28310  Biso   1.000  C
  C40      1.0000 0.24790  0.90367  0.78310  Biso   1.000  C
  C41      1.0000 0.74000  0.33924  0.65030  Biso   1.000  C
  C42      1.0000 0.74000  0.16076  0.15030  Biso   1.000  C
  C43      1.0000 0.26000  0.66076  0.34970  Biso   1.000  C
  C44      1.0000 0.26000  0.83924  0.84970  Biso   1.000  C
  C45      1.0000 0.62230  0.30040  0.66410  Biso   1.000  C
  C46      1.0000 0.62230  0.19960  0.16410  Biso   1.000  C
  C47      1.0000 0.37770  0.69960  0.33590  Biso   1.000  C
  C48      1.0000 0.37770  0.80040  0.83590  Biso   1.000  C
  H29      1.0000 0.53970  0.31530  0.70930  Biso   1.000  H
  H30      1.0000 0.53970  0.18470  0.20930  Biso   1.000  H
  H31      1.0000 0.46030  0.68470  0.29070  Biso   1.000  H
  H32      1.0000 0.46030  0.81530  0.79070  Biso   1.000  H
  C49      1.0000 0.62890  0.23900  0.60970  Biso   1.000  C
  C50      1.0000 0.62890  0.26100  0.10970  Biso   1.000  C
  C51      1.0000 0.37110  0.76100  0.39030  Biso   1.000  C
  C52      1.0000 0.37110  0.73900  0.89030  Biso   1.000  C
  H33      1.0000 0.55150  0.21190  0.61910  Biso   1.000  H
  H34      1.0000 0.55150  0.28810  0.11910  Biso   1.000  H
  H35      1.0000 0.44850  0.78810  0.38090  Biso   1.000  H
  H36      1.0000 0.44850  0.71190  0.88090  Biso   1.000  H
  C53      1.0000 0.75370  0.21880  0.54080  Biso   1.000  C
  C54      1.0000 0.75370  0.28120  0.04080  Biso   1.000  C
  C55      1.0000 0.24630  0.78120  0.45920  Biso   1.000  C
  C56      1.0000 0.24630  0.71880  0.95920  Biso   1.000  C
  H37      1.0000 0.76030  0.17780  0.50300  Biso   1.000  H
  H38      1.0000 0.76030  0.32220  0.00300  Biso   1.000  H
  H39      1.0000 0.23970  0.82220  0.49700  Biso   1.000  H
  H40      1.0000 0.23970  0.67780  0.99700  Biso   1.000  H
  C57      1.0000 0.86810  0.25980  0.52870  Biso   1.000  C
  C58      1.0000 0.86810  0.24020  0.02870  Biso   1.000  C
  C59      1.0000 0.13190  0.74020  0.47130  Biso   1.000  C
  C60      1.0000 0.13190  0.75980  0.97130  Biso   1.000  C
  H41      1.0000 0.95150  0.24600  0.48310  Biso   1.000  H
  H42      1.0000 0.95150  0.25400  0.98310  Biso   1.000  H
  H43      1.0000 0.04850  0.75400  0.51690  Biso   1.000  H
  H44      1.0000 0.04850  0.74600  0.01690  Biso   1.000  H
