data_image0
_cell_length_a       17.3718
_cell_length_b       13.3189
_cell_length_c       7.4432
_cell_angle_alpha    90
_cell_angle_beta     110.686
_cell_angle_gamma    90

_symmetry_space_group_name_H-M    "P 1"
_symmetry_int_tables_number       1

loop_
  _symmetry_equiv_pos_as_xyz
  'x, y, z'

loop_
  _atom_site_label
  _atom_site_occupancy
  _atom_site_fract_x
  _atom_site_fract_y
  _atom_site_fract_z
  _atom_site_thermal_displace_type
  _atom_site_B_iso_or_equiv
  _atom_site_type_symbol
  Br1      1.0000 0.41132  0.94209  0.06721  Biso   1.000  Br
  Br2      1.0000 0.91132  0.44209  0.06721  Biso   1.000  Br
  Br3      1.0000 0.41132  0.05791  0.56721  Biso   1.000  Br
  Br4      1.0000 0.91132  0.55791  0.56721  Biso   1.000  Br
  Br5      1.0000 0.58868  0.05791  0.93279  Biso   1.000  Br
  Br6      1.0000 0.08868  0.55791  0.93279  Biso   1.000  Br
  Br7      1.0000 0.58868  0.94209  0.43279  Biso   1.000  Br
  Br8      1.0000 0.08868  0.44209  0.43279  Biso   1.000  Br
  Cu1      1.0000 0.50000  0.08006  0.25000  Biso   1.000  Cu
  Cu2      1.0000 0.00000  0.58006  0.25000  Biso   1.000  Cu
  Cu3      1.0000 0.50000  0.91994  0.75000  Biso   1.000  Cu
  Cu4      1.0000 0.00000  0.41994  0.75000  Biso   1.000  Cu
  Cu5      1.0000 0.50000  0.80756  0.25000  Biso   1.000  Cu
  Cu6      1.0000 0.00000  0.30756  0.25000  Biso   1.000  Cu
  Cu7      1.0000 0.50000  0.19244  0.75000  Biso   1.000  Cu
  Cu8      1.0000 0.00000  0.69244  0.75000  Biso   1.000  Cu
  Br9      1.0000 0.41141  0.20265  0.04500  Biso   1.000  Br
  Br10     1.0000 0.91141  0.70265  0.04500  Biso   1.000  Br
  Br11     1.0000 0.41141  0.79735  0.54500  Biso   1.000  Br
  Br12     1.0000 0.91141  0.29735  0.54500  Biso   1.000  Br
  Br13     1.0000 0.58859  0.79735  0.95500  Biso   1.000  Br
  Br14     1.0000 0.08859  0.29735  0.95500  Biso   1.000  Br
  Br15     1.0000 0.58859  0.20265  0.45500  Biso   1.000  Br
  Br16     1.0000 0.08859  0.70265  0.45500  Biso   1.000  Br
  N1       1.0000 0.42820  0.69360  0.11310  Biso   1.000  N
  N2       1.0000 0.92820  0.19360  0.11310  Biso   1.000  N
  N3       1.0000 0.42820  0.30640  0.61310  Biso   1.000  N
  N4       1.0000 0.92820  0.80640  0.61310  Biso   1.000  N
  N5       1.0000 0.57180  0.30640  0.88690  Biso   1.000  N
  N6       1.0000 0.07180  0.80640  0.88690  Biso   1.000  N
  N7       1.0000 0.57180  0.69360  0.38690  Biso   1.000  N
  N8       1.0000 0.07180  0.19360  0.38690  Biso   1.000  N
  C1       1.0000 0.41400  0.51370  0.09880  Biso   1.000  C
  C2       1.0000 0.91400  0.01370  0.09880  Biso   1.000  C
  C3       1.0000 0.41400  0.48630  0.59880  Biso   1.000  C
  C4       1.0000 0.91400  0.98630  0.59880  Biso   1.000  C
  C5       1.0000 0.58600  0.48630  0.90120  Biso   1.000  C
  C6       1.0000 0.08600  0.98630  0.90120  Biso   1.000  C
  C7       1.0000 0.58600  0.51370  0.40120  Biso   1.000  C
  C8       1.0000 0.08600  0.01370  0.40120  Biso   1.000  C
  H1       1.0000 0.43700  0.45110  0.14140  Biso   1.000  H
  H2       1.0000 0.93700  0.95110  0.14140  Biso   1.000  H
  H3       1.0000 0.43700  0.54890  0.64140  Biso   1.000  H
  H4       1.0000 0.93700  0.04890  0.64140  Biso   1.000  H
  H5       1.0000 0.56300  0.54890  0.85860  Biso   1.000  H
  H6       1.0000 0.06300  0.04890  0.85860  Biso   1.000  H
  H7       1.0000 0.56300  0.45110  0.35860  Biso   1.000  H
  H8       1.0000 0.06300  0.95110  0.35860  Biso   1.000  H
  C9       1.0000 0.45810  0.60040  0.17370  Biso   1.000  C
  C10      1.0000 0.95810  0.10040  0.17370  Biso   1.000  C
  C11      1.0000 0.45810  0.39960  0.67370  Biso   1.000  C
  C12      1.0000 0.95810  0.89960  0.67370  Biso   1.000  C
  C13      1.0000 0.54190  0.39960  0.82630  Biso   1.000  C
  C14      1.0000 0.04190  0.89960  0.82630  Biso   1.000  C
  C15      1.0000 0.54190  0.60040  0.32630  Biso   1.000  C
  C16      1.0000 0.04190  0.10040  0.32630  Biso   1.000  C
  C17      1.0000 0.33470  0.52030  0.95850  Biso   1.000  C
  C18      1.0000 0.83470  0.02030  0.95850  Biso   1.000  C
  C19      1.0000 0.33470  0.47970  0.45850  Biso   1.000  C
  C20      1.0000 0.83470  0.97970  0.45850  Biso   1.000  C
  C21      1.0000 0.66530  0.47970  0.04150  Biso   1.000  C
  C22      1.0000 0.16530  0.97970  0.04150  Biso   1.000  C
  C23      1.0000 0.66530  0.52030  0.54150  Biso   1.000  C
  C24      1.0000 0.16530  0.02030  0.54150  Biso   1.000  C
  C25      1.0000 0.30510  0.61730  0.89710  Biso   1.000  C
  C26      1.0000 0.80510  0.11730  0.89710  Biso   1.000  C
  C27      1.0000 0.30510  0.38270  0.39710  Biso   1.000  C
  C28      1.0000 0.80510  0.88270  0.39710  Biso   1.000  C
  C29      1.0000 0.69490  0.38270  0.10290  Biso   1.000  C
  C30      1.0000 0.19490  0.88270  0.10290  Biso   1.000  C
  C31      1.0000 0.69490  0.61730  0.60290  Biso   1.000  C
  C32      1.0000 0.19490  0.11730  0.60290  Biso   1.000  C
  H9       1.0000 0.25290  0.62560  0.80470  Biso   1.000  H
  H10      1.0000 0.75290  0.12560  0.80470  Biso   1.000  H
  H11      1.0000 0.25290  0.37440  0.30470  Biso   1.000  H
  H12      1.0000 0.75290  0.87440  0.30470  Biso   1.000  H
  H13      1.0000 0.74710  0.37440  0.19530  Biso   1.000  H
  H14      1.0000 0.24710  0.87440  0.19530  Biso   1.000  H
  H15      1.0000 0.74710  0.62560  0.69530  Biso   1.000  H
  H16      1.0000 0.24710  0.12560  0.69530  Biso   1.000  H
  C33      1.0000 0.35270  0.69960  0.97290  Biso   1.000  C
  C34      1.0000 0.85270  0.19960  0.97290  Biso   1.000  C
  C35      1.0000 0.35270  0.30040  0.47290  Biso   1.000  C
  C36      1.0000 0.85270  0.80040  0.47290  Biso   1.000  C
  C37      1.0000 0.64730  0.30040  0.02710  Biso   1.000  C
  C38      1.0000 0.14730  0.80040  0.02710  Biso   1.000  C
  C39      1.0000 0.64730  0.69960  0.52710  Biso   1.000  C
  C40      1.0000 0.14730  0.19960  0.52710  Biso   1.000  C
  H17      1.0000 0.33240  0.76270  0.92620  Biso   1.000  H
  H18      1.0000 0.83240  0.26270  0.92620  Biso   1.000  H
  H19      1.0000 0.33240  0.23730  0.42620  Biso   1.000  H
  H20      1.0000 0.83240  0.73730  0.42620  Biso   1.000  H
  H21      1.0000 0.66760  0.23730  0.07380  Biso   1.000  H
  H22      1.0000 0.16760  0.73730  0.07380  Biso   1.000  H
  H23      1.0000 0.66760  0.76270  0.57380  Biso   1.000  H
  H24      1.0000 0.16760  0.26270  0.57380  Biso   1.000  H
  C41      1.0000 0.28280  0.42980  0.88170  Biso   1.000  C
  C42      1.0000 0.78280  0.92980  0.88170  Biso   1.000  C
  C43      1.0000 0.28280  0.57020  0.38170  Biso   1.000  C
  C44      1.0000 0.78280  0.07020  0.38170  Biso   1.000  C
  C45      1.0000 0.71720  0.57020  0.11830  Biso   1.000  C
  C46      1.0000 0.21720  0.07020  0.11830  Biso   1.000  C
  C47      1.0000 0.71720  0.42980  0.61830  Biso   1.000  C
  C48      1.0000 0.21720  0.92980  0.61830  Biso   1.000  C
  H25      1.0000 0.31270  0.37060  0.94000  Biso   1.000  H
  H26      1.0000 0.81270  0.87060  0.94000  Biso   1.000  H
  H27      1.0000 0.31270  0.62940  0.44000  Biso   1.000  H
  H28      1.0000 0.81270  0.12940  0.44000  Biso   1.000  H
  H29      1.0000 0.68730  0.62940  0.06000  Biso   1.000  H
  H30      1.0000 0.18730  0.12940  0.06000  Biso   1.000  H
  H31      1.0000 0.68730  0.37060  0.56000  Biso   1.000  H
  H32      1.0000 0.18730  0.87060  0.56000  Biso   1.000  H
  H33      1.0000 0.26900  0.42650  0.74510  Biso   1.000  H
  H34      1.0000 0.76900  0.92650  0.74510  Biso   1.000  H
  H35      1.0000 0.26900  0.57350  0.24510  Biso   1.000  H
  H36      1.0000 0.76900  0.07350  0.24510  Biso   1.000  H
  H37      1.0000 0.73100  0.57350  0.25490  Biso   1.000  H
  H38      1.0000 0.23100  0.07350  0.25490  Biso   1.000  H
  H39      1.0000 0.73100  0.42650  0.75490  Biso   1.000  H
  H40      1.0000 0.23100  0.92650  0.75490  Biso   1.000  H
  H41      1.0000 0.23330  0.43420  0.91080  Biso   1.000  H
  H42      1.0000 0.73330  0.93420  0.91080  Biso   1.000  H
  H43      1.0000 0.23330  0.56580  0.41080  Biso   1.000  H
  H44      1.0000 0.73330  0.06580  0.41080  Biso   1.000  H
  H45      1.0000 0.76670  0.56580  0.08920  Biso   1.000  H
  H46      1.0000 0.26670  0.06580  0.08920  Biso   1.000  H
  H47      1.0000 0.76670  0.43420  0.58920  Biso   1.000  H
  H48      1.0000 0.26670  0.93420  0.58920  Biso   1.000  H
