data_image0
_cell_length_a       8.113
_cell_length_b       26.755
_cell_length_c       9.781
_cell_angle_alpha    90
_cell_angle_beta     109.68
_cell_angle_gamma    90

_symmetry_space_group_name_H-M    "P 1"
_symmetry_int_tables_number       1

loop_
  _symmetry_equiv_pos_as_xyz
  'x, y, z'

loop_
  _atom_site_label
  _atom_site_occupancy
  _atom_site_fract_x
  _atom_site_fract_y
  _atom_site_fract_z
  _atom_site_thermal_displace_type
  _atom_site_B_iso_or_equiv
  _atom_site_type_symbol
  Cu1      1.0000 0.30695  0.31859  0.20645  Biso   1.000  Cu
  Cu2      1.0000 0.30695  0.18141  0.70645  Biso   1.000  Cu
  Cu3      1.0000 0.69305  0.68141  0.79355  Biso   1.000  Cu
  Cu4      1.0000 0.69305  0.81859  0.29355  Biso   1.000  Cu
  N1       1.0000 0.15960  0.27400  0.04990  Biso   1.000  N
  N2       1.0000 0.15960  0.22600  0.54990  Biso   1.000  N
  N3       1.0000 0.84040  0.72600  0.95010  Biso   1.000  N
  N4       1.0000 0.84040  0.77400  0.45010  Biso   1.000  N
  N5       1.0000 0.21710  0.24740  0.97890  Biso   1.000  N
  N6       1.0000 0.21710  0.25260  0.47890  Biso   1.000  N
  N7       1.0000 0.78290  0.75260  0.02110  Biso   1.000  N
  N8       1.0000 0.78290  0.74740  0.52110  Biso   1.000  N
  N9       1.0000 0.26570  0.22030  0.90950  Biso   1.000  N
  N10      1.0000 0.26570  0.27970  0.40950  Biso   1.000  N
  N11      1.0000 0.73430  0.77970  0.09050  Biso   1.000  N
  N12      1.0000 0.73430  0.72030  0.59050  Biso   1.000  N
  N13      1.0000 0.46150  0.37590  0.31710  Biso   1.000  N
  N14      1.0000 0.46150  0.12410  0.81710  Biso   1.000  N
  N15      1.0000 0.53850  0.62410  0.68290  Biso   1.000  N
  N16      1.0000 0.53850  0.87590  0.18290  Biso   1.000  N
  C1       1.0000 0.45030  0.42130  0.26010  Biso   1.000  C
  C2       1.0000 0.45030  0.07870  0.76010  Biso   1.000  C
  C3       1.0000 0.54970  0.57870  0.73990  Biso   1.000  C
  C4       1.0000 0.54970  0.92130  0.23990  Biso   1.000  C
  H1       1.0000 0.37610  0.42640  0.16530  Biso   1.000  H
  H2       1.0000 0.37610  0.07360  0.66530  Biso   1.000  H
  H3       1.0000 0.62390  0.57360  0.83470  Biso   1.000  H
  H4       1.0000 0.62390  0.92640  0.33470  Biso   1.000  H
  C5       1.0000 0.54510  0.46120  0.33670  Biso   1.000  C
  C6       1.0000 0.54510  0.03880  0.83670  Biso   1.000  C
  C7       1.0000 0.45490  0.53880  0.66330  Biso   1.000  C
  C8       1.0000 0.45490  0.96120  0.16330  Biso   1.000  C
  H5       1.0000 0.53220  0.49280  0.29510  Biso   1.000  H
  H6       1.0000 0.53220  0.00720  0.79510  Biso   1.000  H
  H7       1.0000 0.46780  0.50720  0.70490  Biso   1.000  H
  H8       1.0000 0.46780  0.99280  0.20490  Biso   1.000  H
  C9       1.0000 0.65830  0.45360  0.47460  Biso   1.000  C
  C10      1.0000 0.65830  0.04640  0.97460  Biso   1.000  C
  C11      1.0000 0.34170  0.54640  0.52540  Biso   1.000  C
  C12      1.0000 0.34170  0.95360  0.02540  Biso   1.000  C
  H9       1.0000 0.72440  0.47990  0.52770  Biso   1.000  H
  H10      1.0000 0.72440  0.02010  0.02770  Biso   1.000  H
  H11      1.0000 0.27560  0.52010  0.47230  Biso   1.000  H
  H12      1.0000 0.27560  0.97990  0.97230  Biso   1.000  H
  C13      1.0000 0.67300  0.40710  0.53310  Biso   1.000  C
  C14      1.0000 0.67300  0.09290  0.03310  Biso   1.000  C
  C15      1.0000 0.32700  0.59290  0.46690  Biso   1.000  C
  C16      1.0000 0.32700  0.90710  0.96690  Biso   1.000  C
  H13      1.0000 0.75030  0.40110  0.62620  Biso   1.000  H
  H14      1.0000 0.75030  0.09890  0.12620  Biso   1.000  H
  H15      1.0000 0.24970  0.59890  0.37380  Biso   1.000  H
  H16      1.0000 0.24970  0.90110  0.87380  Biso   1.000  H
  C17      1.0000 0.57100  0.36860  0.45200  Biso   1.000  C
  C18      1.0000 0.57100  0.13140  0.95200  Biso   1.000  C
  C19      1.0000 0.42900  0.63140  0.54800  Biso   1.000  C
  C20      1.0000 0.42900  0.86860  0.04800  Biso   1.000  C
  H17      1.0000 0.57930  0.33690  0.49290  Biso   1.000  H
  H18      1.0000 0.57930  0.16310  0.99290  Biso   1.000  H
  H19      1.0000 0.42070  0.66310  0.50710  Biso   1.000  H
  H20      1.0000 0.42070  0.83690  0.00710  Biso   1.000  H
  N17      1.0000 0.52140  0.27890  0.22020  Biso   1.000  N
  N18      1.0000 0.52140  0.22110  0.72020  Biso   1.000  N
  N19      1.0000 0.47860  0.72110  0.77980  Biso   1.000  N
  N20      1.0000 0.47860  0.77890  0.27980  Biso   1.000  N
  C21      1.0000 0.54290  0.23260  0.27250  Biso   1.000  C
  C22      1.0000 0.54290  0.26740  0.77250  Biso   1.000  C
  C23      1.0000 0.45710  0.76740  0.72750  Biso   1.000  C
  C24      1.0000 0.45710  0.73260  0.22750  Biso   1.000  C
  H21      1.0000 0.45640  0.21910  0.30400  Biso   1.000  H
  H22      1.0000 0.45640  0.28090  0.80400  Biso   1.000  H
  H23      1.0000 0.54360  0.78090  0.69600  Biso   1.000  H
  H24      1.0000 0.54360  0.71910  0.19600  Biso   1.000  H
  C25      1.0000 0.68610  0.20400  0.28230  Biso   1.000  C
  C26      1.0000 0.68610  0.29600  0.78230  Biso   1.000  C
  C27      1.0000 0.31390  0.79600  0.71770  Biso   1.000  C
  C28      1.0000 0.31390  0.70400  0.21770  Biso   1.000  C
  H25      1.0000 0.69760  0.17220  0.32230  Biso   1.000  H
  H26      1.0000 0.69760  0.32780  0.82230  Biso   1.000  H
  H27      1.0000 0.30240  0.82780  0.67770  Biso   1.000  H
  H28      1.0000 0.30240  0.67220  0.17770  Biso   1.000  H
  C29      1.0000 0.81290  0.22290  0.23250  Biso   1.000  C
  C30      1.0000 0.81290  0.27710  0.73250  Biso   1.000  C
  C31      1.0000 0.18710  0.77710  0.76750  Biso   1.000  C
  C32      1.0000 0.18710  0.72290  0.26750  Biso   1.000  C
  H29      1.0000 0.91160  0.20420  0.23850  Biso   1.000  H
  H30      1.0000 0.91160  0.29580  0.73850  Biso   1.000  H
  H31      1.0000 0.08840  0.79580  0.76150  Biso   1.000  H
  H32      1.0000 0.08840  0.70420  0.26150  Biso   1.000  H
  C33      1.0000 0.79050  0.26960  0.17420  Biso   1.000  C
  C34      1.0000 0.79050  0.23040  0.67420  Biso   1.000  C
  C35      1.0000 0.20950  0.73040  0.82580  Biso   1.000  C
  C36      1.0000 0.20950  0.76960  0.32580  Biso   1.000  C
  H33      1.0000 0.87330  0.28280  0.13770  Biso   1.000  H
  H34      1.0000 0.87330  0.21720  0.63770  Biso   1.000  H
  H35      1.0000 0.12670  0.71720  0.86230  Biso   1.000  H
  H36      1.0000 0.12670  0.78280  0.36230  Biso   1.000  H
  C37      1.0000 0.64720  0.29710  0.16900  Biso   1.000  C
  C38      1.0000 0.64720  0.20290  0.66900  Biso   1.000  C
  C39      1.0000 0.35280  0.70290  0.83100  Biso   1.000  C
  C40      1.0000 0.35280  0.79710  0.33100  Biso   1.000  C
  H37      1.0000 0.63460  0.32910  0.12970  Biso   1.000  H
  H38      1.0000 0.63460  0.17090  0.62970  Biso   1.000  H
  H39      1.0000 0.36540  0.67090  0.87030  Biso   1.000  H
  H40      1.0000 0.36540  0.82910  0.37030  Biso   1.000  H
  N21      1.0000 0.09930  0.36480  0.18480  Biso   1.000  N
  N22      1.0000 0.09930  0.13520  0.68480  Biso   1.000  N
  N23      1.0000 0.90070  0.63520  0.81520  Biso   1.000  N
  N24      1.0000 0.90070  0.86480  0.31520  Biso   1.000  N
  C41      1.0000 0.99780  0.37950  0.05250  Biso   1.000  C
  C42      1.0000 0.99780  0.12050  0.55250  Biso   1.000  C
  C43      1.0000 0.00220  0.62050  0.94750  Biso   1.000  C
  C44      1.0000 0.00220  0.87950  0.44750  Biso   1.000  C
  H41      1.0000 0.01220  0.36450  0.97150  Biso   1.000  H
  H42      1.0000 0.01220  0.13550  0.47150  Biso   1.000  H
  H43      1.0000 0.98780  0.63550  0.02850  Biso   1.000  H
  H44      1.0000 0.98780  0.86450  0.52850  Biso   1.000  H
  C45      1.0000 0.87230  0.41620  0.03230  Biso   1.000  C
  C46      1.0000 0.87230  0.08380  0.53230  Biso   1.000  C
  C47      1.0000 0.12770  0.58380  0.96770  Biso   1.000  C
  C48      1.0000 0.12770  0.91620  0.46770  Biso   1.000  C
  H45      1.0000 0.80110  0.42570  0.93980  Biso   1.000  H
  H46      1.0000 0.80110  0.07430  0.43980  Biso   1.000  H
  H47      1.0000 0.19890  0.57430  0.06020  Biso   1.000  H
  H48      1.0000 0.19890  0.92570  0.56020  Biso   1.000  H
  C49      1.0000 0.85710  0.43820  0.15470  Biso   1.000  C
  C50      1.0000 0.85710  0.06180  0.65470  Biso   1.000  C
  C51      1.0000 0.14290  0.56180  0.84530  Biso   1.000  C
  C52      1.0000 0.14290  0.93820  0.34530  Biso   1.000  C
  H49      1.0000 0.77490  0.46340  0.14530  Biso   1.000  H
  H50      1.0000 0.77490  0.03660  0.64530  Biso   1.000  H
  H51      1.0000 0.22510  0.53660  0.85470  Biso   1.000  H
  H52      1.0000 0.22510  0.96340  0.35470  Biso   1.000  H
  C53      1.0000 0.96130  0.42340  0.28970  Biso   1.000  C
  C54      1.0000 0.96130  0.07660  0.78970  Biso   1.000  C
  C55      1.0000 0.03870  0.57660  0.71030  Biso   1.000  C
  C56      1.0000 0.03870  0.92340  0.21030  Biso   1.000  C
  H53      1.0000 0.95160  0.43860  0.37220  Biso   1.000  H
  H54      1.0000 0.95160  0.06140  0.87220  Biso   1.000  H
  H55      1.0000 0.04840  0.56140  0.62780  Biso   1.000  H
  H56      1.0000 0.04840  0.93860  0.12780  Biso   1.000  H
  C57      1.0000 0.08060  0.38580  0.30210  Biso   1.000  C
  C58      1.0000 0.08060  0.11420  0.80210  Biso   1.000  C
  C59      1.0000 0.91940  0.61420  0.69790  Biso   1.000  C
  C60      1.0000 0.91940  0.88580  0.19790  Biso   1.000  C
  H57      1.0000 0.14940  0.37490  0.39390  Biso   1.000  H
  H58      1.0000 0.14940  0.12510  0.89390  Biso   1.000  H
  H59      1.0000 0.85060  0.62510  0.60610  Biso   1.000  H
  H60      1.0000 0.85060  0.87490  0.10610  Biso   1.000  H
  P1       1.0000 0.27290  0.09712  0.27910  Biso   1.000  P
  P2       1.0000 0.27290  0.40288  0.77910  Biso   1.000  P
  P3       1.0000 0.72710  0.90288  0.72090  Biso   1.000  P
  P4       1.0000 0.72710  0.59712  0.22090  Biso   1.000  P
  F1       1.0000 0.20690  0.05890  0.14810  Biso   1.000  F
  F2       1.0000 0.20690  0.44110  0.64810  Biso   1.000  F
  F3       1.0000 0.79310  0.94110  0.85190  Biso   1.000  F
  F4       1.0000 0.79310  0.55890  0.35190  Biso   1.000  F
  F5       1.0000 0.33780  0.13490  0.41340  Biso   1.000  F
  F6       1.0000 0.33780  0.36510  0.91340  Biso   1.000  F
  F7       1.0000 0.66220  0.86510  0.58660  Biso   1.000  F
  F8       1.0000 0.66220  0.63490  0.08660  Biso   1.000  F
  F9       1.0000 0.35270  0.12730  0.18770  Biso   1.000  F
  F10      1.0000 0.35270  0.37270  0.68770  Biso   1.000  F
  F11      1.0000 0.64730  0.87270  0.81230  Biso   1.000  F
  F12      1.0000 0.64730  0.62730  0.31230  Biso   1.000  F
  F13      1.0000 0.11280  0.12740  0.22870  Biso   1.000  F
  F14      1.0000 0.11280  0.37260  0.72870  Biso   1.000  F
  F15      1.0000 0.88720  0.87260  0.77130  Biso   1.000  F
  F16      1.0000 0.88720  0.62740  0.27130  Biso   1.000  F
  F17      1.0000 0.18970  0.06630  0.37480  Biso   1.000  F
  F18      1.0000 0.18970  0.43370  0.87480  Biso   1.000  F
  F19      1.0000 0.81030  0.93370  0.62520  Biso   1.000  F
  F20      1.0000 0.81030  0.56630  0.12520  Biso   1.000  F
  F21      1.0000 0.44440  0.06370  0.34600  Biso   1.000  F
  F22      1.0000 0.44440  0.43630  0.84600  Biso   1.000  F
  F23      1.0000 0.55560  0.93630  0.65400  Biso   1.000  F
  F24      1.0000 0.55560  0.56370  0.15400  Biso   1.000  F
  F25      1.0000 0.46200  0.09700  0.28030  Biso   1.000  F
  F26      1.0000 0.46200  0.40300  0.78030  Biso   1.000  F
  F27      1.0000 0.53800  0.90300  0.71970  Biso   1.000  F
  F28      1.0000 0.53800  0.59700  0.21970  Biso   1.000  F
  F29      1.0000 0.31350  0.05440  0.38140  Biso   1.000  F
  F30      1.0000 0.31350  0.44560  0.88140  Biso   1.000  F
  F31      1.0000 0.68650  0.94560  0.61860  Biso   1.000  F
  F32      1.0000 0.68650  0.55440  0.11860  Biso   1.000  F
  F33      1.0000 0.07800  0.10210  0.26500  Biso   1.000  F
  F34      1.0000 0.07800  0.39790  0.76500  Biso   1.000  F
  F35      1.0000 0.92200  0.89790  0.73500  Biso   1.000  F
  F36      1.0000 0.92200  0.60210  0.23500  Biso   1.000  F
  F37      1.0000 0.23800  0.14350  0.17000  Biso   1.000  F
  F38      1.0000 0.23800  0.35650  0.67000  Biso   1.000  F
  F39      1.0000 0.76200  0.85650  0.83000  Biso   1.000  F
  F40      1.0000 0.76200  0.64350  0.33000  Biso   1.000  F
