data_image0
_cell_length_a       11.095
_cell_length_b       12.917
_cell_length_c       11.294
_cell_angle_alpha    90
_cell_angle_beta     104.21
_cell_angle_gamma    90

_symmetry_space_group_name_H-M    "P 1"
_symmetry_int_tables_number       1

loop_
  _symmetry_equiv_pos_as_xyz
  'x, y, z'

loop_
  _atom_site_label
  _atom_site_occupancy
  _atom_site_fract_x
  _atom_site_fract_y
  _atom_site_fract_z
  _atom_site_thermal_displace_type
  _atom_site_B_iso_or_equiv
  _atom_site_type_symbol
  Cu1      1.0000 0.64184  0.72775  0.57902  Biso   1.000  Cu
  Cu2      1.0000 0.14184  0.77225  0.07902  Biso   1.000  Cu
  Cu3      1.0000 0.35816  0.27225  0.42098  Biso   1.000  Cu
  Cu4      1.0000 0.85816  0.22775  0.92098  Biso   1.000  Cu
  O1       1.0000 0.80885  0.92306  0.86701  Biso   1.000  O
  O2       1.0000 0.30885  0.57694  0.36701  Biso   1.000  O
  O3       1.0000 0.19115  0.07694  0.13299  Biso   1.000  O
  O4       1.0000 0.69115  0.42306  0.63299  Biso   1.000  O
  O5       1.0000 0.96716  0.95617  0.78545  Biso   1.000  O
  O6       1.0000 0.46716  0.54383  0.28545  Biso   1.000  O
  O7       1.0000 0.03284  0.04383  0.21455  Biso   1.000  O
  O8       1.0000 0.53284  0.45617  0.71455  Biso   1.000  O
  O9       1.0000 0.81646  0.11630  0.54284  Biso   1.000  O
  O10      1.0000 0.31646  0.38370  0.04284  Biso   1.000  O
  O11      1.0000 0.18354  0.88370  0.45716  Biso   1.000  O
  O12      1.0000 0.68354  0.61630  0.95716  Biso   1.000  O
  O13      1.0000 0.74310  0.14781  0.70505  Biso   1.000  O
  O14      1.0000 0.24310  0.35219  0.20505  Biso   1.000  O
  O15      1.0000 0.25690  0.85219  0.29495  Biso   1.000  O
  O16      1.0000 0.75690  0.64781  0.79495  Biso   1.000  O
  O17      1.0000 0.52129  0.80333  0.37853  Biso   1.000  O
  O18      1.0000 0.02129  0.69667  0.87853  Biso   1.000  O
  O19      1.0000 0.47871  0.19667  0.62147  Biso   1.000  O
  O20      1.0000 0.97871  0.30333  0.12147  Biso   1.000  O
  O21      1.0000 0.31973  0.44558  0.80203  Biso   1.000  O
  O22      1.0000 0.81973  0.05442  0.30203  Biso   1.000  O
  O23      1.0000 0.68027  0.55442  0.19797  Biso   1.000  O
  O24      1.0000 0.18027  0.94558  0.69797  Biso   1.000  O
  O25      1.0000 0.13230  0.59442  0.71758  Biso   1.000  O
  O26      1.0000 0.63230  0.90558  0.21758  Biso   1.000  O
  O27      1.0000 0.86770  0.40558  0.28242  Biso   1.000  O
  O28      1.0000 0.36770  0.09442  0.78242  Biso   1.000  O
  O29      1.0000 0.85051  0.32544  0.51004  Biso   1.000  O
  O30      1.0000 0.35051  0.17456  0.01004  Biso   1.000  O
  O31      1.0000 0.14949  0.67456  0.48996  Biso   1.000  O
  O32      1.0000 0.64949  0.82544  0.98996  Biso   1.000  O
  N1       1.0000 0.69695  0.61167  0.48858  Biso   1.000  N
  N2       1.0000 0.19695  0.88833  0.98858  Biso   1.000  N
  N3       1.0000 0.30305  0.38833  0.51142  Biso   1.000  N
  N4       1.0000 0.80305  0.11167  0.01142  Biso   1.000  N
  H1       1.0000 0.68500  0.55080  0.52280  Biso   1.000  H
  H2       1.0000 0.18500  0.94920  0.02280  Biso   1.000  H
  H3       1.0000 0.31500  0.44920  0.47720  Biso   1.000  H
  H4       1.0000 0.81500  0.05080  0.97720  Biso   1.000  H
  H5       1.0000 0.65240  0.61150  0.41040  Biso   1.000  H
  H6       1.0000 0.15240  0.88850  0.91040  Biso   1.000  H
  H7       1.0000 0.34760  0.38850  0.58960  Biso   1.000  H
  H8       1.0000 0.84760  0.11150  0.08960  Biso   1.000  H
  N5       1.0000 0.80533  0.79541  0.57495  Biso   1.000  N
  N6       1.0000 0.30533  0.70459  0.07495  Biso   1.000  N
  N7       1.0000 0.19467  0.20459  0.42505  Biso   1.000  N
  N8       1.0000 0.69467  0.29541  0.92505  Biso   1.000  N
  H9       1.0000 0.85930  0.78290  0.64830  Biso   1.000  H
  H10      1.0000 0.35930  0.71710  0.14830  Biso   1.000  H
  H11      1.0000 0.14070  0.21710  0.35170  Biso   1.000  H
  H12      1.0000 0.64070  0.28290  0.85170  Biso   1.000  H
  N9       1.0000 0.59896  0.84277  0.67996  Biso   1.000  N
  N10      1.0000 0.09896  0.65723  0.17996  Biso   1.000  N
  N11      1.0000 0.40104  0.15723  0.32004  Biso   1.000  N
  N12      1.0000 0.90104  0.34277  0.82004  Biso   1.000  N
  H13      1.0000 0.64260  0.82990  0.75790  Biso   1.000  H
  H14      1.0000 0.14260  0.67010  0.25790  Biso   1.000  H
  H15      1.0000 0.35740  0.17010  0.24210  Biso   1.000  H
  H16      1.0000 0.85740  0.32990  0.74210  Biso   1.000  H
  N13      1.0000 0.48369  0.66149  0.59644  Biso   1.000  N
  N14      1.0000 0.98369  0.83851  0.09644  Biso   1.000  N
  N15      1.0000 0.51631  0.33851  0.40356  Biso   1.000  N
  N16      1.0000 0.01631  0.16149  0.90356  Biso   1.000  N
  H17      1.0000 0.42610  0.66380  0.52480  Biso   1.000  H
  H18      1.0000 0.92610  0.83620  0.02480  Biso   1.000  H
  H19      1.0000 0.57390  0.33620  0.47520  Biso   1.000  H
  H20      1.0000 0.07390  0.16380  0.97520  Biso   1.000  H
  H21      1.0000 0.49750  0.59470  0.61840  Biso   1.000  H
  H22      1.0000 0.99750  0.90530  0.11840  Biso   1.000  H
  H23      1.0000 0.50250  0.40530  0.38160  Biso   1.000  H
  H24      1.0000 0.00250  0.09470  0.88160  Biso   1.000  H
  C1       1.0000 0.82980  0.62545  0.49350  Biso   1.000  C
  C2       1.0000 0.32980  0.87455  0.99350  Biso   1.000  C
  C3       1.0000 0.17020  0.37455  0.50650  Biso   1.000  C
  C4       1.0000 0.67020  0.12545  0.00650  Biso   1.000  C
  H25      1.0000 0.85150  0.58720  0.42780  Biso   1.000  H
  H26      1.0000 0.35150  0.91280  0.92780  Biso   1.000  H
  H27      1.0000 0.14850  0.41280  0.57220  Biso   1.000  H
  H28      1.0000 0.64850  0.08720  0.07220  Biso   1.000  H
  H29      1.0000 0.88020  0.60000  0.57060  Biso   1.000  H
  H30      1.0000 0.38020  0.90000  0.07060  Biso   1.000  H
  H31      1.0000 0.11980  0.40000  0.42940  Biso   1.000  H
  H32      1.0000 0.61980  0.10000  0.92940  Biso   1.000  H
  C5       1.0000 0.85260  0.73909  0.48070  Biso   1.000  C
  C6       1.0000 0.35260  0.76091  0.98070  Biso   1.000  C
  C7       1.0000 0.14740  0.26091  0.51930  Biso   1.000  C
  C8       1.0000 0.64740  0.23909  0.01930  Biso   1.000  C
  H33      1.0000 0.94080  0.75200  0.49200  Biso   1.000  H
  H34      1.0000 0.44080  0.74800  0.99200  Biso   1.000  H
  H35      1.0000 0.05920  0.24800  0.50800  Biso   1.000  H
  H36      1.0000 0.55920  0.25200  0.00800  Biso   1.000  H
  H37      1.0000 0.80970  0.76270  0.39970  Biso   1.000  H
  H38      1.0000 0.30970  0.73730  0.89970  Biso   1.000  H
  H39      1.0000 0.19030  0.23730  0.60030  Biso   1.000  H
  H40      1.0000 0.69030  0.26270  0.10030  Biso   1.000  H
  C9       1.0000 0.80420  0.90871  0.55441  Biso   1.000  C
  C10      1.0000 0.30420  0.59129  0.05441  Biso   1.000  C
  C11      1.0000 0.19580  0.09129  0.44559  Biso   1.000  C
  C12      1.0000 0.69580  0.40871  0.94559  Biso   1.000  C
  H41      1.0000 0.74800  0.92430  0.47610  Biso   1.000  H
  H42      1.0000 0.24800  0.57570  0.97610  Biso   1.000  H
  H43      1.0000 0.25200  0.07570  0.52390  Biso   1.000  H
  H44      1.0000 0.75200  0.42430  0.02390  Biso   1.000  H
  H45      1.0000 0.88680  0.93090  0.55100  Biso   1.000  H
  H46      1.0000 0.38680  0.56910  0.05100  Biso   1.000  H
  H47      1.0000 0.11320  0.06910  0.44900  Biso   1.000  H
  H48      1.0000 0.61320  0.43090  0.94900  Biso   1.000  H
  C13      1.0000 0.76407  0.96965  0.65398  Biso   1.000  C
  C14      1.0000 0.26407  0.53035  0.15398  Biso   1.000  C
  C15      1.0000 0.23593  0.03035  0.34602  Biso   1.000  C
  C16      1.0000 0.73593  0.46965  0.84602  Biso   1.000  C
  C17      1.0000 0.62826  0.95078  0.65451  Biso   1.000  C
  C18      1.0000 0.12826  0.54922  0.15451  Biso   1.000  C
  C19      1.0000 0.37174  0.04922  0.34549  Biso   1.000  C
  C20      1.0000 0.87174  0.45078  0.84549  Biso   1.000  C
  H49      1.0000 0.60710  0.99540  0.71550  Biso   1.000  H
  H50      1.0000 0.10710  0.50460  0.21550  Biso   1.000  H
  H51      1.0000 0.39290  0.00460  0.28450  Biso   1.000  H
  H52      1.0000 0.89290  0.49540  0.78450  Biso   1.000  H
  H53      1.0000 0.57620  0.97070  0.57560  Biso   1.000  H
  H54      1.0000 0.07620  0.52930  0.07560  Biso   1.000  H
  H55      1.0000 0.42380  0.02930  0.42440  Biso   1.000  H
  H56      1.0000 0.92380  0.47070  0.92440  Biso   1.000  H
  C21      1.0000 0.46687  0.83178  0.68050  Biso   1.000  C
  C22      1.0000 0.96687  0.66822  0.18050  Biso   1.000  C
  C23      1.0000 0.53313  0.16822  0.31950  Biso   1.000  C
  C24      1.0000 0.03313  0.33178  0.81950  Biso   1.000  C
  H57      1.0000 0.41460  0.86000  0.60570  Biso   1.000  H
  H58      1.0000 0.91460  0.64000  0.10570  Biso   1.000  H
  H59      1.0000 0.58540  0.14000  0.39430  Biso   1.000  H
  H60      1.0000 0.08540  0.36000  0.89430  Biso   1.000  H
  H61      1.0000 0.45000  0.86940  0.74900  Biso   1.000  H
  H62      1.0000 0.95000  0.63060  0.24900  Biso   1.000  H
  H63      1.0000 0.55000  0.13060  0.25100  Biso   1.000  H
  H64      1.0000 0.05000  0.36940  0.75100  Biso   1.000  H
  C25      1.0000 0.43920  0.71846  0.69070  Biso   1.000  C
  C26      1.0000 0.93920  0.78154  0.19070  Biso   1.000  C
  C27      1.0000 0.56080  0.28154  0.30930  Biso   1.000  C
  C28      1.0000 0.06080  0.21846  0.80930  Biso   1.000  C
  H65      1.0000 0.48080  0.69310  0.77120  Biso   1.000  H
  H66      1.0000 0.98080  0.80690  0.27120  Biso   1.000  H
  H67      1.0000 0.51920  0.30690  0.22880  Biso   1.000  H
  H68      1.0000 0.01920  0.19310  0.72880  Biso   1.000  H
  H69      1.0000 0.35040  0.70820  0.67900  Biso   1.000  H
  H70      1.0000 0.85040  0.79180  0.17900  Biso   1.000  H
  H71      1.0000 0.64960  0.29180  0.32100  Biso   1.000  H
  H72      1.0000 0.14960  0.20820  0.82100  Biso   1.000  H
  C29      1.0000 0.85419  0.94671  0.77944  Biso   1.000  C
  C30      1.0000 0.35419  0.55329  0.27944  Biso   1.000  C
  C31      1.0000 0.14581  0.05329  0.22056  Biso   1.000  C
  C32      1.0000 0.64581  0.44671  0.72056  Biso   1.000  C
  C33      1.0000 0.77636  0.08844  0.63177  Biso   1.000  C
  C34      1.0000 0.27636  0.41156  0.13177  Biso   1.000  C
  C35      1.0000 0.22364  0.91156  0.36823  Biso   1.000  C
  C36      1.0000 0.72364  0.58844  0.86823  Biso   1.000  C
  H73      1.0000 0.44480  0.80800  0.35200  Biso   1.000  H
  H74      1.0000 0.94480  0.69200  0.85200  Biso   1.000  H
  H75      1.0000 0.55520  0.19200  0.64800  Biso   1.000  H
  H76      1.0000 0.05520  0.30800  0.14800  Biso   1.000  H
  H77      1.0000 0.55460  0.82700  0.32660  Biso   1.000  H
  H78      1.0000 0.05460  0.67300  0.82660  Biso   1.000  H
  H79      1.0000 0.44540  0.17300  0.67340  Biso   1.000  H
  H80      1.0000 0.94540  0.32700  0.17340  Biso   1.000  H
  H81      1.0000 0.39080  0.45500  0.79300  Biso   1.000  H
  H82      1.0000 0.89080  0.04500  0.29300  Biso   1.000  H
  H83      1.0000 0.60920  0.54500  0.20700  Biso   1.000  H
  H84      1.0000 0.10920  0.95500  0.70700  Biso   1.000  H
  H85      1.0000 0.32400  0.42100  0.86950  Biso   1.000  H
  H86      1.0000 0.82400  0.07900  0.36950  Biso   1.000  H
  H87      1.0000 0.67600  0.57900  0.13050  Biso   1.000  H
  H88      1.0000 0.17600  0.92100  0.63050  Biso   1.000  H
  H89      1.0000 0.19270  0.55770  0.74500  Biso   1.000  H
  H90      1.0000 0.69270  0.94230  0.24500  Biso   1.000  H
  H91      1.0000 0.80730  0.44230  0.25500  Biso   1.000  H
  H92      1.0000 0.30730  0.05770  0.75500  Biso   1.000  H
  H93      1.0000 0.13600  0.62000  0.65260  Biso   1.000  H
  H94      1.0000 0.63600  0.88000  0.15260  Biso   1.000  H
  H95      1.0000 0.86400  0.38000  0.34740  Biso   1.000  H
  H96      1.0000 0.36400  0.12000  0.84740  Biso   1.000  H
  H97      1.0000 0.80710  0.36020  0.54300  Biso   1.000  H
  H98      1.0000 0.30710  0.13980  0.04300  Biso   1.000  H
  H99      1.0000 0.19290  0.63980  0.45700  Biso   1.000  H
  H100     1.0000 0.69290  0.86020  0.95700  Biso   1.000  H
  H101     1.0000 0.83800  0.26370  0.51600  Biso   1.000  H
  H102     1.0000 0.33800  0.23630  0.01600  Biso   1.000  H
  H103     1.0000 0.16200  0.73630  0.48400  Biso   1.000  H
  H104     1.0000 0.66200  0.76370  0.98400  Biso   1.000  H
