data_image0
_cell_length_a       13.3013
_cell_length_b       7.5995
_cell_length_c       14.3627
_cell_angle_alpha    90
_cell_angle_beta     110.436
_cell_angle_gamma    90

_symmetry_space_group_name_H-M    "P 1"
_symmetry_int_tables_number       1

loop_
  _symmetry_equiv_pos_as_xyz
  'x, y, z'

loop_
  _atom_site_label
  _atom_site_occupancy
  _atom_site_fract_x
  _atom_site_fract_y
  _atom_site_fract_z
  _atom_site_thermal_displace_type
  _atom_site_B_iso_or_equiv
  _atom_site_type_symbol
  Cu1      1.0000 0.06869  0.32218  0.18306  Biso   1.000  Cu
  Cu2      1.0000 0.93131  0.82218  0.31694  Biso   1.000  Cu
  Cu3      1.0000 0.93131  0.67782  0.81694  Biso   1.000  Cu
  Cu4      1.0000 0.06869  0.17782  0.68306  Biso   1.000  Cu
  Cl1      1.0000 0.02299  0.49362  0.29132  Biso   1.000  Cl
  Cl2      1.0000 0.97701  0.99362  0.20868  Biso   1.000  Cl
  Cl3      1.0000 0.97701  0.50638  0.70868  Biso   1.000  Cl
  Cl4      1.0000 0.02299  0.00638  0.79132  Biso   1.000  Cl
  N1       1.0000 0.93597  0.36760  0.06718  Biso   1.000  N
  N2       1.0000 0.06403  0.86760  0.43282  Biso   1.000  N
  N3       1.0000 0.06403  0.63240  0.93282  Biso   1.000  N
  N4       1.0000 0.93597  0.13240  0.56718  Biso   1.000  N
  N5       1.0000 0.02801  0.20290  0.98943  Biso   1.000  N
  N6       1.0000 0.97199  0.70290  0.51057  Biso   1.000  N
  N7       1.0000 0.97199  0.79710  0.01057  Biso   1.000  N
  N8       1.0000 0.02801  0.29710  0.48943  Biso   1.000  N
  N9       1.0000 0.10751  0.19630  0.08111  Biso   1.000  N
  N10      1.0000 0.89249  0.69630  0.41889  Biso   1.000  N
  N11      1.0000 0.89249  0.80370  0.91889  Biso   1.000  N
  N12      1.0000 0.10751  0.30370  0.58111  Biso   1.000  N
  O1       1.0000 0.20742  0.28590  0.27978  Biso   1.000  O
  O2       1.0000 0.79258  0.78590  0.22022  Biso   1.000  O
  O3       1.0000 0.79258  0.71410  0.72022  Biso   1.000  O
  O4       1.0000 0.20742  0.21410  0.77978  Biso   1.000  O
  O5       1.0000 0.70730  0.03630  0.06849  Biso   1.000  O
  O6       1.0000 0.29270  0.53630  0.43151  Biso   1.000  O
  O7       1.0000 0.29270  0.96370  0.93151  Biso   1.000  O
  O8       1.0000 0.70730  0.46370  0.56849  Biso   1.000  O
  H1       1.0000 0.74640  0.97560  0.11630  Biso   1.000  H
  H2       1.0000 0.25360  0.47560  0.38370  Biso   1.000  H
  H3       1.0000 0.25360  0.02440  0.88370  Biso   1.000  H
  H4       1.0000 0.74640  0.52440  0.61630  Biso   1.000  H
  C1       1.0000 0.84740  0.46090  0.06430  Biso   1.000  C
  C2       1.0000 0.15260  0.96090  0.43570  Biso   1.000  C
  C3       1.0000 0.15260  0.53910  0.93570  Biso   1.000  C
  C4       1.0000 0.84740  0.03910  0.56430  Biso   1.000  C
  H5       1.0000 0.84540  0.51290  0.12370  Biso   1.000  H
  H6       1.0000 0.15460  0.01290  0.37630  Biso   1.000  H
  H7       1.0000 0.15460  0.48710  0.87630  Biso   1.000  H
  H8       1.0000 0.84540  0.98710  0.62370  Biso   1.000  H
  C5       1.0000 0.76140  0.48190  0.97860  Biso   1.000  C
  C6       1.0000 0.23860  0.98190  0.52140  Biso   1.000  C
  C7       1.0000 0.23860  0.51810  0.02140  Biso   1.000  C
  C8       1.0000 0.76140  0.01810  0.47860  Biso   1.000  C
  H9       1.0000 0.70050  0.54710  0.97880  Biso   1.000  H
  H10      1.0000 0.29950  0.04710  0.52120  Biso   1.000  H
  H11      1.0000 0.29950  0.45290  0.02120  Biso   1.000  H
  H12      1.0000 0.70050  0.95290  0.47880  Biso   1.000  H
  C9       1.0000 0.76390  0.40640  0.89070  Biso   1.000  C
  C10      1.0000 0.23610  0.90640  0.60930  Biso   1.000  C
  C11      1.0000 0.23610  0.59360  0.10930  Biso   1.000  C
  C12      1.0000 0.76390  0.09360  0.39070  Biso   1.000  C
  H13      1.0000 0.70460  0.41960  0.83060  Biso   1.000  H
  H14      1.0000 0.29540  0.91960  0.66940  Biso   1.000  H
  H15      1.0000 0.29540  0.58040  0.16940  Biso   1.000  H
  H16      1.0000 0.70460  0.08040  0.33060  Biso   1.000  H
  C13      1.0000 0.85300  0.31270  0.89200  Biso   1.000  C
  C14      1.0000 0.14700  0.81270  0.60800  Biso   1.000  C
  C15      1.0000 0.14700  0.68730  0.10800  Biso   1.000  C
  C16      1.0000 0.85300  0.18730  0.39200  Biso   1.000  C
  H17      1.0000 0.85690  0.26150  0.83300  Biso   1.000  H
  H18      1.0000 0.14310  0.76150  0.66700  Biso   1.000  H
  H19      1.0000 0.14310  0.73850  0.16700  Biso   1.000  H
  H20      1.0000 0.85690  0.23850  0.33300  Biso   1.000  H
  C17      1.0000 0.93750  0.29510  0.98245  Biso   1.000  C
  C18      1.0000 0.06250  0.79510  0.51755  Biso   1.000  C
  C19      1.0000 0.06250  0.70490  0.01755  Biso   1.000  C
  C20      1.0000 0.93750  0.20490  0.48245  Biso   1.000  C
  C21      1.0000 0.19530  0.11340  0.09070  Biso   1.000  C
  C22      1.0000 0.80470  0.61340  0.40930  Biso   1.000  C
  C23      1.0000 0.80470  0.88660  0.90930  Biso   1.000  C
  C24      1.0000 0.19530  0.38660  0.59070  Biso   1.000  C
  C25      1.0000 0.28390  0.10150  0.18328  Biso   1.000  C
  C26      1.0000 0.71610  0.60150  0.31672  Biso   1.000  C
  C27      1.0000 0.71610  0.89850  0.81672  Biso   1.000  C
  C28      1.0000 0.28390  0.39850  0.68328  Biso   1.000  C
  C29      1.0000 0.37280  0.99830  0.18380  Biso   1.000  C
  C30      1.0000 0.62720  0.49830  0.31620  Biso   1.000  C
  C31      1.0000 0.62720  0.00170  0.81620  Biso   1.000  C
  C32      1.0000 0.37280  0.50170  0.68380  Biso   1.000  C
  H21      1.0000 0.37120  0.94210  0.12430  Biso   1.000  H
  H22      1.0000 0.62880  0.44210  0.37570  Biso   1.000  H
  H23      1.0000 0.62880  0.05790  0.87570  Biso   1.000  H
  H24      1.0000 0.37120  0.55790  0.62430  Biso   1.000  H
  C33      1.0000 0.46100  0.97780  0.26810  Biso   1.000  C
  C34      1.0000 0.53900  0.47780  0.23190  Biso   1.000  C
  C35      1.0000 0.53900  0.02220  0.73190  Biso   1.000  C
  C36      1.0000 0.46100  0.52220  0.76810  Biso   1.000  C
  H25      1.0000 0.51920  0.90570  0.26760  Biso   1.000  H
  H26      1.0000 0.48080  0.40570  0.23240  Biso   1.000  H
  H27      1.0000 0.48080  0.09430  0.73240  Biso   1.000  H
  H28      1.0000 0.51920  0.59430  0.76760  Biso   1.000  H
  C37      1.0000 0.46410  0.06400  0.35460  Biso   1.000  C
  C38      1.0000 0.53590  0.56400  0.14540  Biso   1.000  C
  C39      1.0000 0.53590  0.93600  0.64540  Biso   1.000  C
  C40      1.0000 0.46410  0.43600  0.85460  Biso   1.000  C
  H29      1.0000 0.52540  0.05160  0.41320  Biso   1.000  H
  H30      1.0000 0.47460  0.55160  0.08680  Biso   1.000  H
  H31      1.0000 0.47460  0.94840  0.58680  Biso   1.000  H
  H32      1.0000 0.52540  0.44840  0.91320  Biso   1.000  H
  C41      1.0000 0.37920  0.16770  0.35650  Biso   1.000  C
  C42      1.0000 0.62080  0.66770  0.14350  Biso   1.000  C
  C43      1.0000 0.62080  0.83230  0.64350  Biso   1.000  C
  C44      1.0000 0.37920  0.33230  0.85650  Biso   1.000  C
  H33      1.0000 0.38360  0.22640  0.41620  Biso   1.000  H
  H34      1.0000 0.61640  0.72640  0.08380  Biso   1.000  H
  H35      1.0000 0.61640  0.77360  0.58380  Biso   1.000  H
  H36      1.0000 0.38360  0.27360  0.91620  Biso   1.000  H
  C45      1.0000 0.28640  0.18770  0.27169  Biso   1.000  C
  C46      1.0000 0.71360  0.68770  0.22831  Biso   1.000  C
  C47      1.0000 0.71360  0.81230  0.72831  Biso   1.000  C
  C48      1.0000 0.28640  0.31230  0.77169  Biso   1.000  C
  C49      1.0000 0.64380  0.14960  0.10180  Biso   1.000  C
  C50      1.0000 0.35620  0.64960  0.39820  Biso   1.000  C
  C51      1.0000 0.35620  0.85040  0.89820  Biso   1.000  C
  C52      1.0000 0.64380  0.35040  0.60180  Biso   1.000  C
  H37      1.0000 0.69020  0.22710  0.15360  Biso   1.000  H
  H38      1.0000 0.30980  0.72710  0.34640  Biso   1.000  H
  H39      1.0000 0.30980  0.77290  0.84640  Biso   1.000  H
  H40      1.0000 0.69020  0.27290  0.65360  Biso   1.000  H
  H41      1.0000 0.59840  0.08010  0.12900  Biso   1.000  H
  H42      1.0000 0.40160  0.58010  0.37100  Biso   1.000  H
  H43      1.0000 0.40160  0.91990  0.87100  Biso   1.000  H
  H44      1.0000 0.59840  0.41990  0.62900  Biso   1.000  H
  H45      1.0000 0.59840  0.22070  0.04610  Biso   1.000  H
  H46      1.0000 0.40160  0.72070  0.45390  Biso   1.000  H
  H47      1.0000 0.40160  0.77930  0.95390  Biso   1.000  H
  H48      1.0000 0.59840  0.27930  0.54610  Biso   1.000  H
  H49      1.0000 0.03900  0.16200  0.94200  Biso   1.000  H
  H50      1.0000 0.96100  0.66200  0.55800  Biso   1.000  H
  H51      1.0000 0.96100  0.83800  0.05800  Biso   1.000  H
  H52      1.0000 0.03900  0.33800  0.44200  Biso   1.000  H
  H53      1.0000 0.20500  0.05600  0.03800  Biso   1.000  H
  H54      1.0000 0.79500  0.55600  0.46200  Biso   1.000  H
  H55      1.0000 0.79500  0.94400  0.96200  Biso   1.000  H
  H56      1.0000 0.20500  0.44400  0.53800  Biso   1.000  H
