data_image0
_cell_length_a       4.8474
_cell_length_b       25.814
_cell_length_c       15.3589
_cell_angle_alpha    90
_cell_angle_beta     92.348
_cell_angle_gamma    90

_symmetry_space_group_name_H-M    "P 1"
_symmetry_int_tables_number       1

loop_
  _symmetry_equiv_pos_as_xyz
  'x, y, z'

loop_
  _atom_site_label
  _atom_site_occupancy
  _atom_site_fract_x
  _atom_site_fract_y
  _atom_site_fract_z
  _atom_site_thermal_displace_type
  _atom_site_B_iso_or_equiv
  _atom_site_type_symbol
  Cu1      1.0000 0.27298  0.17409  0.32731  Biso   1.000  Cu
  Cu2      1.0000 0.22702  0.67409  0.17269  Biso   1.000  Cu
  Cu3      1.0000 0.72702  0.82591  0.67269  Biso   1.000  Cu
  Cu4      1.0000 0.77298  0.32591  0.82731  Biso   1.000  Cu
  S1       1.0000 0.73480  0.41365  0.32523  Biso   1.000  S
  S2       1.0000 0.76520  0.91365  0.17477  Biso   1.000  S
  S3       1.0000 0.26520  0.58635  0.67477  Biso   1.000  S
  S4       1.0000 0.23480  0.08635  0.82523  Biso   1.000  S
  S5       1.0000 0.70070  0.43783  0.13238  Biso   1.000  S
  S6       1.0000 0.79930  0.93783  0.36762  Biso   1.000  S
  S7       1.0000 0.29930  0.56217  0.86762  Biso   1.000  S
  S8       1.0000 0.20070  0.06217  0.63238  Biso   1.000  S
  N1       1.0000 0.39140  0.24939  0.31820  Biso   1.000  N
  N2       1.0000 0.10860  0.74939  0.18180  Biso   1.000  N
  N3       1.0000 0.60860  0.75061  0.68180  Biso   1.000  N
  N4       1.0000 0.89140  0.25061  0.81820  Biso   1.000  N
  N5       1.0000 0.35170  0.59993  0.16710  Biso   1.000  N
  N6       1.0000 0.14830  0.09993  0.33290  Biso   1.000  N
  N7       1.0000 0.64830  0.40007  0.83290  Biso   1.000  N
  N8       1.0000 0.85170  0.90007  0.66710  Biso   1.000  N
  C1       1.0000 0.29850  0.28745  0.36910  Biso   1.000  C
  C2       1.0000 0.20150  0.78745  0.13090  Biso   1.000  C
  C3       1.0000 0.70150  0.71255  0.63090  Biso   1.000  C
  C4       1.0000 0.79850  0.21255  0.86910  Biso   1.000  C
  H1       1.0000 0.16060  0.27930  0.40720  Biso   1.000  H
  H2       1.0000 0.33940  0.77930  0.09280  Biso   1.000  H
  H3       1.0000 0.83940  0.72070  0.59280  Biso   1.000  H
  H4       1.0000 0.66060  0.22070  0.90720  Biso   1.000  H
  C5       1.0000 0.39350  0.33742  0.36860  Biso   1.000  C
  C6       1.0000 0.10650  0.83742  0.13140  Biso   1.000  C
  C7       1.0000 0.60650  0.66258  0.63140  Biso   1.000  C
  C8       1.0000 0.89350  0.16258  0.86860  Biso   1.000  C
  H5       1.0000 0.31990  0.36230  0.40490  Biso   1.000  H
  H6       1.0000 0.18010  0.86230  0.09510  Biso   1.000  H
  H7       1.0000 0.68010  0.63770  0.59510  Biso   1.000  H
  H8       1.0000 0.81990  0.13770  0.90490  Biso   1.000  H
  C9       1.0000 0.60100  0.35030  0.31320  Biso   1.000  C
  C10      1.0000 0.89900  0.85030  0.18680  Biso   1.000  C
  C11      1.0000 0.39900  0.64970  0.68680  Biso   1.000  C
  C12      1.0000 0.10100  0.14970  0.81320  Biso   1.000  C
  C13      1.0000 0.69550  0.31225  0.25920  Biso   1.000  C
  C14      1.0000 0.80450  0.81225  0.24080  Biso   1.000  C
  C15      1.0000 0.30450  0.68775  0.74080  Biso   1.000  C
  C16      1.0000 0.19550  0.18775  0.75920  Biso   1.000  C
  H9       1.0000 0.83030  0.31980  0.21970  Biso   1.000  H
  H10      1.0000 0.66970  0.81980  0.28030  Biso   1.000  H
  H11      1.0000 0.16970  0.68020  0.78030  Biso   1.000  H
  H12      1.0000 0.33030  0.18020  0.71970  Biso   1.000  H
  C17      1.0000 0.59040  0.26317  0.26380  Biso   1.000  C
  C18      1.0000 0.90960  0.76317  0.23620  Biso   1.000  C
  C19      1.0000 0.40960  0.73683  0.73620  Biso   1.000  C
  C20      1.0000 0.09040  0.23683  0.76380  Biso   1.000  C
  H13      1.0000 0.66000  0.23790  0.22750  Biso   1.000  H
  H14      1.0000 0.84000  0.73790  0.27250  Biso   1.000  H
  H15      1.0000 0.34000  0.76210  0.77250  Biso   1.000  H
  H16      1.0000 0.16000  0.26210  0.72750  Biso   1.000  H
  C21      1.0000 0.91580  0.42436  0.22730  Biso   1.000  C
  C22      1.0000 0.58420  0.92436  0.27270  Biso   1.000  C
  C23      1.0000 0.08420  0.57564  0.77270  Biso   1.000  C
  C24      1.0000 0.41580  0.07564  0.72730  Biso   1.000  C
  H17      1.0000 0.04190  0.45320  0.23690  Biso   1.000  H
  H18      1.0000 0.45810  0.95320  0.26310  Biso   1.000  H
  H19      1.0000 0.95810  0.54680  0.76310  Biso   1.000  H
  H20      1.0000 0.54190  0.04680  0.73690  Biso   1.000  H
  H21      1.0000 0.02590  0.39390  0.21590  Biso   1.000  H
  H22      1.0000 0.47410  0.89390  0.28410  Biso   1.000  H
  H23      1.0000 0.97410  0.60610  0.78410  Biso   1.000  H
  H24      1.0000 0.52590  0.10610  0.71590  Biso   1.000  H
  C25      1.0000 0.25080  0.56618  0.10810  Biso   1.000  C
  C26      1.0000 0.24920  0.06618  0.39190  Biso   1.000  C
  C27      1.0000 0.74920  0.43382  0.89190  Biso   1.000  C
  C28      1.0000 0.75080  0.93382  0.60810  Biso   1.000  C
  H25      1.0000 0.10370  0.57670  0.07140  Biso   1.000  H
  H26      1.0000 0.39630  0.07670  0.42860  Biso   1.000  H
  H27      1.0000 0.89630  0.42330  0.92860  Biso   1.000  H
  H28      1.0000 0.60370  0.92330  0.57140  Biso   1.000  H
  C29      1.0000 0.35090  0.51720  0.09830  Biso   1.000  C
  C30      1.0000 0.14910  0.01720  0.40170  Biso   1.000  C
  C31      1.0000 0.64910  0.48280  0.90170  Biso   1.000  C
  C32      1.0000 0.85090  0.98280  0.59830  Biso   1.000  C
  H29      1.0000 0.27470  0.49550  0.05530  Biso   1.000  H
  H30      1.0000 0.22530  0.99550  0.44470  Biso   1.000  H
  H31      1.0000 0.72530  0.50450  0.94470  Biso   1.000  H
  H32      1.0000 0.77470  0.00450  0.55530  Biso   1.000  H
  C33      1.0000 0.56620  0.49988  0.15270  Biso   1.000  C
  C34      1.0000 0.93380  0.99988  0.34730  Biso   1.000  C
  C35      1.0000 0.43380  0.50012  0.84730  Biso   1.000  C
  C36      1.0000 0.06620  0.00012  0.65270  Biso   1.000  C
  C37      1.0000 0.66570  0.53387  0.21620  Biso   1.000  C
  C38      1.0000 0.83430  0.03387  0.28380  Biso   1.000  C
  C39      1.0000 0.33430  0.46613  0.78380  Biso   1.000  C
  C40      1.0000 0.16570  0.96613  0.71620  Biso   1.000  C
  H33      1.0000 0.80650  0.52380  0.25550  Biso   1.000  H
  H34      1.0000 0.69350  0.02380  0.24450  Biso   1.000  H
  H35      1.0000 0.19350  0.47620  0.74450  Biso   1.000  H
  H36      1.0000 0.30650  0.97620  0.75550  Biso   1.000  H
  C41      1.0000 0.55500  0.58249  0.22060  Biso   1.000  C
  C42      1.0000 0.94500  0.08249  0.27940  Biso   1.000  C
  C43      1.0000 0.44500  0.41751  0.77940  Biso   1.000  C
  C44      1.0000 0.05500  0.91751  0.72060  Biso   1.000  C
  H37      1.0000 0.62580  0.60480  0.26350  Biso   1.000  H
  H38      1.0000 0.87420  0.10480  0.23650  Biso   1.000  H
  H39      1.0000 0.37420  0.39520  0.73650  Biso   1.000  H
  H40      1.0000 0.12580  0.89520  0.76350  Biso   1.000  H
  O1       1.0000 0.41200  0.15926  0.21196  Biso   1.000  O
  O2       1.0000 0.08800  0.65926  0.28804  Biso   1.000  O
  O3       1.0000 0.58800  0.84074  0.78804  Biso   1.000  O
  O4       1.0000 0.91200  0.34074  0.71196  Biso   1.000  O
  O5       1.0000 0.01220  0.18779  0.15420  Biso   1.000  O
  O6       1.0000 0.48780  0.68779  0.34580  Biso   1.000  O
  O7       1.0000 0.98780  0.81221  0.84580  Biso   1.000  O
  O8       1.0000 0.51220  0.31221  0.65420  Biso   1.000  O
  O9       1.0000 0.61610  0.13920  0.05520  Biso   1.000  O
  O10      1.0000 0.88390  0.63920  0.44480  Biso   1.000  O
  O11      1.0000 0.38390  0.86080  0.94480  Biso   1.000  O
  O12      1.0000 0.11610  0.36080  0.55520  Biso   1.000  O
  C45      1.0000 0.24750  0.16961  0.14860  Biso   1.000  C
  C46      1.0000 0.25250  0.66961  0.35140  Biso   1.000  C
  C47      1.0000 0.75250  0.83039  0.85140  Biso   1.000  C
  C48      1.0000 0.74750  0.33039  0.64860  Biso   1.000  C
  C49      1.0000 0.34640  0.15690  0.05870  Biso   1.000  C
  C50      1.0000 0.15360  0.65690  0.44130  Biso   1.000  C
  C51      1.0000 0.65360  0.84310  0.94130  Biso   1.000  C
  C52      1.0000 0.84640  0.34310  0.55870  Biso   1.000  C
  H41      1.0000 0.22470  0.13080  0.03290  Biso   1.000  H
  H42      1.0000 0.27530  0.63080  0.46710  Biso   1.000  H
  H43      1.0000 0.77530  0.86920  0.96710  Biso   1.000  H
  H44      1.0000 0.72470  0.36920  0.53290  Biso   1.000  H
  H45      1.0000 0.32800  0.18780  0.02290  Biso   1.000  H
  H46      1.0000 0.17200  0.68780  0.47710  Biso   1.000  H
  H47      1.0000 0.67200  0.81220  0.97710  Biso   1.000  H
  H48      1.0000 0.82800  0.31220  0.52290  Biso   1.000  H
  O13      1.0000 0.68780  0.16023  0.39935  Biso   1.000  O
  O14      1.0000 0.81220  0.66023  0.10065  Biso   1.000  O
  O15      1.0000 0.31220  0.83977  0.60065  Biso   1.000  O
  O16      1.0000 0.18780  0.33977  0.89935  Biso   1.000  O
  O17      1.0000 0.10660  0.18780  0.44035  Biso   1.000  O
  O18      1.0000 0.39340  0.68780  0.05965  Biso   1.000  O
  O19      1.0000 0.89340  0.81220  0.55965  Biso   1.000  O
  O20      1.0000 0.60660  0.31220  0.94035  Biso   1.000  O
  O21      1.0000 0.52180  0.16301  0.56830  Biso   1.000  O
  O22      1.0000 0.97820  0.66301  0.93170  Biso   1.000  O
  O23      1.0000 0.47820  0.83699  0.43170  Biso   1.000  O
  O24      1.0000 0.02180  0.33699  0.06830  Biso   1.000  O
  C53      1.0000 0.85800  0.17639  0.45520  Biso   1.000  C
  C54      1.0000 0.64200  0.67639  0.04480  Biso   1.000  C
  C55      1.0000 0.14200  0.82361  0.54480  Biso   1.000  C
  C56      1.0000 0.35800  0.32361  0.95520  Biso   1.000  C
  C57      1.0000 0.77720  0.18365  0.54770  Biso   1.000  C
  C58      1.0000 0.72280  0.68365  0.95230  Biso   1.000  C
  C59      1.0000 0.22280  0.81635  0.45230  Biso   1.000  C
  C60      1.0000 0.27720  0.31635  0.04770  Biso   1.000  C
  H49      1.0000 0.91840  0.16800  0.58580  Biso   1.000  H
  H50      1.0000 0.58160  0.66800  0.91420  Biso   1.000  H
  H51      1.0000 0.08160  0.83200  0.41420  Biso   1.000  H
  H52      1.0000 0.41840  0.33200  0.08580  Biso   1.000  H
  H53      1.0000 0.77560  0.22050  0.56020  Biso   1.000  H
  H54      1.0000 0.72440  0.72050  0.93980  Biso   1.000  H
  H55      1.0000 0.22440  0.77950  0.43980  Biso   1.000  H
  H56      1.0000 0.27560  0.27950  0.06020  Biso   1.000  H
  H57      1.0000 0.40800  0.17600  0.54000  Biso   1.000  H
  H58      1.0000 0.09200  0.67600  0.96000  Biso   1.000  H
  H59      1.0000 0.59200  0.82400  0.46000  Biso   1.000  H
  H60      1.0000 0.90800  0.32400  0.04000  Biso   1.000  H
  H61      1.0000 0.70900  0.15800  0.09300  Biso   1.000  H
  H62      1.0000 0.79100  0.65800  0.40700  Biso   1.000  H
  H63      1.0000 0.29100  0.84200  0.90700  Biso   1.000  H
  H64      1.0000 0.20900  0.34200  0.59300  Biso   1.000  H
  O25      1.0000 0.31370  0.01120  0.10640  Biso   1.000  O
  O26      1.0000 0.18630  0.51120  0.39360  Biso   1.000  O
  O27      1.0000 0.68630  0.98880  0.89360  Biso   1.000  O
  O28      1.0000 0.81370  0.48880  0.60640  Biso   1.000  O
  O29      1.0000 0.76240  0.04370  0.04900  Biso   1.000  O
  O30      1.0000 0.73760  0.54370  0.45100  Biso   1.000  O
  O31      1.0000 0.23760  0.95630  0.95100  Biso   1.000  O
  O32      1.0000 0.26240  0.45630  0.54900  Biso   1.000  O
