data_image0
_cell_length_a       9.4326
_cell_length_b       23.545
_cell_length_c       10.1694
_cell_angle_alpha    90
_cell_angle_beta     116.783
_cell_angle_gamma    90

_symmetry_space_group_name_H-M    "P 1"
_symmetry_int_tables_number       1

loop_
  _symmetry_equiv_pos_as_xyz
  'x, y, z'

loop_
  _atom_site_label
  _atom_site_occupancy
  _atom_site_fract_x
  _atom_site_fract_y
  _atom_site_fract_z
  _atom_site_thermal_displace_type
  _atom_site_B_iso_or_equiv
  _atom_site_type_symbol
  Cu1      1.0000 0.00000  0.20900  0.75000  Biso   1.000  Cu
  Cu2      1.0000 0.50000  0.70900  0.75000  Biso   1.000  Cu
  Cu3      1.0000 0.00000  0.79100  0.25000  Biso   1.000  Cu
  Cu4      1.0000 0.50000  0.29100  0.25000  Biso   1.000  Cu
  O1       1.0000 0.99880  0.26723  0.60660  Biso   1.000  O
  O2       1.0000 0.49880  0.76723  0.60660  Biso   1.000  O
  O3       1.0000 0.00120  0.26723  0.89340  Biso   1.000  O
  O4       1.0000 0.50120  0.76723  0.89340  Biso   1.000  O
  O5       1.0000 0.00120  0.73277  0.39340  Biso   1.000  O
  O6       1.0000 0.50120  0.23277  0.39340  Biso   1.000  O
  O7       1.0000 0.99880  0.73277  0.10660  Biso   1.000  O
  O8       1.0000 0.49880  0.23277  0.10660  Biso   1.000  O
  O9       1.0000 0.12800  0.32940  0.53750  Biso   1.000  O
  O10      1.0000 0.62800  0.82940  0.53750  Biso   1.000  O
  O11      1.0000 0.87200  0.32940  0.96250  Biso   1.000  O
  O12      1.0000 0.37200  0.82940  0.96250  Biso   1.000  O
  O13      1.0000 0.87200  0.67060  0.46250  Biso   1.000  O
  O14      1.0000 0.37200  0.17060  0.46250  Biso   1.000  O
  O15      1.0000 0.12800  0.67060  0.03750  Biso   1.000  O
  O16      1.0000 0.62800  0.17060  0.03750  Biso   1.000  O
  O17      1.0000 0.26360  0.22765  0.82330  Biso   1.000  O
  O18      1.0000 0.76360  0.72765  0.82330  Biso   1.000  O
  O19      1.0000 0.73640  0.22765  0.67670  Biso   1.000  O
  O20      1.0000 0.23640  0.72765  0.67670  Biso   1.000  O
  O21      1.0000 0.73640  0.77235  0.17670  Biso   1.000  O
  O22      1.0000 0.23640  0.27235  0.17670  Biso   1.000  O
  O23      1.0000 0.26360  0.77235  0.32330  Biso   1.000  O
  O24      1.0000 0.76360  0.27235  0.32330  Biso   1.000  O
  H1       1.0000 0.33300  0.22700  0.91000  Biso   1.000  H
  H2       1.0000 0.83300  0.72700  0.91000  Biso   1.000  H
  H3       1.0000 0.66700  0.22700  0.59000  Biso   1.000  H
  H4       1.0000 0.16700  0.72700  0.59000  Biso   1.000  H
  H5       1.0000 0.66700  0.77300  0.09000  Biso   1.000  H
  H6       1.0000 0.16700  0.27300  0.09000  Biso   1.000  H
  H7       1.0000 0.33300  0.77300  0.41000  Biso   1.000  H
  H8       1.0000 0.83300  0.27300  0.41000  Biso   1.000  H
  C1       1.0000 0.12360  0.29180  0.62000  Biso   1.000  C
  C2       1.0000 0.62360  0.79180  0.62000  Biso   1.000  C
  C3       1.0000 0.87640  0.29180  0.88000  Biso   1.000  C
  C4       1.0000 0.37640  0.79180  0.88000  Biso   1.000  C
  C5       1.0000 0.87640  0.70820  0.38000  Biso   1.000  C
  C6       1.0000 0.37640  0.20820  0.38000  Biso   1.000  C
  C7       1.0000 0.12360  0.70820  0.12000  Biso   1.000  C
  C8       1.0000 0.62360  0.20820  0.12000  Biso   1.000  C
  C9       1.0000 0.28080  0.27440  0.74660  Biso   1.000  C
  C10      1.0000 0.78080  0.77440  0.74660  Biso   1.000  C
  C11      1.0000 0.71920  0.27440  0.75340  Biso   1.000  C
  C12      1.0000 0.21920  0.77440  0.75340  Biso   1.000  C
  C13      1.0000 0.71920  0.72560  0.25340  Biso   1.000  C
  C14      1.0000 0.21920  0.22560  0.25340  Biso   1.000  C
  C15      1.0000 0.28080  0.72560  0.24660  Biso   1.000  C
  C16      1.0000 0.78080  0.22560  0.24660  Biso   1.000  C
  H9       1.0000 0.35540  0.26500  0.70850  Biso   1.000  H
  H10      1.0000 0.85540  0.76500  0.70850  Biso   1.000  H
  H11      1.0000 0.64460  0.26500  0.79150  Biso   1.000  H
  H12      1.0000 0.14460  0.76500  0.79150  Biso   1.000  H
  H13      1.0000 0.64460  0.73500  0.29150  Biso   1.000  H
  H14      1.0000 0.14460  0.23500  0.29150  Biso   1.000  H
  H15      1.0000 0.35540  0.73500  0.20850  Biso   1.000  H
  H16      1.0000 0.85540  0.23500  0.20850  Biso   1.000  H
  H17      1.0000 0.32410  0.30610  0.81390  Biso   1.000  H
  H18      1.0000 0.82410  0.80610  0.81390  Biso   1.000  H
  H19      1.0000 0.67590  0.30610  0.68610  Biso   1.000  H
  H20      1.0000 0.17590  0.80610  0.68610  Biso   1.000  H
  H21      1.0000 0.67590  0.69390  0.18610  Biso   1.000  H
  H22      1.0000 0.17590  0.19390  0.18610  Biso   1.000  H
  H23      1.0000 0.32410  0.69390  0.31390  Biso   1.000  H
  H24      1.0000 0.82410  0.19390  0.31390  Biso   1.000  H
  N1       1.0000 0.96860  0.14800  0.60000  Biso   1.000  N
  N2       1.0000 0.46860  0.64800  0.60000  Biso   1.000  N
  N3       1.0000 0.03140  0.14800  0.90000  Biso   1.000  N
  N4       1.0000 0.53140  0.64800  0.90000  Biso   1.000  N
  N5       1.0000 0.03140  0.85200  0.40000  Biso   1.000  N
  N6       1.0000 0.53140  0.35200  0.40000  Biso   1.000  N
  N7       1.0000 0.96860  0.85200  0.10000  Biso   1.000  N
  N8       1.0000 0.46860  0.35200  0.10000  Biso   1.000  N
  S1       1.0000 0.89940  0.01009  0.26344  Biso   1.000  S
  S2       1.0000 0.39940  0.51009  0.26344  Biso   1.000  S
  S3       1.0000 0.10060  0.01009  0.23656  Biso   1.000  S
  S4       1.0000 0.60060  0.51009  0.23656  Biso   1.000  S
  S5       1.0000 0.10060  0.98991  0.73656  Biso   1.000  S
  S6       1.0000 0.60060  0.48991  0.73656  Biso   1.000  S
  S7       1.0000 0.89940  0.98991  0.76344  Biso   1.000  S
  S8       1.0000 0.39940  0.48991  0.76344  Biso   1.000  S
  C17      1.0000 0.08260  0.13860  0.55710  Biso   1.000  C
  C18      1.0000 0.58260  0.63860  0.55710  Biso   1.000  C
  C19      1.0000 0.91740  0.13860  0.94290  Biso   1.000  C
  C20      1.0000 0.41740  0.63860  0.94290  Biso   1.000  C
  C21      1.0000 0.91740  0.86140  0.44290  Biso   1.000  C
  C22      1.0000 0.41740  0.36140  0.44290  Biso   1.000  C
  C23      1.0000 0.08260  0.86140  0.05710  Biso   1.000  C
  C24      1.0000 0.58260  0.36140  0.05710  Biso   1.000  C
  H25      1.0000 0.17410  0.16070  0.59870  Biso   1.000  H
  H26      1.0000 0.67410  0.66070  0.59870  Biso   1.000  H
  H27      1.0000 0.82590  0.16070  0.90130  Biso   1.000  H
  H28      1.0000 0.32590  0.66070  0.90130  Biso   1.000  H
  H29      1.0000 0.82590  0.83930  0.40130  Biso   1.000  H
  H30      1.0000 0.32590  0.33930  0.40130  Biso   1.000  H
  H31      1.0000 0.17410  0.83930  0.09870  Biso   1.000  H
  H32      1.0000 0.67410  0.33930  0.09870  Biso   1.000  H
  C25      1.0000 0.07040  0.09820  0.45530  Biso   1.000  C
  C26      1.0000 0.57040  0.59820  0.45530  Biso   1.000  C
  C27      1.0000 0.92960  0.09820  0.04470  Biso   1.000  C
  C28      1.0000 0.42960  0.59820  0.04470  Biso   1.000  C
  C29      1.0000 0.92960  0.90180  0.54470  Biso   1.000  C
  C30      1.0000 0.42960  0.40180  0.54470  Biso   1.000  C
  C31      1.0000 0.07040  0.90180  0.95530  Biso   1.000  C
  C32      1.0000 0.57040  0.40180  0.95530  Biso   1.000  C
  H33      1.0000 0.15160  0.09320  0.42820  Biso   1.000  H
  H34      1.0000 0.65160  0.59320  0.42820  Biso   1.000  H
  H35      1.0000 0.84840  0.09320  0.07180  Biso   1.000  H
  H36      1.0000 0.34840  0.59320  0.07180  Biso   1.000  H
  H37      1.0000 0.84840  0.90680  0.57180  Biso   1.000  H
  H38      1.0000 0.34840  0.40680  0.57180  Biso   1.000  H
  H39      1.0000 0.15160  0.90680  0.92820  Biso   1.000  H
  H40      1.0000 0.65160  0.40680  0.92820  Biso   1.000  H
  C33      1.0000 0.93380  0.06480  0.39330  Biso   1.000  C
  C34      1.0000 0.43380  0.56480  0.39330  Biso   1.000  C
  C35      1.0000 0.06620  0.06480  0.10670  Biso   1.000  C
  C36      1.0000 0.56620  0.56480  0.10670  Biso   1.000  C
  C37      1.0000 0.06620  0.93520  0.60670  Biso   1.000  C
  C38      1.0000 0.56620  0.43520  0.60670  Biso   1.000  C
  C39      1.0000 0.93380  0.93520  0.89330  Biso   1.000  C
  C40      1.0000 0.43380  0.43520  0.89330  Biso   1.000  C
  C41      1.0000 0.81510  0.07480  0.43640  Biso   1.000  C
  C42      1.0000 0.31510  0.57480  0.43640  Biso   1.000  C
  C43      1.0000 0.18490  0.07480  0.06360  Biso   1.000  C
  C44      1.0000 0.68490  0.57480  0.06360  Biso   1.000  C
  C45      1.0000 0.18490  0.92520  0.56360  Biso   1.000  C
  C46      1.0000 0.68490  0.42520  0.56360  Biso   1.000  C
  C47      1.0000 0.81510  0.92520  0.93640  Biso   1.000  C
  C48      1.0000 0.31510  0.42520  0.93640  Biso   1.000  C
  H41      1.0000 0.72090  0.05410  0.39540  Biso   1.000  H
  H42      1.0000 0.22090  0.55410  0.39540  Biso   1.000  H
  H43      1.0000 0.27910  0.05410  0.10460  Biso   1.000  H
  H44      1.0000 0.77910  0.55410  0.10460  Biso   1.000  H
  H45      1.0000 0.27910  0.94590  0.60460  Biso   1.000  H
  H46      1.0000 0.77910  0.44590  0.60460  Biso   1.000  H
  H47      1.0000 0.72090  0.94590  0.89540  Biso   1.000  H
  H48      1.0000 0.22090  0.44590  0.89540  Biso   1.000  H
  C49      1.0000 0.84060  0.11590  0.54120  Biso   1.000  C
  C50      1.0000 0.34060  0.61590  0.54120  Biso   1.000  C
  C51      1.0000 0.15940  0.11590  0.95880  Biso   1.000  C
  C52      1.0000 0.65940  0.61590  0.95880  Biso   1.000  C
  C53      1.0000 0.15940  0.88410  0.45880  Biso   1.000  C
  C54      1.0000 0.65940  0.38410  0.45880  Biso   1.000  C
  C55      1.0000 0.84060  0.88410  0.04120  Biso   1.000  C
  C56      1.0000 0.34060  0.38410  0.04120  Biso   1.000  C
  H49      1.0000 0.76280  0.12130  0.57240  Biso   1.000  H
  H50      1.0000 0.26280  0.62130  0.57240  Biso   1.000  H
  H51      1.0000 0.23720  0.12130  0.92760  Biso   1.000  H
  H52      1.0000 0.73720  0.62130  0.92760  Biso   1.000  H
  H53      1.0000 0.23720  0.87870  0.42760  Biso   1.000  H
  H54      1.0000 0.73720  0.37870  0.42760  Biso   1.000  H
  H55      1.0000 0.76280  0.87870  0.07240  Biso   1.000  H
  H56      1.0000 0.26280  0.37870  0.07240  Biso   1.000  H
  O25      1.0000 0.50000  0.13070  0.75000  Biso   1.000  O
  O26      1.0000 0.00000  0.63070  0.75000  Biso   1.000  O
  O27      1.0000 0.50000  0.86930  0.25000  Biso   1.000  O
  O28      1.0000 0.00000  0.36930  0.25000  Biso   1.000  O
  O29      1.0000 0.50000  0.01550  0.75000  Biso   1.000  O
  O30      1.0000 0.00000  0.51550  0.75000  Biso   1.000  O
  O31      1.0000 0.50000  0.98450  0.25000  Biso   1.000  O
  O32      1.0000 0.00000  0.48450  0.25000  Biso   1.000  O
  O33      1.0000 0.50760  0.05300  0.99400  Biso   1.000  O
  O34      1.0000 0.00760  0.55300  0.99400  Biso   1.000  O
  O35      1.0000 0.49240  0.05300  0.50600  Biso   1.000  O
  O36      1.0000 0.99240  0.55300  0.50600  Biso   1.000  O
  O37      1.0000 0.49240  0.94700  0.00600  Biso   1.000  O
  O38      1.0000 0.99240  0.44700  0.00600  Biso   1.000  O
  O39      1.0000 0.50760  0.94700  0.49400  Biso   1.000  O
  O40      1.0000 0.00760  0.44700  0.49400  Biso   1.000  O
