data_image0
_cell_length_a       12.08
_cell_length_b       14.286
_cell_length_c       12.145
_cell_angle_alpha    90
_cell_angle_beta     116.403
_cell_angle_gamma    90

_symmetry_space_group_name_H-M    "P 1"
_symmetry_int_tables_number       1

loop_
  _symmetry_equiv_pos_as_xyz
  'x, y, z'

loop_
  _atom_site_label
  _atom_site_occupancy
  _atom_site_fract_x
  _atom_site_fract_y
  _atom_site_fract_z
  _atom_site_thermal_displace_type
  _atom_site_B_iso_or_equiv
  _atom_site_type_symbol
  Cu1      1.0000 0.82313  0.07051  0.98647  Biso   1.000  Cu
  Cu2      1.0000 0.67687  0.57051  0.51353  Biso   1.000  Cu
  Cu3      1.0000 0.17687  0.92949  0.01353  Biso   1.000  Cu
  Cu4      1.0000 0.32313  0.42949  0.48647  Biso   1.000  Cu
  O1       1.0000 0.78910  0.98707  0.84503  Biso   1.000  O
  O2       1.0000 0.71090  0.48707  0.65497  Biso   1.000  O
  O3       1.0000 0.21090  0.01293  0.15497  Biso   1.000  O
  O4       1.0000 0.28910  0.51293  0.34503  Biso   1.000  O
  N1       1.0000 0.90790  0.95797  0.07030  Biso   1.000  N
  N2       1.0000 0.59210  0.45797  0.42970  Biso   1.000  N
  N3       1.0000 0.09210  0.04203  0.92970  Biso   1.000  N
  N4       1.0000 0.40790  0.54203  0.57030  Biso   1.000  N
  N5       1.0000 0.89450  0.11442  0.16450  Biso   1.000  N
  N6       1.0000 0.60550  0.61442  0.33550  Biso   1.000  N
  N7       1.0000 0.10550  0.88558  0.83550  Biso   1.000  N
  N8       1.0000 0.39450  0.38558  0.66450  Biso   1.000  N
  N9       1.0000 0.89930  0.88057  0.99870  Biso   1.000  N
  N10      1.0000 0.60070  0.38057  0.50130  Biso   1.000  N
  N11      1.0000 0.10070  0.11943  0.00130  Biso   1.000  N
  N12      1.0000 0.39930  0.61943  0.49870  Biso   1.000  N
  C1       1.0000 0.96010  0.95430  0.18890  Biso   1.000  C
  C2       1.0000 0.53990  0.45430  0.31110  Biso   1.000  C
  C3       1.0000 0.03990  0.04570  0.81110  Biso   1.000  C
  C4       1.0000 0.46010  0.54570  0.68890  Biso   1.000  C
  C5       1.0000 0.83290  0.90550  0.88240  Biso   1.000  C
  C6       1.0000 0.66710  0.40550  0.61760  Biso   1.000  C
  C7       1.0000 0.16710  0.09450  0.11760  Biso   1.000  C
  C8       1.0000 0.33290  0.59450  0.38240  Biso   1.000  C
  C9       1.0000 0.80480  0.82960  0.79020  Biso   1.000  C
  C10      1.0000 0.69520  0.32960  0.70980  Biso   1.000  C
  C11      1.0000 0.19520  0.17040  0.20980  Biso   1.000  C
  C12      1.0000 0.30480  0.67040  0.29020  Biso   1.000  C
  C13      1.0000 0.02060  0.06340  0.37060  Biso   1.000  C
  C14      1.0000 0.47940  0.56340  0.12940  Biso   1.000  C
  C15      1.0000 0.97940  0.93660  0.62940  Biso   1.000  C
  C16      1.0000 0.52060  0.43660  0.87060  Biso   1.000  C
  H1       1.0000 0.06580  0.01630  0.42490  Biso   1.000  H
  H2       1.0000 0.43420  0.51630  0.07510  Biso   1.000  H
  H3       1.0000 0.93420  0.98370  0.57510  Biso   1.000  H
  H4       1.0000 0.56580  0.48370  0.92490  Biso   1.000  H
  C17      1.0000 0.96100  0.04660  0.24560  Biso   1.000  C
  C18      1.0000 0.53900  0.54660  0.25440  Biso   1.000  C
  C19      1.0000 0.03900  0.95340  0.75440  Biso   1.000  C
  C20      1.0000 0.46100  0.45340  0.74560  Biso   1.000  C
  C21      1.0000 0.82030  0.67140  0.73540  Biso   1.000  C
  C22      1.0000 0.67970  0.17140  0.76460  Biso   1.000  C
  C23      1.0000 0.17970  0.32860  0.26460  Biso   1.000  C
  C24      1.0000 0.32030  0.82860  0.23540  Biso   1.000  C
  H5       1.0000 0.85730  0.61290  0.75800  Biso   1.000  H
  H6       1.0000 0.64270  0.11290  0.74200  Biso   1.000  H
  H7       1.0000 0.14270  0.38710  0.24200  Biso   1.000  H
  H8       1.0000 0.35730  0.88710  0.25800  Biso   1.000  H
  C25      1.0000 0.85680  0.74150  0.82170  Biso   1.000  C
  C26      1.0000 0.64320  0.24150  0.67830  Biso   1.000  C
  C27      1.0000 0.14320  0.25850  0.17830  Biso   1.000  C
  C28      1.0000 0.35680  0.75850  0.32170  Biso   1.000  C
  H9       1.0000 0.91660  0.72970  0.90130  Biso   1.000  H
  H10      1.0000 0.58340  0.22970  0.59870  Biso   1.000  H
  H11      1.0000 0.08340  0.27030  0.09870  Biso   1.000  H
  H12      1.0000 0.41660  0.77030  0.40130  Biso   1.000  H
  C29      1.0000 0.00420  0.86740  0.26190  Biso   1.000  C
  C30      1.0000 0.49580  0.36740  0.23810  Biso   1.000  C
  C31      1.0000 0.99580  0.13260  0.73810  Biso   1.000  C
  C32      1.0000 0.50420  0.63260  0.76190  Biso   1.000  C
  C33      1.0000 0.94190  0.21880  0.33230  Biso   1.000  C
  C34      1.0000 0.55810  0.71880  0.16770  Biso   1.000  C
  C35      1.0000 0.05810  0.78120  0.66770  Biso   1.000  C
  C36      1.0000 0.44190  0.28120  0.83230  Biso   1.000  C
  H13      1.0000 0.93390  0.27800  0.35990  Biso   1.000  H
  H14      1.0000 0.56610  0.77800  0.14010  Biso   1.000  H
  H15      1.0000 0.06610  0.72200  0.64010  Biso   1.000  H
  H16      1.0000 0.43390  0.22200  0.85990  Biso   1.000  H
  C37      1.0000 0.01180  0.15130  0.41360  Biso   1.000  C
  C38      1.0000 0.48820  0.65130  0.08640  Biso   1.000  C
  C39      1.0000 0.98820  0.84870  0.58640  Biso   1.000  C
  C40      1.0000 0.51180  0.34870  0.91360  Biso   1.000  C
  H17      1.0000 0.05300  0.16450  0.49720  Biso   1.000  H
  H18      1.0000 0.44700  0.66450  0.00280  Biso   1.000  H
  H19      1.0000 0.94700  0.83550  0.50280  Biso   1.000  H
  H20      1.0000 0.55300  0.33550  0.99720  Biso   1.000  H
  C41      1.0000 0.71660  0.84370  0.66980  Biso   1.000  C
  C42      1.0000 0.78340  0.34370  0.83020  Biso   1.000  C
  C43      1.0000 0.28340  0.15630  0.33020  Biso   1.000  C
  C44      1.0000 0.21660  0.65630  0.16980  Biso   1.000  C
  H21      1.0000 0.68060  0.90230  0.64420  Biso   1.000  H
  H22      1.0000 0.81940  0.40230  0.85580  Biso   1.000  H
  H23      1.0000 0.31940  0.09770  0.35580  Biso   1.000  H
  H24      1.0000 0.18060  0.59770  0.14420  Biso   1.000  H
  O5       1.0000 0.63670  0.05440  0.98380  Biso   1.000  O
  O6       1.0000 0.86330  0.55440  0.51620  Biso   1.000  O
  O7       1.0000 0.36330  0.94560  0.01620  Biso   1.000  O
  O8       1.0000 0.13670  0.44560  0.48380  Biso   1.000  O
  C45      1.0000 0.92490  0.79220  0.23330  Biso   1.000  C
  C46      1.0000 0.57510  0.29220  0.26670  Biso   1.000  C
  C47      1.0000 0.07510  0.20780  0.76670  Biso   1.000  C
  C48      1.0000 0.42490  0.70780  0.73330  Biso   1.000  C
  H25      1.0000 0.84570  0.79550  0.16880  Biso   1.000  H
  H26      1.0000 0.65430  0.29550  0.33120  Biso   1.000  H
  H27      1.0000 0.15430  0.20450  0.83120  Biso   1.000  H
  H28      1.0000 0.34570  0.70450  0.66880  Biso   1.000  H
  C49      1.0000 0.08140  0.70990  0.39860  Biso   1.000  C
  C50      1.0000 0.41860  0.20990  0.10140  Biso   1.000  C
  C51      1.0000 0.91860  0.29010  0.60140  Biso   1.000  C
  C52      1.0000 0.58140  0.79010  0.89860  Biso   1.000  C
  H29      1.0000 0.11010  0.65650  0.44680  Biso   1.000  H
  H30      1.0000 0.38990  0.15650  0.05320  Biso   1.000  H
  H31      1.0000 0.88990  0.34350  0.55320  Biso   1.000  H
  H32      1.0000 0.61010  0.84350  0.94680  Biso   1.000  H
  C53      1.0000 0.88370  0.19730  0.20870  Biso   1.000  C
  C54      1.0000 0.61630  0.69730  0.29130  Biso   1.000  C
  C55      1.0000 0.11630  0.80270  0.79130  Biso   1.000  C
  C56      1.0000 0.38370  0.30270  0.70870  Biso   1.000  C
  H33      1.0000 0.83460  0.24280  0.15390  Biso   1.000  H
  H34      1.0000 0.66540  0.74280  0.34610  Biso   1.000  H
  H35      1.0000 0.16540  0.75720  0.84610  Biso   1.000  H
  H36      1.0000 0.33460  0.25720  0.65390  Biso   1.000  H
  C57      1.0000 0.15370  0.78730  0.42220  Biso   1.000  C
  C58      1.0000 0.34630  0.28730  0.07780  Biso   1.000  C
  C59      1.0000 0.84630  0.21270  0.57780  Biso   1.000  C
  C60      1.0000 0.65370  0.71270  0.92220  Biso   1.000  C
  H37      1.0000 0.23260  0.78510  0.48750  Biso   1.000  H
  H38      1.0000 0.26740  0.28510  0.01250  Biso   1.000  H
  H39      1.0000 0.76740  0.21490  0.51250  Biso   1.000  H
  H40      1.0000 0.73260  0.71490  0.98750  Biso   1.000  H
  C61      1.0000 0.96550  0.71230  0.30230  Biso   1.000  C
  C62      1.0000 0.53450  0.21230  0.19770  Biso   1.000  C
  C63      1.0000 0.03450  0.28770  0.69770  Biso   1.000  C
  C64      1.0000 0.46550  0.78770  0.80230  Biso   1.000  C
  H41      1.0000 0.91450  0.66000  0.28370  Biso   1.000  H
  H42      1.0000 0.58550  0.16000  0.21630  Biso   1.000  H
  H43      1.0000 0.08550  0.34000  0.71630  Biso   1.000  H
  H44      1.0000 0.41450  0.84000  0.78370  Biso   1.000  H
  N13      1.0000 0.73270  0.68416  0.61920  Biso   1.000  N
  N14      1.0000 0.76730  0.18416  0.88080  Biso   1.000  N
  N15      1.0000 0.26730  0.31584  0.38080  Biso   1.000  N
  N16      1.0000 0.23270  0.81584  0.11920  Biso   1.000  N
  C65      1.0000 0.68360  0.76970  0.58910  Biso   1.000  C
  C66      1.0000 0.81640  0.26970  0.91090  Biso   1.000  C
  C67      1.0000 0.31640  0.23030  0.41090  Biso   1.000  C
  C68      1.0000 0.18360  0.73030  0.08910  Biso   1.000  C
  H45      1.0000 0.62360  0.77970  0.50900  Biso   1.000  H
  H46      1.0000 0.87640  0.27970  0.99100  Biso   1.000  H
  H47      1.0000 0.37640  0.22030  0.49100  Biso   1.000  H
  H48      1.0000 0.12360  0.72030  0.00900  Biso   1.000  H
  N17      1.0000 0.11790  0.86720  0.35650  Biso   1.000  N
  N18      1.0000 0.38210  0.36720  0.14350  Biso   1.000  N
  N19      1.0000 0.88210  0.13280  0.64350  Biso   1.000  N
  N20      1.0000 0.61790  0.63280  0.85650  Biso   1.000  N
  H49      1.0000 0.56900  0.04500  0.92400  Biso   1.000  H
  H50      1.0000 0.93100  0.54500  0.57600  Biso   1.000  H
  H51      1.0000 0.43100  0.95500  0.07600  Biso   1.000  H
  H52      1.0000 0.06900  0.45500  0.42400  Biso   1.000  H
  H53      1.0000 0.64900  0.01200  0.03400  Biso   1.000  H
  H54      1.0000 0.85100  0.51200  0.46600  Biso   1.000  H
  H55      1.0000 0.35100  0.98800  0.96600  Biso   1.000  H
  H56      1.0000 0.14900  0.48800  0.53400  Biso   1.000  H
  N21      1.0000 0.66860  0.95250  0.27140  Biso   1.000  N
  N22      1.0000 0.83140  0.45250  0.22860  Biso   1.000  N
  N23      1.0000 0.33140  0.04750  0.72860  Biso   1.000  N
  N24      1.0000 0.16860  0.54750  0.77140  Biso   1.000  N
  O9       1.0000 0.75580  0.97710  0.34310  Biso   1.000  O
  O10      1.0000 0.74420  0.47710  0.15690  Biso   1.000  O
  O11      1.0000 0.24420  0.02290  0.65690  Biso   1.000  O
  O12      1.0000 0.25580  0.52290  0.84310  Biso   1.000  O
  O13      1.0000 0.56880  0.96910  0.25780  Biso   1.000  O
  O14      1.0000 0.93120  0.46910  0.24220  Biso   1.000  O
  O15      1.0000 0.43120  0.03090  0.74220  Biso   1.000  O
  O16      1.0000 0.06880  0.53090  0.75780  Biso   1.000  O
  O17      1.0000 0.67220  0.94070  0.17510  Biso   1.000  O
  O18      1.0000 0.82780  0.44070  0.32490  Biso   1.000  O
  O19      1.0000 0.32780  0.05930  0.82490  Biso   1.000  O
  O20      1.0000 0.17220  0.55930  0.67510  Biso   1.000  O
  O21      1.0000 0.70870  0.91690  0.36720  Biso   1.000  O
  O22      1.0000 0.79130  0.41690  0.13280  Biso   1.000  O
  O23      1.0000 0.29130  0.08310  0.63280  Biso   1.000  O
  O24      1.0000 0.20870  0.58310  0.86720  Biso   1.000  O
  O25      1.0000 0.89690  0.55470  0.99860  Biso   1.000  O
  O26      1.0000 0.60310  0.05470  0.50140  Biso   1.000  O
  O27      1.0000 0.10310  0.44530  0.00140  Biso   1.000  O
  O28      1.0000 0.39690  0.94530  0.49860  Biso   1.000  O
  H57      1.0000 0.90520  0.52560  0.06290  Biso   1.000  H
  H58      1.0000 0.59480  0.02560  0.43710  Biso   1.000  H
  H59      1.0000 0.09480  0.47440  0.93710  Biso   1.000  H
  H60      1.0000 0.40520  0.97440  0.56290  Biso   1.000  H
  H61      1.0000 0.82190  0.55200  0.94490  Biso   1.000  H
  H62      1.0000 0.67810  0.05200  0.55510  Biso   1.000  H
  H63      1.0000 0.17810  0.44800  0.05510  Biso   1.000  H
  H64      1.0000 0.32190  0.94800  0.44490  Biso   1.000  H
