data_image0
_cell_length_a       9.86
_cell_length_b       25.73
_cell_length_c       15.97
_cell_angle_alpha    90
_cell_angle_beta     90
_cell_angle_gamma    90

_symmetry_space_group_name_H-M    "P 1"
_symmetry_int_tables_number       1

loop_
  _symmetry_equiv_pos_as_xyz
  'x, y, z'

loop_
  _atom_site_label
  _atom_site_occupancy
  _atom_site_fract_x
  _atom_site_fract_y
  _atom_site_fract_z
  _atom_site_thermal_displace_type
  _atom_site_B_iso_or_equiv
  _atom_site_type_symbol
  Cu1      1.0000 0.58146  0.75000  0.48026  Biso   1.000  Cu
  Cu2      1.0000 0.91854  0.25000  0.98026  Biso   1.000  Cu
  Cu3      1.0000 0.41854  0.25000  0.51974  Biso   1.000  Cu
  Cu4      1.0000 0.08146  0.75000  0.01974  Biso   1.000  Cu
  O1       1.0000 0.57700  0.82470  0.48180  Biso   1.000  O
  O2       1.0000 0.92300  0.17530  0.98180  Biso   1.000  O
  O3       1.0000 0.42300  0.32470  0.51820  Biso   1.000  O
  O4       1.0000 0.07700  0.67530  0.01820  Biso   1.000  O
  O5       1.0000 0.42300  0.17530  0.51820  Biso   1.000  O
  O6       1.0000 0.07700  0.82470  0.01820  Biso   1.000  O
  O7       1.0000 0.57700  0.67530  0.48180  Biso   1.000  O
  O8       1.0000 0.92300  0.32470  0.98180  Biso   1.000  O
  C1       1.0000 0.46090  0.84650  0.46890  Biso   1.000  C
  C2       1.0000 0.03910  0.15350  0.96890  Biso   1.000  C
  C3       1.0000 0.53910  0.34650  0.53110  Biso   1.000  C
  C4       1.0000 0.96090  0.65350  0.03110  Biso   1.000  C
  C5       1.0000 0.53910  0.15350  0.53110  Biso   1.000  C
  C6       1.0000 0.96090  0.84650  0.03110  Biso   1.000  C
  C7       1.0000 0.46090  0.65350  0.46890  Biso   1.000  C
  C8       1.0000 0.03910  0.34650  0.96890  Biso   1.000  C
  O9       1.0000 0.35820  0.82190  0.45120  Biso   1.000  O
  O10      1.0000 0.14180  0.17810  0.95120  Biso   1.000  O
  O11      1.0000 0.64180  0.32190  0.54880  Biso   1.000  O
  O12      1.0000 0.85820  0.67810  0.04880  Biso   1.000  O
  O13      1.0000 0.64180  0.17810  0.54880  Biso   1.000  O
  O14      1.0000 0.85820  0.82190  0.04880  Biso   1.000  O
  O15      1.0000 0.35820  0.67810  0.45120  Biso   1.000  O
  O16      1.0000 0.14180  0.32190  0.95120  Biso   1.000  O
  C9       1.0000 0.45710  0.90440  0.47690  Biso   1.000  C
  C10      1.0000 0.04290  0.09560  0.97690  Biso   1.000  C
  C11      1.0000 0.54290  0.40440  0.52310  Biso   1.000  C
  C12      1.0000 0.95710  0.59560  0.02310  Biso   1.000  C
  C13      1.0000 0.54290  0.09560  0.52310  Biso   1.000  C
  C14      1.0000 0.95710  0.90440  0.02310  Biso   1.000  C
  C15      1.0000 0.45710  0.59560  0.47690  Biso   1.000  C
  C16      1.0000 0.04290  0.40440  0.97690  Biso   1.000  C
  C17      1.0000 0.56890  0.93300  0.49880  Biso   1.000  C
  C18      1.0000 0.93110  0.06700  0.99880  Biso   1.000  C
  C19      1.0000 0.43110  0.43300  0.50120  Biso   1.000  C
  C20      1.0000 0.06890  0.56700  0.00120  Biso   1.000  C
  C21      1.0000 0.43110  0.06700  0.50120  Biso   1.000  C
  C22      1.0000 0.06890  0.93300  0.00120  Biso   1.000  C
  C23      1.0000 0.56890  0.56700  0.49880  Biso   1.000  C
  C24      1.0000 0.93110  0.43300  0.99880  Biso   1.000  C
  C25      1.0000 0.33260  0.92990  0.46200  Biso   1.000  C
  C26      1.0000 0.16740  0.07010  0.96200  Biso   1.000  C
  C27      1.0000 0.66740  0.42990  0.53800  Biso   1.000  C
  C28      1.0000 0.83260  0.57010  0.03800  Biso   1.000  C
  C29      1.0000 0.66740  0.07010  0.53800  Biso   1.000  C
  C30      1.0000 0.83260  0.92990  0.03800  Biso   1.000  C
  C31      1.0000 0.33260  0.57010  0.46200  Biso   1.000  C
  C32      1.0000 0.16740  0.42990  0.96200  Biso   1.000  C
  C33      1.0000 0.56120  0.98760  0.50660  Biso   1.000  C
  C34      1.0000 0.93880  0.01240  0.00660  Biso   1.000  C
  C35      1.0000 0.43880  0.48760  0.49340  Biso   1.000  C
  C36      1.0000 0.06120  0.51240  0.99340  Biso   1.000  C
  C37      1.0000 0.43880  0.01240  0.49340  Biso   1.000  C
  C38      1.0000 0.06120  0.98760  0.99340  Biso   1.000  C
  C39      1.0000 0.56120  0.51240  0.50660  Biso   1.000  C
  C40      1.0000 0.93880  0.48760  0.00660  Biso   1.000  C
  H1       1.0000 0.65230  0.91590  0.51000  Biso   1.000  H
  H2       1.0000 0.84770  0.08410  0.01000  Biso   1.000  H
  H3       1.0000 0.34770  0.41590  0.49000  Biso   1.000  H
  H4       1.0000 0.15230  0.58410  0.99000  Biso   1.000  H
  H5       1.0000 0.34770  0.08410  0.49000  Biso   1.000  H
  H6       1.0000 0.15230  0.91590  0.99000  Biso   1.000  H
  H7       1.0000 0.65230  0.58410  0.51000  Biso   1.000  H
  H8       1.0000 0.84770  0.41590  0.01000  Biso   1.000  H
  H9       1.0000 0.25460  0.91010  0.44760  Biso   1.000  H
  H10      1.0000 0.24540  0.08990  0.94760  Biso   1.000  H
  H11      1.0000 0.74540  0.41010  0.55240  Biso   1.000  H
  H12      1.0000 0.75460  0.58990  0.05240  Biso   1.000  H
  H13      1.0000 0.74540  0.08990  0.55240  Biso   1.000  H
  H14      1.0000 0.75460  0.91010  0.05240  Biso   1.000  H
  H15      1.0000 0.25460  0.58990  0.44760  Biso   1.000  H
  H16      1.0000 0.24540  0.41010  0.94760  Biso   1.000  H
  C41      1.0000 0.32360  0.98320  0.46990  Biso   1.000  C
  C42      1.0000 0.17640  0.01680  0.96990  Biso   1.000  C
  C43      1.0000 0.67640  0.48320  0.53010  Biso   1.000  C
  C44      1.0000 0.82360  0.51680  0.03010  Biso   1.000  C
  C45      1.0000 0.67640  0.01680  0.53010  Biso   1.000  C
  C46      1.0000 0.82360  0.98320  0.03010  Biso   1.000  C
  C47      1.0000 0.32360  0.51680  0.46990  Biso   1.000  C
  C48      1.0000 0.17640  0.48320  0.96990  Biso   1.000  C
  H17      1.0000 0.24380  0.00080  0.45240  Biso   1.000  H
  H18      1.0000 0.25620  0.99920  0.95240  Biso   1.000  H
  H19      1.0000 0.75620  0.50080  0.54760  Biso   1.000  H
  H20      1.0000 0.74380  0.49920  0.04760  Biso   1.000  H
  H21      1.0000 0.75620  0.99920  0.54760  Biso   1.000  H
  H22      1.0000 0.74380  0.00080  0.04760  Biso   1.000  H
  H23      1.0000 0.24380  0.49920  0.45240  Biso   1.000  H
  H24      1.0000 0.25620  0.50080  0.95240  Biso   1.000  H
  N1       1.0000 0.48460  0.25000  0.39880  Biso   1.000  N
  N2       1.0000 0.01540  0.75000  0.89880  Biso   1.000  N
  N3       1.0000 0.51540  0.75000  0.60120  Biso   1.000  N
  N4       1.0000 0.98460  0.25000  0.10120  Biso   1.000  N
  N5       1.0000 0.18650  0.25000  0.48720  Biso   1.000  N
  N6       1.0000 0.31350  0.75000  0.98720  Biso   1.000  N
  N7       1.0000 0.81350  0.75000  0.51280  Biso   1.000  N
  N8       1.0000 0.68650  0.25000  0.01280  Biso   1.000  N
  N9       1.0000 0.37430  0.25000  0.64390  Biso   1.000  N
  N10      1.0000 0.12570  0.75000  0.14390  Biso   1.000  N
  N11      1.0000 0.62570  0.75000  0.35610  Biso   1.000  N
  N12      1.0000 0.87430  0.25000  0.85610  Biso   1.000  N
  C49      1.0000 0.42120  0.28300  0.34420  Biso   1.000  C
  C50      1.0000 0.07880  0.71700  0.84420  Biso   1.000  C
  C51      1.0000 0.57880  0.78300  0.65580  Biso   1.000  C
  C52      1.0000 0.92120  0.21700  0.15580  Biso   1.000  C
  C53      1.0000 0.57880  0.71700  0.65580  Biso   1.000  C
  C54      1.0000 0.92120  0.28300  0.15580  Biso   1.000  C
  C55      1.0000 0.42120  0.21700  0.34420  Biso   1.000  C
  C56      1.0000 0.07880  0.78300  0.84420  Biso   1.000  C
  C57      1.0000 0.58540  0.21720  0.37320  Biso   1.000  C
  C58      1.0000 0.91460  0.78280  0.87320  Biso   1.000  C
  C59      1.0000 0.41460  0.71720  0.62680  Biso   1.000  C
  C60      1.0000 0.08540  0.28280  0.12680  Biso   1.000  C
  C61      1.0000 0.41460  0.78280  0.62680  Biso   1.000  C
  C62      1.0000 0.08540  0.21720  0.12680  Biso   1.000  C
  C63      1.0000 0.58540  0.28280  0.37320  Biso   1.000  C
  C64      1.0000 0.91460  0.71720  0.87320  Biso   1.000  C
  C65      1.0000 0.11850  0.29637  0.48590  Biso   1.000  C
  C66      1.0000 0.38150  0.70363  0.98590  Biso   1.000  C
  C67      1.0000 0.88150  0.79637  0.51410  Biso   1.000  C
  C68      1.0000 0.61850  0.20363  0.01410  Biso   1.000  C
  C69      1.0000 0.88150  0.70363  0.51410  Biso   1.000  C
  C70      1.0000 0.61850  0.29637  0.01410  Biso   1.000  C
  C71      1.0000 0.11850  0.20363  0.48590  Biso   1.000  C
  C72      1.0000 0.38150  0.79637  0.98590  Biso   1.000  C
  C73      1.0000 0.28700  0.28810  0.67070  Biso   1.000  C
  C74      1.0000 0.21300  0.71190  0.17070  Biso   1.000  C
  C75      1.0000 0.71300  0.78810  0.32930  Biso   1.000  C
  C76      1.0000 0.78700  0.21190  0.82930  Biso   1.000  C
  C77      1.0000 0.71300  0.71190  0.32930  Biso   1.000  C
  C78      1.0000 0.78700  0.28810  0.82930  Biso   1.000  C
  C79      1.0000 0.28700  0.21190  0.67070  Biso   1.000  C
  C80      1.0000 0.21300  0.78810  0.17070  Biso   1.000  C
  C81      1.0000 0.42750  0.21460  0.69850  Biso   1.000  C
  C82      1.0000 0.07250  0.78540  0.19850  Biso   1.000  C
  C83      1.0000 0.57250  0.71460  0.30150  Biso   1.000  C
  C84      1.0000 0.92750  0.28540  0.80150  Biso   1.000  C
  C85      1.0000 0.57250  0.78540  0.30150  Biso   1.000  C
  C86      1.0000 0.92750  0.21460  0.80150  Biso   1.000  C
  C87      1.0000 0.42750  0.28540  0.69850  Biso   1.000  C
  C88      1.0000 0.07250  0.71460  0.19850  Biso   1.000  C
  H25      1.0000 0.34780  0.30440  0.36150  Biso   1.000  H
  H26      1.0000 0.15220  0.69560  0.86150  Biso   1.000  H
  H27      1.0000 0.65220  0.80440  0.63850  Biso   1.000  H
  H28      1.0000 0.84780  0.19560  0.13850  Biso   1.000  H
  H29      1.0000 0.65220  0.69560  0.63850  Biso   1.000  H
  H30      1.0000 0.84780  0.30440  0.13850  Biso   1.000  H
  H31      1.0000 0.34780  0.19560  0.36150  Biso   1.000  H
  H32      1.0000 0.15220  0.80440  0.86150  Biso   1.000  H
  C89      1.0000 0.45980  0.28340  0.26010  Biso   1.000  C
  C90      1.0000 0.04020  0.71660  0.76010  Biso   1.000  C
  C91      1.0000 0.54020  0.78340  0.73990  Biso   1.000  C
  C92      1.0000 0.95980  0.21660  0.23990  Biso   1.000  C
  C93      1.0000 0.54020  0.71660  0.73990  Biso   1.000  C
  C94      1.0000 0.95980  0.28340  0.23990  Biso   1.000  C
  C95      1.0000 0.45980  0.21660  0.26010  Biso   1.000  C
  C96      1.0000 0.04020  0.78340  0.76010  Biso   1.000  C
  H33      1.0000 0.62880  0.19580  0.41370  Biso   1.000  H
  H34      1.0000 0.87120  0.80420  0.91370  Biso   1.000  H
  H35      1.0000 0.37120  0.69580  0.58630  Biso   1.000  H
  H36      1.0000 0.12880  0.30420  0.08630  Biso   1.000  H
  H37      1.0000 0.37120  0.80420  0.58630  Biso   1.000  H
  H38      1.0000 0.12880  0.19580  0.08630  Biso   1.000  H
  H39      1.0000 0.62880  0.30420  0.41370  Biso   1.000  H
  H40      1.0000 0.87120  0.69580  0.91370  Biso   1.000  H
  C97      1.0000 0.62580  0.21690  0.28950  Biso   1.000  C
  C98      1.0000 0.87420  0.78310  0.78950  Biso   1.000  C
  C99      1.0000 0.37420  0.71690  0.71050  Biso   1.000  C
  C100     1.0000 0.12580  0.28310  0.21050  Biso   1.000  C
  C101     1.0000 0.37420  0.78310  0.71050  Biso   1.000  C
  C102     1.0000 0.12580  0.21690  0.21050  Biso   1.000  C
  C103     1.0000 0.62580  0.28310  0.28950  Biso   1.000  C
  C104     1.0000 0.87420  0.71690  0.78950  Biso   1.000  C
  H41      1.0000 0.16760  0.32810  0.48870  Biso   1.000  H
  H42      1.0000 0.33240  0.67190  0.98870  Biso   1.000  H
  H43      1.0000 0.83240  0.82810  0.51130  Biso   1.000  H
  H44      1.0000 0.66760  0.17190  0.01130  Biso   1.000  H
  H45      1.0000 0.83240  0.67190  0.51130  Biso   1.000  H
  H46      1.0000 0.66760  0.32810  0.01130  Biso   1.000  H
  H47      1.0000 0.16760  0.17190  0.48870  Biso   1.000  H
  H48      1.0000 0.33240  0.82810  0.98870  Biso   1.000  H
  C105     1.0000 0.97710  0.29689  0.48320  Biso   1.000  C
  C106     1.0000 0.52290  0.70311  0.98320  Biso   1.000  C
  C107     1.0000 0.02290  0.79689  0.51680  Biso   1.000  C
  C108     1.0000 0.47710  0.20311  0.01680  Biso   1.000  C
  C109     1.0000 0.02290  0.70311  0.51680  Biso   1.000  C
  C110     1.0000 0.47710  0.29689  0.01680  Biso   1.000  C
  C111     1.0000 0.97710  0.20311  0.48320  Biso   1.000  C
  C112     1.0000 0.52290  0.79689  0.98320  Biso   1.000  C
  C113     1.0000 0.24050  0.28780  0.75310  Biso   1.000  C
  C114     1.0000 0.25950  0.71220  0.25310  Biso   1.000  C
  C115     1.0000 0.75950  0.78780  0.24690  Biso   1.000  C
  C116     1.0000 0.74050  0.21220  0.74690  Biso   1.000  C
  C117     1.0000 0.75950  0.71220  0.24690  Biso   1.000  C
  C118     1.0000 0.74050  0.28780  0.74690  Biso   1.000  C
  C119     1.0000 0.24050  0.21220  0.75310  Biso   1.000  C
  C120     1.0000 0.25950  0.78780  0.25310  Biso   1.000  C
  H49      1.0000 0.25010  0.31310  0.63330  Biso   1.000  H
  H50      1.0000 0.24990  0.68690  0.13330  Biso   1.000  H
  H51      1.0000 0.74990  0.81310  0.36670  Biso   1.000  H
  H52      1.0000 0.75010  0.18690  0.86670  Biso   1.000  H
  H53      1.0000 0.74990  0.68690  0.36670  Biso   1.000  H
  H54      1.0000 0.75010  0.31310  0.86670  Biso   1.000  H
  H55      1.0000 0.25010  0.18690  0.63330  Biso   1.000  H
  H56      1.0000 0.24990  0.81310  0.13330  Biso   1.000  H
  C121     1.0000 0.38370  0.21380  0.78160  Biso   1.000  C
  C122     1.0000 0.11630  0.78620  0.28160  Biso   1.000  C
  C123     1.0000 0.61630  0.71380  0.21840  Biso   1.000  C
  C124     1.0000 0.88370  0.28620  0.71840  Biso   1.000  C
  C125     1.0000 0.61630  0.78620  0.21840  Biso   1.000  C
  C126     1.0000 0.88370  0.21380  0.71840  Biso   1.000  C
  C127     1.0000 0.38370  0.28620  0.78160  Biso   1.000  C
  C128     1.0000 0.11630  0.71380  0.28160  Biso   1.000  C
  H57      1.0000 0.48960  0.18960  0.67730  Biso   1.000  H
  H58      1.0000 0.01040  0.81040  0.17730  Biso   1.000  H
  H59      1.0000 0.51040  0.68960  0.32270  Biso   1.000  H
  H60      1.0000 0.98960  0.31040  0.82270  Biso   1.000  H
  H61      1.0000 0.51040  0.81040  0.32270  Biso   1.000  H
  H62      1.0000 0.98960  0.18960  0.82270  Biso   1.000  H
  H63      1.0000 0.48960  0.31040  0.67730  Biso   1.000  H
  H64      1.0000 0.01040  0.68960  0.17730  Biso   1.000  H
  C129     1.0000 0.56300  0.25000  0.23260  Biso   1.000  C
  C130     1.0000 0.93700  0.75000  0.73260  Biso   1.000  C
  C131     1.0000 0.43700  0.75000  0.76740  Biso   1.000  C
  C132     1.0000 0.06300  0.25000  0.26740  Biso   1.000  C
  H65      1.0000 0.41540  0.30500  0.22040  Biso   1.000  H
  H66      1.0000 0.08460  0.69500  0.72040  Biso   1.000  H
  H67      1.0000 0.58460  0.80500  0.77960  Biso   1.000  H
  H68      1.0000 0.91540  0.19500  0.27960  Biso   1.000  H
  H69      1.0000 0.58460  0.69500  0.77960  Biso   1.000  H
  H70      1.0000 0.91540  0.30500  0.27960  Biso   1.000  H
  H71      1.0000 0.41540  0.19500  0.22040  Biso   1.000  H
  H72      1.0000 0.08460  0.80500  0.72040  Biso   1.000  H
  H73      1.0000 0.69930  0.19530  0.27320  Biso   1.000  H
  H74      1.0000 0.80070  0.80470  0.77320  Biso   1.000  H
  H75      1.0000 0.30070  0.69530  0.72680  Biso   1.000  H
  H76      1.0000 0.19930  0.30470  0.22680  Biso   1.000  H
  H77      1.0000 0.30070  0.80470  0.72680  Biso   1.000  H
  H78      1.0000 0.19930  0.19530  0.22680  Biso   1.000  H
  H79      1.0000 0.69930  0.30470  0.27320  Biso   1.000  H
  H80      1.0000 0.80070  0.69530  0.77320  Biso   1.000  H
  H81      1.0000 0.93030  0.32900  0.47740  Biso   1.000  H
  H82      1.0000 0.56970  0.67100  0.97740  Biso   1.000  H
  H83      1.0000 0.06970  0.82900  0.52260  Biso   1.000  H
  H84      1.0000 0.43030  0.17100  0.02260  Biso   1.000  H
  H85      1.0000 0.06970  0.67100  0.52260  Biso   1.000  H
  H86      1.0000 0.43030  0.32900  0.02260  Biso   1.000  H
  H87      1.0000 0.93030  0.17100  0.47740  Biso   1.000  H
  H88      1.0000 0.56970  0.82900  0.97740  Biso   1.000  H
  C133     1.0000 0.90550  0.25000  0.48180  Biso   1.000  C
  C134     1.0000 0.59450  0.75000  0.98180  Biso   1.000  C
  C135     1.0000 0.09450  0.75000  0.51820  Biso   1.000  C
  C136     1.0000 0.40550  0.25000  0.01820  Biso   1.000  C
  H89      1.0000 0.17830  0.31300  0.77330  Biso   1.000  H
  H90      1.0000 0.32170  0.68700  0.27330  Biso   1.000  H
  H91      1.0000 0.82170  0.81300  0.22670  Biso   1.000  H
  H92      1.0000 0.67830  0.18700  0.72670  Biso   1.000  H
  H93      1.0000 0.82170  0.68700  0.22670  Biso   1.000  H
  H94      1.0000 0.67830  0.31300  0.72670  Biso   1.000  H
  H95      1.0000 0.17830  0.18700  0.77330  Biso   1.000  H
  H96      1.0000 0.32170  0.81300  0.27330  Biso   1.000  H
  C137     1.0000 0.28790  0.25000  0.80900  Biso   1.000  C
  C138     1.0000 0.21210  0.75000  0.30900  Biso   1.000  C
  C139     1.0000 0.71210  0.75000  0.19100  Biso   1.000  C
  C140     1.0000 0.78790  0.25000  0.69100  Biso   1.000  C
  H97      1.0000 0.42150  0.18860  0.81820  Biso   1.000  H
  H98      1.0000 0.07850  0.81140  0.31820  Biso   1.000  H
  H99      1.0000 0.57850  0.68860  0.18180  Biso   1.000  H
  H100     1.0000 0.92150  0.31140  0.68180  Biso   1.000  H
  H101     1.0000 0.57850  0.81140  0.18180  Biso   1.000  H
  H102     1.0000 0.92150  0.18860  0.68180  Biso   1.000  H
  H103     1.0000 0.42150  0.31140  0.81820  Biso   1.000  H
  H104     1.0000 0.07850  0.68860  0.31820  Biso   1.000  H
  H105     1.0000 0.59240  0.25000  0.17590  Biso   1.000  H
  H106     1.0000 0.90760  0.75000  0.67590  Biso   1.000  H
  H107     1.0000 0.40760  0.75000  0.82410  Biso   1.000  H
  H108     1.0000 0.09240  0.25000  0.32410  Biso   1.000  H
  H109     1.0000 0.80960  0.25000  0.47630  Biso   1.000  H
  H110     1.0000 0.69040  0.75000  0.97630  Biso   1.000  H
  H111     1.0000 0.19040  0.75000  0.52370  Biso   1.000  H
  H112     1.0000 0.30960  0.25000  0.02370  Biso   1.000  H
  H113     1.0000 0.26320  0.25000  0.86650  Biso   1.000  H
  H114     1.0000 0.23680  0.75000  0.36650  Biso   1.000  H
  H115     1.0000 0.73680  0.75000  0.13350  Biso   1.000  H
  H116     1.0000 0.76320  0.25000  0.63350  Biso   1.000  H
  N13      1.0000 0.79500  0.89870  0.66360  Biso   1.000  N
  N14      1.0000 0.70500  0.10130  0.16360  Biso   1.000  N
  N15      1.0000 0.20500  0.39870  0.33640  Biso   1.000  N
  N16      1.0000 0.29500  0.60130  0.83640  Biso   1.000  N
  N17      1.0000 0.20500  0.10130  0.33640  Biso   1.000  N
  N18      1.0000 0.29500  0.89870  0.83640  Biso   1.000  N
  N19      1.0000 0.79500  0.60130  0.66360  Biso   1.000  N
  N20      1.0000 0.70500  0.39870  0.16360  Biso   1.000  N
  C141     1.0000 0.87500  0.92410  0.71980  Biso   1.000  C
  C142     1.0000 0.62500  0.07590  0.21980  Biso   1.000  C
  C143     1.0000 0.12500  0.42410  0.28020  Biso   1.000  C
  C144     1.0000 0.37500  0.57590  0.78020  Biso   1.000  C
  C145     1.0000 0.12500  0.07590  0.28020  Biso   1.000  C
  C146     1.0000 0.37500  0.92410  0.78020  Biso   1.000  C
  C147     1.0000 0.87500  0.57590  0.71980  Biso   1.000  C
  C148     1.0000 0.62500  0.42410  0.21980  Biso   1.000  C
  H117     1.0000 0.95090  0.94370  0.70110  Biso   1.000  H
  H118     1.0000 0.54910  0.05630  0.20110  Biso   1.000  H
  H119     1.0000 0.04910  0.44370  0.29890  Biso   1.000  H
  H120     1.0000 0.45090  0.55630  0.79890  Biso   1.000  H
  H121     1.0000 0.04910  0.05630  0.29890  Biso   1.000  H
  H122     1.0000 0.45090  0.94370  0.79890  Biso   1.000  H
  H123     1.0000 0.95090  0.55630  0.70110  Biso   1.000  H
  H124     1.0000 0.54910  0.44370  0.20110  Biso   1.000  H
  C149     1.0000 0.84500  0.92130  0.80520  Biso   1.000  C
  C150     1.0000 0.65500  0.07870  0.30520  Biso   1.000  C
  C151     1.0000 0.15500  0.42130  0.19480  Biso   1.000  C
  C152     1.0000 0.34500  0.57870  0.69480  Biso   1.000  C
  C153     1.0000 0.15500  0.07870  0.19480  Biso   1.000  C
  C154     1.0000 0.34500  0.92130  0.69480  Biso   1.000  C
  C155     1.0000 0.84500  0.57870  0.80520  Biso   1.000  C
  C156     1.0000 0.65500  0.42130  0.30520  Biso   1.000  C
  H125     1.0000 0.89920  0.93920  0.84480  Biso   1.000  H
  H126     1.0000 0.60080  0.06080  0.34480  Biso   1.000  H
  H127     1.0000 0.10080  0.43920  0.15520  Biso   1.000  H
  H128     1.0000 0.39920  0.56080  0.65520  Biso   1.000  H
  H129     1.0000 0.10080  0.06080  0.15520  Biso   1.000  H
  H130     1.0000 0.39920  0.93920  0.65520  Biso   1.000  H
  H131     1.0000 0.89920  0.56080  0.84480  Biso   1.000  H
  H132     1.0000 0.60080  0.43920  0.34480  Biso   1.000  H
  C157     1.0000 0.73400  0.89180  0.83190  Biso   1.000  C
  C158     1.0000 0.76600  0.10820  0.33190  Biso   1.000  C
  C159     1.0000 0.26600  0.39180  0.16810  Biso   1.000  C
  C160     1.0000 0.23400  0.60820  0.66810  Biso   1.000  C
  C161     1.0000 0.26600  0.10820  0.16810  Biso   1.000  C
  C162     1.0000 0.23400  0.89180  0.66810  Biso   1.000  C
  C163     1.0000 0.73400  0.60820  0.83190  Biso   1.000  C
  C164     1.0000 0.76600  0.39180  0.33190  Biso   1.000  C
  H133     1.0000 0.71110  0.89030  0.88960  Biso   1.000  H
  H134     1.0000 0.78890  0.10970  0.38960  Biso   1.000  H
  H135     1.0000 0.28890  0.39030  0.11040  Biso   1.000  H
  H136     1.0000 0.21110  0.60970  0.61040  Biso   1.000  H
  H137     1.0000 0.28890  0.10970  0.11040  Biso   1.000  H
  H138     1.0000 0.21110  0.89030  0.61040  Biso   1.000  H
  H139     1.0000 0.71110  0.60970  0.88960  Biso   1.000  H
  H140     1.0000 0.78890  0.39030  0.38960  Biso   1.000  H
  C165     1.0000 0.65600  0.86470  0.77300  Biso   1.000  C
  C166     1.0000 0.84400  0.13530  0.27300  Biso   1.000  C
  C167     1.0000 0.34400  0.36470  0.22700  Biso   1.000  C
  C168     1.0000 0.15600  0.63530  0.72700  Biso   1.000  C
  C169     1.0000 0.34400  0.13530  0.22700  Biso   1.000  C
  C170     1.0000 0.15600  0.86470  0.72700  Biso   1.000  C
  C171     1.0000 0.65600  0.63530  0.77300  Biso   1.000  C
  C172     1.0000 0.84400  0.36470  0.27300  Biso   1.000  C
  H141     1.0000 0.58450  0.84270  0.79080  Biso   1.000  H
  H142     1.0000 0.91550  0.15730  0.29080  Biso   1.000  H
  H143     1.0000 0.41550  0.34270  0.20920  Biso   1.000  H
  H144     1.0000 0.08450  0.65730  0.70920  Biso   1.000  H
  H145     1.0000 0.41550  0.15730  0.20920  Biso   1.000  H
  H146     1.0000 0.08450  0.84270  0.70920  Biso   1.000  H
  H147     1.0000 0.58450  0.65730  0.79080  Biso   1.000  H
  H148     1.0000 0.91550  0.34270  0.29080  Biso   1.000  H
  C173     1.0000 0.68500  0.87030  0.68780  Biso   1.000  C
  C174     1.0000 0.81500  0.12970  0.18780  Biso   1.000  C
  C175     1.0000 0.31500  0.37030  0.31220  Biso   1.000  C
  C176     1.0000 0.18500  0.62970  0.81220  Biso   1.000  C
  C177     1.0000 0.31500  0.12970  0.31220  Biso   1.000  C
  C178     1.0000 0.18500  0.87030  0.81220  Biso   1.000  C
  C179     1.0000 0.68500  0.62970  0.68780  Biso   1.000  C
  C180     1.0000 0.81500  0.37030  0.18780  Biso   1.000  C
  H149     1.0000 0.62840  0.85450  0.64700  Biso   1.000  H
  H150     1.0000 0.87160  0.14550  0.14700  Biso   1.000  H
  H151     1.0000 0.37160  0.35450  0.35300  Biso   1.000  H
  H152     1.0000 0.12840  0.64550  0.85300  Biso   1.000  H
  H153     1.0000 0.37160  0.14550  0.35300  Biso   1.000  H
  H154     1.0000 0.12840  0.85450  0.85300  Biso   1.000  H
  H155     1.0000 0.62840  0.64550  0.64700  Biso   1.000  H
  H156     1.0000 0.87160  0.35450  0.14700  Biso   1.000  H
  N21      1.0000 0.37000  0.60130  0.23930  Biso   1.000  N
  N22      1.0000 0.13000  0.39870  0.73930  Biso   1.000  N
  N23      1.0000 0.63000  0.10130  0.76070  Biso   1.000  N
  N24      1.0000 0.87000  0.89870  0.26070  Biso   1.000  N
  N25      1.0000 0.63000  0.39870  0.76070  Biso   1.000  N
  N26      1.0000 0.87000  0.60130  0.26070  Biso   1.000  N
  N27      1.0000 0.37000  0.89870  0.23930  Biso   1.000  N
  N28      1.0000 0.13000  0.10130  0.73930  Biso   1.000  N
  C181     1.0000 0.31760  0.60850  0.16120  Biso   1.000  C
  C182     1.0000 0.18240  0.39150  0.66120  Biso   1.000  C
  C183     1.0000 0.68240  0.10850  0.83880  Biso   1.000  C
  C184     1.0000 0.81760  0.89150  0.33880  Biso   1.000  C
  C185     1.0000 0.68240  0.39150  0.83880  Biso   1.000  C
  C186     1.0000 0.81760  0.60850  0.33880  Biso   1.000  C
  C187     1.0000 0.31760  0.89150  0.16120  Biso   1.000  C
  C188     1.0000 0.18240  0.10850  0.66120  Biso   1.000  C
  H157     1.0000 0.23990  0.62970  0.15250  Biso   1.000  H
  H158     1.0000 0.26010  0.37030  0.65250  Biso   1.000  H
  H159     1.0000 0.76010  0.12970  0.84750  Biso   1.000  H
  H160     1.0000 0.73990  0.87030  0.34750  Biso   1.000  H
  H161     1.0000 0.76010  0.37030  0.84750  Biso   1.000  H
  H162     1.0000 0.73990  0.62970  0.34750  Biso   1.000  H
  H163     1.0000 0.23990  0.87030  0.15250  Biso   1.000  H
  H164     1.0000 0.26010  0.12970  0.65250  Biso   1.000  H
  C189     1.0000 0.38050  0.58520  0.09240  Biso   1.000  C
  C190     1.0000 0.11950  0.41480  0.59240  Biso   1.000  C
  C191     1.0000 0.61950  0.08520  0.90760  Biso   1.000  C
  C192     1.0000 0.88050  0.91480  0.40760  Biso   1.000  C
  C193     1.0000 0.61950  0.41480  0.90760  Biso   1.000  C
  C194     1.0000 0.88050  0.58520  0.40760  Biso   1.000  C
  C195     1.0000 0.38050  0.91480  0.09240  Biso   1.000  C
  C196     1.0000 0.11950  0.08520  0.59240  Biso   1.000  C
  H165     1.0000 0.34610  0.58980  0.03730  Biso   1.000  H
  H166     1.0000 0.15390  0.41020  0.53730  Biso   1.000  H
  H167     1.0000 0.65390  0.08980  0.96270  Biso   1.000  H
  H168     1.0000 0.84610  0.91020  0.46270  Biso   1.000  H
  H169     1.0000 0.65390  0.41020  0.96270  Biso   1.000  H
  H170     1.0000 0.84610  0.58980  0.46270  Biso   1.000  H
  H171     1.0000 0.34610  0.91020  0.03730  Biso   1.000  H
  H172     1.0000 0.15390  0.08980  0.53730  Biso   1.000  H
  C197     1.0000 0.49250  0.55300  0.10480  Biso   1.000  C
  C198     1.0000 0.00750  0.44700  0.60480  Biso   1.000  C
  C199     1.0000 0.50750  0.05300  0.89520  Biso   1.000  C
  C200     1.0000 0.99250  0.94700  0.39520  Biso   1.000  C
  C201     1.0000 0.50750  0.44700  0.89520  Biso   1.000  C
  C202     1.0000 0.99250  0.55300  0.39520  Biso   1.000  C
  C203     1.0000 0.49250  0.94700  0.10480  Biso   1.000  C
  C204     1.0000 0.00750  0.05300  0.60480  Biso   1.000  C
  H173     1.0000 0.53610  0.53630  0.05910  Biso   1.000  H
  H174     1.0000 0.96390  0.46370  0.55910  Biso   1.000  H
  H175     1.0000 0.46390  0.03630  0.94090  Biso   1.000  H
  H176     1.0000 0.03610  0.96370  0.44090  Biso   1.000  H
  H177     1.0000 0.46390  0.46370  0.94090  Biso   1.000  H
  H178     1.0000 0.03610  0.53630  0.44090  Biso   1.000  H
  H179     1.0000 0.53610  0.96370  0.05910  Biso   1.000  H
  H180     1.0000 0.96390  0.03630  0.55910  Biso   1.000  H
  C205     1.0000 0.54540  0.54690  0.18540  Biso   1.000  C
  C206     1.0000 0.95460  0.45310  0.68540  Biso   1.000  C
  C207     1.0000 0.45460  0.04690  0.81460  Biso   1.000  C
  C208     1.0000 0.04540  0.95310  0.31460  Biso   1.000  C
  C209     1.0000 0.45460  0.45310  0.81460  Biso   1.000  C
  C210     1.0000 0.04540  0.54690  0.31460  Biso   1.000  C
  C211     1.0000 0.54540  0.95310  0.18540  Biso   1.000  C
  C212     1.0000 0.95460  0.04690  0.68540  Biso   1.000  C
  H181     1.0000 0.62290  0.52590  0.19540  Biso   1.000  H
  H182     1.0000 0.87710  0.47410  0.69540  Biso   1.000  H
  H183     1.0000 0.37710  0.02590  0.80460  Biso   1.000  H
  H184     1.0000 0.12290  0.97410  0.30460  Biso   1.000  H
  H185     1.0000 0.37710  0.47410  0.80460  Biso   1.000  H
  H186     1.0000 0.12290  0.52590  0.30460  Biso   1.000  H
  H187     1.0000 0.62290  0.97410  0.19540  Biso   1.000  H
  H188     1.0000 0.87710  0.02590  0.69540  Biso   1.000  H
  C213     1.0000 0.47920  0.57000  0.25320  Biso   1.000  C
  C214     1.0000 0.02080  0.43000  0.75320  Biso   1.000  C
  C215     1.0000 0.52080  0.07000  0.74680  Biso   1.000  C
  C216     1.0000 0.97920  0.93000  0.24680  Biso   1.000  C
  C217     1.0000 0.52080  0.43000  0.74680  Biso   1.000  C
  C218     1.0000 0.97920  0.57000  0.24680  Biso   1.000  C
  C219     1.0000 0.47920  0.93000  0.25320  Biso   1.000  C
  C220     1.0000 0.02080  0.07000  0.75320  Biso   1.000  C
  H189     1.0000 0.51210  0.56590  0.30870  Biso   1.000  H
  H190     1.0000 0.98790  0.43410  0.80870  Biso   1.000  H
  H191     1.0000 0.48790  0.06590  0.69130  Biso   1.000  H
  H192     1.0000 0.01210  0.93410  0.19130  Biso   1.000  H
  H193     1.0000 0.48790  0.43410  0.69130  Biso   1.000  H
  H194     1.0000 0.01210  0.56590  0.19130  Biso   1.000  H
  H195     1.0000 0.51210  0.93410  0.30870  Biso   1.000  H
  H196     1.0000 0.98790  0.06590  0.80870  Biso   1.000  H
  N29      1.0000 0.50900  0.61210  0.15560  Biso   1.000  N
  N30      1.0000 0.99100  0.38790  0.65560  Biso   1.000  N
  N31      1.0000 0.49100  0.11210  0.84440  Biso   1.000  N
  N32      1.0000 0.00900  0.88790  0.34440  Biso   1.000  N
  N33      1.0000 0.49100  0.38790  0.84440  Biso   1.000  N
  N34      1.0000 0.00900  0.61210  0.34440  Biso   1.000  N
  N35      1.0000 0.50900  0.88790  0.15560  Biso   1.000  N
  N36      1.0000 0.99100  0.11210  0.65560  Biso   1.000  N
  C221     1.0000 0.41600  0.58440  0.11050  Biso   1.000  C
  C222     1.0000 0.08400  0.41560  0.61050  Biso   1.000  C
  C223     1.0000 0.58400  0.08440  0.88950  Biso   1.000  C
  C224     1.0000 0.91600  0.91560  0.38950  Biso   1.000  C
  C225     1.0000 0.58400  0.41560  0.88950  Biso   1.000  C
  C226     1.0000 0.91600  0.58440  0.38950  Biso   1.000  C
  C227     1.0000 0.41600  0.91560  0.11050  Biso   1.000  C
  C228     1.0000 0.08400  0.08440  0.61050  Biso   1.000  C
  H197     1.0000 0.39880  0.59430  0.05420  Biso   1.000  H
  H198     1.0000 0.10120  0.40570  0.55420  Biso   1.000  H
  H199     1.0000 0.60120  0.09430  0.94580  Biso   1.000  H
  H200     1.0000 0.89880  0.90570  0.44580  Biso   1.000  H
  H201     1.0000 0.60120  0.40570  0.94580  Biso   1.000  H
  H202     1.0000 0.89880  0.59430  0.44580  Biso   1.000  H
  H203     1.0000 0.39880  0.90570  0.05420  Biso   1.000  H
  H204     1.0000 0.10120  0.09430  0.55420  Biso   1.000  H
  C229     1.0000 0.34700  0.54320  0.14860  Biso   1.000  C
  C230     1.0000 0.15300  0.45680  0.64860  Biso   1.000  C
  C231     1.0000 0.65300  0.04320  0.85140  Biso   1.000  C
  C232     1.0000 0.84700  0.95680  0.35140  Biso   1.000  C
  C233     1.0000 0.65300  0.45680  0.85140  Biso   1.000  C
  C234     1.0000 0.84700  0.54320  0.35140  Biso   1.000  C
  C235     1.0000 0.34700  0.95680  0.14860  Biso   1.000  C
  C236     1.0000 0.15300  0.04320  0.64860  Biso   1.000  C
  H205     1.0000 0.28400  0.52320  0.11740  Biso   1.000  H
  H206     1.0000 0.21600  0.47680  0.61740  Biso   1.000  H
  H207     1.0000 0.71600  0.02320  0.88260  Biso   1.000  H
  H208     1.0000 0.78400  0.97680  0.38260  Biso   1.000  H
  H209     1.0000 0.71600  0.47680  0.88260  Biso   1.000  H
  H210     1.0000 0.78400  0.52320  0.38260  Biso   1.000  H
  H211     1.0000 0.28400  0.97680  0.11740  Biso   1.000  H
  H212     1.0000 0.21600  0.02320  0.61740  Biso   1.000  H
  C237     1.0000 0.37700  0.52980  0.23130  Biso   1.000  C
  C238     1.0000 0.12300  0.47020  0.73130  Biso   1.000  C
  C239     1.0000 0.62300  0.02980  0.76870  Biso   1.000  C
  C240     1.0000 0.87700  0.97020  0.26870  Biso   1.000  C
  C241     1.0000 0.62300  0.47020  0.76870  Biso   1.000  C
  C242     1.0000 0.87700  0.52980  0.26870  Biso   1.000  C
  C243     1.0000 0.37700  0.97020  0.23130  Biso   1.000  C
  C244     1.0000 0.12300  0.02980  0.73130  Biso   1.000  C
  H213     1.0000 0.33340  0.50090  0.25670  Biso   1.000  H
  H214     1.0000 0.16660  0.49910  0.75670  Biso   1.000  H
  H215     1.0000 0.66660  0.00090  0.74330  Biso   1.000  H
  H216     1.0000 0.83340  0.99910  0.24330  Biso   1.000  H
  H217     1.0000 0.66660  0.49910  0.74330  Biso   1.000  H
  H218     1.0000 0.83340  0.50090  0.24330  Biso   1.000  H
  H219     1.0000 0.33340  0.99910  0.25670  Biso   1.000  H
  H220     1.0000 0.16660  0.00090  0.75670  Biso   1.000  H
  C245     1.0000 0.47800  0.55720  0.27440  Biso   1.000  C
  C246     1.0000 0.02200  0.44280  0.77440  Biso   1.000  C
  C247     1.0000 0.52200  0.05720  0.72560  Biso   1.000  C
  C248     1.0000 0.97800  0.94280  0.22560  Biso   1.000  C
  C249     1.0000 0.52200  0.44280  0.72560  Biso   1.000  C
  C250     1.0000 0.97800  0.55720  0.22560  Biso   1.000  C
  C251     1.0000 0.47800  0.94280  0.27440  Biso   1.000  C
  C252     1.0000 0.02200  0.05720  0.77440  Biso   1.000  C
  H221     1.0000 0.49800  0.54870  0.33090  Biso   1.000  H
  H222     1.0000 0.00200  0.45130  0.83090  Biso   1.000  H
  H223     1.0000 0.50200  0.04870  0.66910  Biso   1.000  H
  H224     1.0000 0.99800  0.95130  0.16910  Biso   1.000  H
  H225     1.0000 0.50200  0.45130  0.66910  Biso   1.000  H
  H226     1.0000 0.99800  0.54870  0.16910  Biso   1.000  H
  H227     1.0000 0.49800  0.95130  0.33090  Biso   1.000  H
  H228     1.0000 0.00200  0.04870  0.83090  Biso   1.000  H
  C253     1.0000 0.53600  0.60120  0.23740  Biso   1.000  C
  C254     1.0000 0.96400  0.39880  0.73740  Biso   1.000  C
  C255     1.0000 0.46400  0.10120  0.76260  Biso   1.000  C
  C256     1.0000 0.03600  0.89880  0.26260  Biso   1.000  C
  C257     1.0000 0.46400  0.39880  0.76260  Biso   1.000  C
  C258     1.0000 0.03600  0.60120  0.26260  Biso   1.000  C
  C259     1.0000 0.53600  0.89880  0.23740  Biso   1.000  C
  C260     1.0000 0.96400  0.10120  0.73740  Biso   1.000  C
  H229     1.0000 0.59940  0.62140  0.26800  Biso   1.000  H
  H230     1.0000 0.90060  0.37860  0.76800  Biso   1.000  H
  H231     1.0000 0.40060  0.12140  0.73200  Biso   1.000  H
  H232     1.0000 0.09940  0.87860  0.23200  Biso   1.000  H
  H233     1.0000 0.40060  0.37860  0.73200  Biso   1.000  H
  H234     1.0000 0.09940  0.62140  0.23200  Biso   1.000  H
  H235     1.0000 0.59940  0.87860  0.26800  Biso   1.000  H
  H236     1.0000 0.90060  0.12140  0.76800  Biso   1.000  H
