data_image0
_cell_length_a       11.0696
_cell_length_b       6.9284
_cell_length_c       26.1233
_cell_angle_alpha    90
_cell_angle_beta     95.651
_cell_angle_gamma    90

_symmetry_space_group_name_H-M    "P 1"
_symmetry_int_tables_number       1

loop_
  _symmetry_equiv_pos_as_xyz
  'x, y, z'

loop_
  _atom_site_label
  _atom_site_occupancy
  _atom_site_fract_x
  _atom_site_fract_y
  _atom_site_fract_z
  _atom_site_thermal_displace_type
  _atom_site_B_iso_or_equiv
  _atom_site_type_symbol
  Ce1      1.0000 0.85469  0.85031  0.34733  Biso   1.000  Ce
  Ce2      1.0000 0.64531  0.35031  0.15267  Biso   1.000  Ce
  Ce3      1.0000 0.14531  0.14969  0.65267  Biso   1.000  Ce
  Ce4      1.0000 0.35469  0.64969  0.84733  Biso   1.000  Ce
  Cu1      1.0000 0.36634  0.08331  0.45218  Biso   1.000  Cu
  Cu2      1.0000 0.13366  0.58331  0.04782  Biso   1.000  Cu
  Cu3      1.0000 0.63366  0.91669  0.54782  Biso   1.000  Cu
  Cu4      1.0000 0.86634  0.41669  0.95218  Biso   1.000  Cu
  O1       1.0000 0.24365  0.23550  0.17154  Biso   1.000  O
  O2       1.0000 0.25635  0.73550  0.32846  Biso   1.000  O
  O3       1.0000 0.75635  0.76450  0.82846  Biso   1.000  O
  O4       1.0000 0.74365  0.26450  0.67154  Biso   1.000  O
  O5       1.0000 0.71030  0.87450  0.26856  Biso   1.000  O
  O6       1.0000 0.78970  0.37450  0.23144  Biso   1.000  O
  O7       1.0000 0.28970  0.12550  0.73144  Biso   1.000  O
  O8       1.0000 0.21030  0.62550  0.76856  Biso   1.000  O
  O9       1.0000 0.20400  0.92520  0.16364  Biso   1.000  O
  O10      1.0000 0.29600  0.42520  0.33636  Biso   1.000  O
  O11      1.0000 0.79600  0.07480  0.83636  Biso   1.000  O
  O12      1.0000 0.70400  0.57480  0.66364  Biso   1.000  O
  H1       1.0000 0.17200  0.82900  0.17580  Biso   1.000  H
  H2       1.0000 0.32800  0.32900  0.32420  Biso   1.000  H
  H3       1.0000 0.82800  0.17100  0.82420  Biso   1.000  H
  H4       1.0000 0.67200  0.67100  0.67580  Biso   1.000  H
  O13      1.0000 0.04160  0.65460  0.37329  Biso   1.000  O
  O14      1.0000 0.45840  0.15460  0.12671  Biso   1.000  O
  O15      1.0000 0.95840  0.34540  0.62671  Biso   1.000  O
  O16      1.0000 0.54160  0.84540  0.87329  Biso   1.000  O
  O17      1.0000 0.08974  0.67100  0.21232  Biso   1.000  O
  O18      1.0000 0.41026  0.17100  0.28768  Biso   1.000  O
  O19      1.0000 0.91026  0.32900  0.78768  Biso   1.000  O
  O20      1.0000 0.58974  0.82900  0.71232  Biso   1.000  O
  O21      1.0000 0.24130  0.08560  0.38078  Biso   1.000  O
  O22      1.0000 0.25870  0.58560  0.11922  Biso   1.000  O
  O23      1.0000 0.75870  0.91440  0.61922  Biso   1.000  O
  O24      1.0000 0.74130  0.41440  0.88078  Biso   1.000  O
  O25      1.0000 0.94630  0.68100  0.26727  Biso   1.000  O
  O26      1.0000 0.55370  0.18100  0.23273  Biso   1.000  O
  O27      1.0000 0.05370  0.31900  0.73273  Biso   1.000  O
  O28      1.0000 0.44630  0.81900  0.76727  Biso   1.000  O
  O29      1.0000 0.77618  0.51730  0.34242  Biso   1.000  O
  O30      1.0000 0.72382  0.01730  0.15758  Biso   1.000  O
  O31      1.0000 0.22382  0.48270  0.65758  Biso   1.000  O
  O32      1.0000 0.27618  0.98270  0.84242  Biso   1.000  O
  O33      1.0000 0.77820  0.19770  0.33453  Biso   1.000  O
  O34      1.0000 0.72180  0.69770  0.16547  Biso   1.000  O
  O35      1.0000 0.22180  0.80230  0.66547  Biso   1.000  O
  O36      1.0000 0.27820  0.30230  0.83453  Biso   1.000  O
  O37      1.0000 0.64229  0.88880  0.37716  Biso   1.000  O
  O38      1.0000 0.85771  0.38880  0.12284  Biso   1.000  O
  O39      1.0000 0.35771  0.11120  0.62284  Biso   1.000  O
  O40      1.0000 0.14229  0.61120  0.87716  Biso   1.000  O
  O41      1.0000 0.47759  0.90230  0.41952  Biso   1.000  O
  O42      1.0000 0.02241  0.40230  0.08048  Biso   1.000  O
  O43      1.0000 0.52241  0.09770  0.58048  Biso   1.000  O
  O44      1.0000 0.97759  0.59770  0.91952  Biso   1.000  O
  O45      1.0000 0.28796  0.25380  0.50030  Biso   1.000  O
  O46      1.0000 0.21204  0.75380  0.99970  Biso   1.000  O
  O47      1.0000 0.71204  0.74620  0.49970  Biso   1.000  O
  O48      1.0000 0.78796  0.24620  0.00030  Biso   1.000  O
  O49      1.0000 0.15459  0.25640  0.55914  Biso   1.000  O
  O50      1.0000 0.34541  0.75640  0.94086  Biso   1.000  O
  O51      1.0000 0.84541  0.74360  0.44086  Biso   1.000  O
  O52      1.0000 0.65459  0.24360  0.05914  Biso   1.000  O
  O53      1.0000 0.00788  0.93680  0.59729  Biso   1.000  O
  O54      1.0000 0.49212  0.43680  0.90271  Biso   1.000  O
  O55      1.0000 0.99212  0.06320  0.40271  Biso   1.000  O
  O56      1.0000 0.50788  0.56320  0.09729  Biso   1.000  O
  O57      1.0000 0.95828  0.65340  0.56068  Biso   1.000  O
  O58      1.0000 0.54172  0.15340  0.93932  Biso   1.000  O
  O59      1.0000 0.04172  0.34660  0.43932  Biso   1.000  O
  O60      1.0000 0.45828  0.84660  0.06068  Biso   1.000  O
  N1       1.0000 0.08990  0.27570  0.25008  Biso   1.000  N
  N2       1.0000 0.41010  0.77570  0.24992  Biso   1.000  N
  N3       1.0000 0.91010  0.72430  0.74992  Biso   1.000  N
  N4       1.0000 0.58990  0.22430  0.75008  Biso   1.000  N
  H5       1.0000 0.11760  0.38930  0.24170  Biso   1.000  H
  H6       1.0000 0.38240  0.88930  0.25830  Biso   1.000  H
  H7       1.0000 0.88240  0.61070  0.75830  Biso   1.000  H
  H8       1.0000 0.61760  0.11070  0.74170  Biso   1.000  H
  N5       1.0000 0.99280  0.05390  0.29063  Biso   1.000  N
  N6       1.0000 0.50720  0.55390  0.20937  Biso   1.000  N
  N7       1.0000 0.00720  0.94610  0.70937  Biso   1.000  N
  N8       1.0000 0.49280  0.44610  0.79063  Biso   1.000  N
  N9       1.0000 0.59010  0.50710  0.40345  Biso   1.000  N
  N10      1.0000 0.90990  0.00710  0.09655  Biso   1.000  N
  N11      1.0000 0.40990  0.49290  0.59655  Biso   1.000  N
  N12      1.0000 0.09010  0.99290  0.90345  Biso   1.000  N
  H9       1.0000 0.61580  0.62460  0.39780  Biso   1.000  H
  H10      1.0000 0.88420  0.12460  0.10220  Biso   1.000  H
  H11      1.0000 0.38420  0.37540  0.60220  Biso   1.000  H
  H12      1.0000 0.11580  0.87540  0.89780  Biso   1.000  H
  N13      1.0000 0.48410  0.27370  0.43244  Biso   1.000  N
  N14      1.0000 0.01590  0.77370  0.06756  Biso   1.000  N
  N15      1.0000 0.51590  0.72630  0.56756  Biso   1.000  N
  N16      1.0000 0.98410  0.22630  0.93244  Biso   1.000  N
  N17      1.0000 0.26780  0.88570  0.48142  Biso   1.000  N
  N18      1.0000 0.23220  0.38570  0.01858  Biso   1.000  N
  N19      1.0000 0.73220  0.11430  0.51858  Biso   1.000  N
  N20      1.0000 0.76780  0.61430  0.98142  Biso   1.000  N
  N21      1.0000 0.14500  0.65910  0.50366  Biso   1.000  N
  N22      1.0000 0.35500  0.15910  0.99634  Biso   1.000  N
  N23      1.0000 0.85500  0.34090  0.49634  Biso   1.000  N
  N24      1.0000 0.64500  0.84090  0.00366  Biso   1.000  N
  C1       1.0000 0.02190  0.23930  0.28877  Biso   1.000  C
  C2       1.0000 0.47810  0.73930  0.21123  Biso   1.000  C
  C3       1.0000 0.97810  0.76070  0.71123  Biso   1.000  C
  C4       1.0000 0.52190  0.26070  0.78877  Biso   1.000  C
  H13      1.0000 0.99100  0.34500  0.30920  Biso   1.000  H
  H14      1.0000 0.50900  0.84500  0.19080  Biso   1.000  H
  H15      1.0000 0.00900  0.65500  0.69080  Biso   1.000  H
  H16      1.0000 0.49100  0.15500  0.80920  Biso   1.000  H
  C5       1.0000 0.10840  0.10420  0.22595  Biso   1.000  C
  C6       1.0000 0.39160  0.60420  0.27405  Biso   1.000  C
  C7       1.0000 0.89160  0.89580  0.77405  Biso   1.000  C
  C8       1.0000 0.60840  0.39580  0.72595  Biso   1.000  C
  C9       1.0000 0.18890  0.09310  0.18488  Biso   1.000  C
  C10      1.0000 0.31110  0.59310  0.31512  Biso   1.000  C
  C11      1.0000 0.81110  0.90690  0.81512  Biso   1.000  C
  C12      1.0000 0.68890  0.40690  0.68488  Biso   1.000  C
  C13      1.0000 0.04580  0.96820  0.25155  Biso   1.000  C
  C14      1.0000 0.45420  0.46820  0.24845  Biso   1.000  C
  C15      1.0000 0.95420  0.03180  0.74845  Biso   1.000  C
  C16      1.0000 0.54580  0.53180  0.75155  Biso   1.000  C
  C17      1.0000 0.02650  0.75720  0.24294  Biso   1.000  C
  C18      1.0000 0.47350  0.25720  0.25706  Biso   1.000  C
  C19      1.0000 0.97350  0.24280  0.75706  Biso   1.000  C
  C20      1.0000 0.52650  0.74280  0.74294  Biso   1.000  C
  C21      1.0000 0.73830  0.35260  0.35163  Biso   1.000  C
  C22      1.0000 0.76170  0.85260  0.14837  Biso   1.000  C
  C23      1.0000 0.26170  0.64740  0.64837  Biso   1.000  C
  C24      1.0000 0.23830  0.14740  0.85163  Biso   1.000  C
  C25      1.0000 0.63590  0.34020  0.38465  Biso   1.000  C
  C26      1.0000 0.86410  0.84020  0.11535  Biso   1.000  C
  C27      1.0000 0.36410  0.65980  0.61535  Biso   1.000  C
  C28      1.0000 0.13590  0.15980  0.88465  Biso   1.000  C
  C29      1.0000 0.50050  0.46200  0.43168  Biso   1.000  C
  C30      1.0000 0.99950  0.96200  0.06832  Biso   1.000  C
  C31      1.0000 0.49950  0.53800  0.56832  Biso   1.000  C
  C32      1.0000 0.00050  0.03800  0.93168  Biso   1.000  C
  H17      1.0000 0.45600  0.55700  0.44840  Biso   1.000  H
  H18      1.0000 0.04400  0.05700  0.05160  Biso   1.000  H
  H19      1.0000 0.54400  0.44300  0.55160  Biso   1.000  H
  H20      1.0000 0.95600  0.94300  0.94840  Biso   1.000  H
  C33      1.0000 0.56830  0.19480  0.40299  Biso   1.000  C
  C34      1.0000 0.93170  0.69480  0.09701  Biso   1.000  C
  C35      1.0000 0.43170  0.80520  0.59701  Biso   1.000  C
  C36      1.0000 0.06830  0.30520  0.90299  Biso   1.000  C
  C37      1.0000 0.56350  0.98150  0.39865  Biso   1.000  C
  C38      1.0000 0.93650  0.48150  0.10135  Biso   1.000  C
  C39      1.0000 0.43650  0.01850  0.60135  Biso   1.000  C
  C40      1.0000 0.06350  0.51850  0.89865  Biso   1.000  C
  C41      1.0000 0.21220  0.17130  0.52676  Biso   1.000  C
  C42      1.0000 0.28780  0.67130  0.97324  Biso   1.000  C
  C43      1.0000 0.78780  0.82870  0.47324  Biso   1.000  C
  C44      1.0000 0.71220  0.32870  0.02676  Biso   1.000  C
  C45      1.0000 0.19560  0.96300  0.51649  Biso   1.000  C
  C46      1.0000 0.30440  0.46300  0.98351  Biso   1.000  C
  C47      1.0000 0.80440  0.03700  0.48351  Biso   1.000  C
  C48      1.0000 0.69560  0.53700  0.01649  Biso   1.000  C
  C49      1.0000 0.11910  0.82030  0.53055  Biso   1.000  C
  C50      1.0000 0.38090  0.32030  0.96945  Biso   1.000  C
  C51      1.0000 0.88090  0.17970  0.46945  Biso   1.000  C
  C52      1.0000 0.61910  0.67970  0.03055  Biso   1.000  C
  C53      1.0000 0.02130  0.80330  0.56581  Biso   1.000  C
  C54      1.0000 0.47870  0.30330  0.93419  Biso   1.000  C
  C55      1.0000 0.97870  0.19670  0.43419  Biso   1.000  C
  C56      1.0000 0.52130  0.69670  0.06581  Biso   1.000  C
  C57      1.0000 0.23420  0.70440  0.47435  Biso   1.000  C
  C58      1.0000 0.26580  0.20440  0.02565  Biso   1.000  C
  C59      1.0000 0.76580  0.29560  0.52565  Biso   1.000  C
  C60      1.0000 0.73420  0.79560  0.97435  Biso   1.000  C
  H21      1.0000 0.25900  0.61900  0.45060  Biso   1.000  H
  H22      1.0000 0.24100  0.11900  0.04940  Biso   1.000  H
  H23      1.0000 0.74100  0.38100  0.54940  Biso   1.000  H
  H24      1.0000 0.75900  0.88100  0.95060  Biso   1.000  H
  H25      1.0000 0.72000  0.82500  0.24700  Biso   1.000  H
  H26      1.0000 0.78000  0.32500  0.25300  Biso   1.000  H
  H27      1.0000 0.28000  0.17500  0.75300  Biso   1.000  H
  H28      1.0000 0.22000  0.67500  0.74700  Biso   1.000  H
  H29      1.0000 0.25300  0.99200  0.36510  Biso   1.000  H
  H30      1.0000 0.24700  0.49200  0.13490  Biso   1.000  H
  H31      1.0000 0.74700  0.00800  0.63490  Biso   1.000  H
  H32      1.0000 0.75300  0.50800  0.86510  Biso   1.000  H
  H33      1.0000 0.09500  0.65700  0.35750  Biso   1.000  H
  H34      1.0000 0.40500  0.15700  0.14250  Biso   1.000  H
  H35      1.0000 0.90500  0.34300  0.64250  Biso   1.000  H
  H36      1.0000 0.59500  0.84300  0.85750  Biso   1.000  H
  H37      1.0000 0.04400  0.56000  0.39260  Biso   1.000  H
  H38      1.0000 0.45600  0.06000  0.10740  Biso   1.000  H
  H39      1.0000 0.95600  0.44000  0.60740  Biso   1.000  H
  H40      1.0000 0.54400  0.94000  0.89260  Biso   1.000  H
  H41      1.0000 0.17600  0.09200  0.38470  Biso   1.000  H
  H42      1.0000 0.32400  0.59200  0.11530  Biso   1.000  H
  H43      1.0000 0.82400  0.90800  0.61530  Biso   1.000  H
  H44      1.0000 0.67600  0.40800  0.88470  Biso   1.000  H
  H45      1.0000 0.66000  0.97500  0.26120  Biso   1.000  H
  H46      1.0000 0.84000  0.47500  0.23880  Biso   1.000  H
  H47      1.0000 0.34000  0.02500  0.73880  Biso   1.000  H
  H48      1.0000 0.16000  0.52500  0.76120  Biso   1.000  H
  Cu5      1.0000 0.00000  0.50000  0.50000  Biso   1.000  Cu
  Cu6      1.0000 0.50000  0.00000  0.00000  Biso   1.000  Cu
  H49      1.0000 0.84900  0.19000  0.34700  Biso   1.000  H
  H50      1.0000 0.65100  0.69000  0.15300  Biso   1.000  H
  H51      1.0000 0.15100  0.81000  0.65300  Biso   1.000  H
  H52      1.0000 0.34900  0.31000  0.84700  Biso   1.000  H
  H53      1.0000 0.64800  0.77200  0.37600  Biso   1.000  H
  H54      1.0000 0.85200  0.27200  0.12400  Biso   1.000  H
  H55      1.0000 0.35200  0.22800  0.62400  Biso   1.000  H
  H56      1.0000 0.14800  0.72800  0.87600  Biso   1.000  H
