data_image0
_cell_length_a       8.7707
_cell_length_b       10.712
_cell_length_c       13.511
_cell_angle_alpha    104.73
_cell_angle_beta     104.84
_cell_angle_gamma    102.52

_symmetry_space_group_name_H-M    "P 1"
_symmetry_int_tables_number       1

loop_
  _symmetry_equiv_pos_as_xyz
  'x, y, z'

loop_
  _atom_site_label
  _atom_site_occupancy
  _atom_site_fract_x
  _atom_site_fract_y
  _atom_site_fract_z
  _atom_site_thermal_displace_type
  _atom_site_B_iso_or_equiv
  _atom_site_type_symbol
  Cu1      1.0000 0.00000  0.00000  0.00000  Biso   1.000  Cu
  Cu2      1.0000 0.50000  0.00000  0.50000  Biso   1.000  Cu
  S1       1.0000 0.31204  0.81320  0.26711  Biso   1.000  S
  S2       1.0000 0.68796  0.18680  0.73289  Biso   1.000  S
  S3       1.0000 0.76100  0.31900  0.36180  Biso   1.000  S
  S4       1.0000 0.23900  0.68100  0.63820  Biso   1.000  S
  N1       1.0000 0.15840  0.97120  0.16630  Biso   1.000  N
  N2       1.0000 0.84160  0.02880  0.83370  Biso   1.000  N
  N3       1.0000 0.60250  0.13390  0.44110  Biso   1.000  N
  N4       1.0000 0.39750  0.86610  0.55890  Biso   1.000  N
  N5       1.0000 0.05290  0.20070  0.08230  Biso   1.000  N
  N6       1.0000 0.94710  0.79930  0.91770  Biso   1.000  N
  N7       1.0000 0.15180  0.39340  0.21660  Biso   1.000  N
  N8       1.0000 0.84820  0.60660  0.78340  Biso   1.000  N
  N9       1.0000 0.20810  0.04740  0.96260  Biso   1.000  N
  N10      1.0000 0.79190  0.95260  0.03740  Biso   1.000  N
  N11      1.0000 0.46710  0.14760  0.98400  Biso   1.000  N
  N12      1.0000 0.53290  0.85240  0.01600  Biso   1.000  N
  N13      1.0000 0.32310  0.08940  0.50790  Biso   1.000  N
  N14      1.0000 0.67690  0.91060  0.49210  Biso   1.000  N
  N15      1.0000 0.14010  0.16650  0.56640  Biso   1.000  N
  N16      1.0000 0.85990  0.83350  0.43360  Biso   1.000  N
  C1       1.0000 0.22330  0.90830  0.20880  Biso   1.000  C
  C2       1.0000 0.77670  0.09170  0.79120  Biso   1.000  C
  C3       1.0000 0.66620  0.21020  0.40790  Biso   1.000  C
  C4       1.0000 0.33380  0.78980  0.59210  Biso   1.000  C
  C5       1.0000 0.10390  0.25820  0.18710  Biso   1.000  C
  C6       1.0000 0.89610  0.74180  0.81290  Biso   1.000  C
  H1       1.0000 0.10670  0.21050  0.23590  Biso   1.000  H
  H2       1.0000 0.89330  0.78950  0.76410  Biso   1.000  H
  C7       1.0000 0.12920  0.42430  0.12400  Biso   1.000  C
  C8       1.0000 0.87080  0.57570  0.87600  Biso   1.000  C
  H3       1.0000 0.15230  0.51060  0.11830  Biso   1.000  H
  H4       1.0000 0.84770  0.48940  0.88170  Biso   1.000  H
  C9       1.0000 0.06690  0.30600  0.04150  Biso   1.000  C
  C10      1.0000 0.93310  0.69400  0.95850  Biso   1.000  C
  H5       1.0000 0.03800  0.29710  0.96830  Biso   1.000  H
  H6       1.0000 0.96200  0.70290  0.03170  Biso   1.000  H
  C11      1.0000 0.22910  0.48850  0.32810  Biso   1.000  C
  C12      1.0000 0.77090  0.51150  0.67190  Biso   1.000  C
  H7       1.0000 0.19580  0.44540  0.37740  Biso   1.000  H
  H8       1.0000 0.80420  0.55460  0.62260  Biso   1.000  H
  H9       1.0000 0.18970  0.56710  0.33360  Biso   1.000  H
  H10      1.0000 0.81030  0.43290  0.66640  Biso   1.000  H
  C13      1.0000 0.41290  0.53330  0.36110  Biso   1.000  C
  C14      1.0000 0.58710  0.46670  0.63890  Biso   1.000  C
  H11      1.0000 0.45810  0.59430  0.43440  Biso   1.000  H
  H12      1.0000 0.54190  0.40570  0.56560  Biso   1.000  H
  H13      1.0000 0.44660  0.57870  0.31390  Biso   1.000  H
  H14      1.0000 0.55340  0.42130  0.68610  Biso   1.000  H
  H15      1.0000 0.45250  0.45600  0.35630  Biso   1.000  H
  H16      1.0000 0.54750  0.54400  0.64370  Biso   1.000  H
  C15      1.0000 0.35330  0.12440  0.03230  Biso   1.000  C
  C16      1.0000 0.64670  0.87560  0.96770  Biso   1.000  C
  H17      1.0000 0.37460  0.15890  0.10660  Biso   1.000  H
  H18      1.0000 0.62540  0.84110  0.89340  Biso   1.000  H
  C17      1.0000 0.38980  0.08030  0.87640  Biso   1.000  C
  C18      1.0000 0.61020  0.91970  0.12360  Biso   1.000  C
  H19      1.0000 0.43650  0.07620  0.82160  Biso   1.000  H
  H20      1.0000 0.56350  0.92380  0.17840  Biso   1.000  H
  C19      1.0000 0.23020  0.02010  0.86520  Biso   1.000  C
  C20      1.0000 0.76980  0.97990  0.13480  Biso   1.000  C
  H21      1.0000 0.14800  0.96750  0.79960  Biso   1.000  H
  H22      1.0000 0.85200  0.03250  0.20040  Biso   1.000  H
  C21      1.0000 0.63670  0.23670  0.03400  Biso   1.000  C
  C22      1.0000 0.36330  0.76330  0.96600  Biso   1.000  C
  H23      1.0000 0.70570  0.20110  0.99560  Biso   1.000  H
  H24      1.0000 0.29430  0.79890  0.00440  Biso   1.000  H
  H25      1.0000 0.67830  0.23910  0.10840  Biso   1.000  H
  H26      1.0000 0.32170  0.76090  0.89160  Biso   1.000  H
  C23      1.0000 0.64760  0.37700  0.03210  Biso   1.000  C
  C24      1.0000 0.35240  0.62300  0.96790  Biso   1.000  C
  H27      1.0000 0.76060  0.43310  0.06530  Biso   1.000  H
  H28      1.0000 0.23940  0.56690  0.93470  Biso   1.000  H
  H29      1.0000 0.58120  0.41320  0.07130  Biso   1.000  H
  H30      1.0000 0.41880  0.58680  0.92870  Biso   1.000  H
  H31      1.0000 0.60800  0.37510  0.95840  Biso   1.000  H
  H32      1.0000 0.39200  0.62490  0.04160  Biso   1.000  H
  C25      1.0000 0.24860  0.09600  0.58110  Biso   1.000  C
  C26      1.0000 0.75140  0.90400  0.41890  Biso   1.000  C
  H33      1.0000 0.26810  0.05730  0.63560  Biso   1.000  H
  H34      1.0000 0.73190  0.94270  0.36440  Biso   1.000  H
  C27      1.0000 0.14320  0.20360  0.47810  Biso   1.000  C
  C28      1.0000 0.85680  0.79640  0.52190  Biso   1.000  C
  H35      1.0000 0.07980  0.25230  0.44790  Biso   1.000  H
  H36      1.0000 0.92020  0.74770  0.55210  Biso   1.000  H
  C29      1.0000 0.25770  0.15550  0.44240  Biso   1.000  C
  C30      1.0000 0.74230  0.84450  0.55760  Biso   1.000  C
  H37      1.0000 0.28660  0.16610  0.38280  Biso   1.000  H
  H38      1.0000 0.71340  0.83390  0.61720  Biso   1.000  H
  C31      1.0000 0.04170  0.20140  0.63700  Biso   1.000  C
  C32      1.0000 0.95830  0.79860  0.36300  Biso   1.000  C
  H39      1.0000 0.01360  0.12930  0.66640  Biso   1.000  H
  H40      1.0000 0.98640  0.87070  0.33360  Biso   1.000  H
  H41      1.0000 0.93950  0.21010  0.59450  Biso   1.000  H
  H42      1.0000 0.06050  0.78990  0.40550  Biso   1.000  H
  C33      1.0000 0.13470  0.32990  0.72690  Biso   1.000  C
  C34      1.0000 0.86530  0.67010  0.27310  Biso   1.000  C
  H43      1.0000 0.06810  0.35080  0.77140  Biso   1.000  H
  H44      1.0000 0.93190  0.64920  0.22860  Biso   1.000  H
  H45      1.0000 0.16140  0.40160  0.69770  Biso   1.000  H
  H46      1.0000 0.83860  0.59840  0.30230  Biso   1.000  H
  H47      1.0000 0.23480  0.32080  0.76970  Biso   1.000  H
  H48      1.0000 0.76520  0.67920  0.23030  Biso   1.000  H
