data_image0
_cell_length_a       4.9577
_cell_length_b       24.6312
_cell_length_c       11.2322
_cell_angle_alpha    90
_cell_angle_beta     98.325
_cell_angle_gamma    90

_symmetry_space_group_name_H-M    "P 1"
_symmetry_int_tables_number       1

loop_
  _symmetry_equiv_pos_as_xyz
  'x, y, z'

loop_
  _atom_site_label
  _atom_site_occupancy
  _atom_site_fract_x
  _atom_site_fract_y
  _atom_site_fract_z
  _atom_site_thermal_displace_type
  _atom_site_B_iso_or_equiv
  _atom_site_type_symbol
  Cu1      1.0000 0.05728  0.11388  0.78317  Biso   1.000  Cu
  Cu2      1.0000 0.05728  0.88612  0.28317  Biso   1.000  Cu
  Cu3      1.0000 0.55728  0.61388  0.78317  Biso   1.000  Cu
  Cu4      1.0000 0.55728  0.38612  0.28317  Biso   1.000  Cu
  O1       1.0000 0.87430  0.17143  0.68070  Biso   1.000  O
  O2       1.0000 0.87430  0.82857  0.18070  Biso   1.000  O
  O3       1.0000 0.37430  0.67143  0.68070  Biso   1.000  O
  O4       1.0000 0.37430  0.32857  0.18070  Biso   1.000  O
  O5       1.0000 0.19650  0.15845  0.56520  Biso   1.000  O
  O6       1.0000 0.19650  0.84155  0.06520  Biso   1.000  O
  O7       1.0000 0.69650  0.65845  0.56520  Biso   1.000  O
  O8       1.0000 0.69650  0.34155  0.06520  Biso   1.000  O
  O9       1.0000 0.28770  0.05965  0.87703  Biso   1.000  O
  O10      1.0000 0.28770  0.94035  0.37703  Biso   1.000  O
  O11      1.0000 0.78770  0.55965  0.87703  Biso   1.000  O
  O12      1.0000 0.78770  0.44035  0.37703  Biso   1.000  O
  O13      1.0000 0.69060  0.10206  0.88651  Biso   1.000  O
  O14      1.0000 0.69060  0.89794  0.38651  Biso   1.000  O
  O15      1.0000 0.19060  0.60206  0.88651  Biso   1.000  O
  O16      1.0000 0.19060  0.39794  0.38651  Biso   1.000  O
  N1       1.0000 0.71140  0.32448  0.39000  Biso   1.000  N
  N2       1.0000 0.71140  0.67552  0.89000  Biso   1.000  N
  N3       1.0000 0.21140  0.82448  0.39000  Biso   1.000  N
  N4       1.0000 0.21140  0.17552  0.89000  Biso   1.000  N
  N5       1.0000 0.89140  0.94482  0.16910  Biso   1.000  N
  N6       1.0000 0.89140  0.05518  0.66910  Biso   1.000  N
  N7       1.0000 0.39140  0.44482  0.16910  Biso   1.000  N
  N8       1.0000 0.39140  0.55518  0.66910  Biso   1.000  N
  C1       1.0000 0.60990  0.31073  0.48990  Biso   1.000  C
  C2       1.0000 0.60990  0.68927  0.98990  Biso   1.000  C
  C3       1.0000 0.10990  0.81073  0.48990  Biso   1.000  C
  C4       1.0000 0.10990  0.18927  0.98990  Biso   1.000  C
  H1       1.0000 0.47560  0.33300  0.51570  Biso   1.000  H
  H2       1.0000 0.47560  0.66700  0.01570  Biso   1.000  H
  H3       1.0000 0.97560  0.83300  0.51570  Biso   1.000  H
  H4       1.0000 0.97560  0.16700  0.01570  Biso   1.000  H
  C5       1.0000 0.69450  0.26513  0.55650  Biso   1.000  C
  C6       1.0000 0.69450  0.73487  0.05650  Biso   1.000  C
  C7       1.0000 0.19450  0.76513  0.55650  Biso   1.000  C
  C8       1.0000 0.19450  0.23487  0.05650  Biso   1.000  C
  H5       1.0000 0.61870  0.25670  0.62620  Biso   1.000  H
  H6       1.0000 0.61870  0.74330  0.12620  Biso   1.000  H
  H7       1.0000 0.11870  0.75670  0.62620  Biso   1.000  H
  H8       1.0000 0.11870  0.24330  0.12620  Biso   1.000  H
  C9       1.0000 0.89180  0.23199  0.51960  Biso   1.000  C
  C10      1.0000 0.89180  0.76801  0.01960  Biso   1.000  C
  C11      1.0000 0.39180  0.73199  0.51960  Biso   1.000  C
  C12      1.0000 0.39180  0.26801  0.01960  Biso   1.000  C
  C13      1.0000 0.99810  0.24627  0.41670  Biso   1.000  C
  C14      1.0000 0.99810  0.75373  0.91670  Biso   1.000  C
  C15      1.0000 0.49810  0.74627  0.41670  Biso   1.000  C
  C16      1.0000 0.49810  0.25373  0.91670  Biso   1.000  C
  H9       1.0000 0.13310  0.22470  0.38950  Biso   1.000  H
  H10      1.0000 0.13310  0.77530  0.88950  Biso   1.000  H
  H11      1.0000 0.63310  0.72470  0.38950  Biso   1.000  H
  H12      1.0000 0.63310  0.27530  0.88950  Biso   1.000  H
  C17      1.0000 0.90450  0.29243  0.35440  Biso   1.000  C
  C18      1.0000 0.90450  0.70757  0.85440  Biso   1.000  C
  C19      1.0000 0.40450  0.79243  0.35440  Biso   1.000  C
  C20      1.0000 0.40450  0.20757  0.85440  Biso   1.000  C
  H13      1.0000 0.97820  0.30180  0.28470  Biso   1.000  H
  H14      1.0000 0.97820  0.69820  0.78470  Biso   1.000  H
  H15      1.0000 0.47820  0.80180  0.28470  Biso   1.000  H
  H16      1.0000 0.47820  0.19820  0.78470  Biso   1.000  H
  C21      1.0000 0.99880  0.18278  0.59270  Biso   1.000  C
  C22      1.0000 0.99880  0.81722  0.09270  Biso   1.000  C
  C23      1.0000 0.49880  0.68278  0.59270  Biso   1.000  C
  C24      1.0000 0.49880  0.31722  0.09270  Biso   1.000  C
  C25      1.0000 0.65750  0.93516  0.09580  Biso   1.000  C
  C26      1.0000 0.65750  0.06484  0.59580  Biso   1.000  C
  C27      1.0000 0.15750  0.43516  0.09580  Biso   1.000  C
  C28      1.0000 0.15750  0.56484  0.59580  Biso   1.000  C
  H17      1.0000 0.57250  0.90130  0.10020  Biso   1.000  H
  H18      1.0000 0.57250  0.09870  0.60020  Biso   1.000  H
  H19      1.0000 0.07250  0.40130  0.10020  Biso   1.000  H
  H20      1.0000 0.07250  0.59870  0.60020  Biso   1.000  H
  C29      1.0000 0.53730  0.97273  0.01460  Biso   1.000  C
  C30      1.0000 0.53730  0.02727  0.51460  Biso   1.000  C
  C31      1.0000 0.03730  0.47273  0.01460  Biso   1.000  C
  C32      1.0000 0.03730  0.52727  0.51460  Biso   1.000  C
  H21      1.0000 0.37120  0.96460  0.96630  Biso   1.000  H
  H22      1.0000 0.37120  0.03540  0.46630  Biso   1.000  H
  H23      1.0000 0.87120  0.46460  0.96630  Biso   1.000  H
  H24      1.0000 0.87120  0.53540  0.46630  Biso   1.000  H
  C33      1.0000 0.66100  0.02260  0.00410  Biso   1.000  C
  C34      1.0000 0.66100  0.97740  0.50410  Biso   1.000  C
  C35      1.0000 0.16100  0.52260  0.00410  Biso   1.000  C
  C36      1.0000 0.16100  0.47740  0.50410  Biso   1.000  C
  C37      1.0000 0.90250  0.03268  0.07950  Biso   1.000  C
  C38      1.0000 0.90250  0.96732  0.57950  Biso   1.000  C
  C39      1.0000 0.40250  0.53268  0.07950  Biso   1.000  C
  C40      1.0000 0.40250  0.46732  0.57950  Biso   1.000  C
  H25      1.0000 0.99320  0.06600  0.07570  Biso   1.000  H
  H26      1.0000 0.99320  0.93400  0.57570  Biso   1.000  H
  H27      1.0000 0.49320  0.56600  0.07570  Biso   1.000  H
  H28      1.0000 0.49320  0.43400  0.57570  Biso   1.000  H
  C41      1.0000 0.00860  0.99325  0.16050  Biso   1.000  C
  C42      1.0000 0.00860  0.00675  0.66050  Biso   1.000  C
  C43      1.0000 0.50860  0.49325  0.16050  Biso   1.000  C
  C44      1.0000 0.50860  0.50675  0.66050  Biso   1.000  C
  H29      1.0000 0.17110  0.00080  0.21200  Biso   1.000  H
  H30      1.0000 0.17110  0.99920  0.71200  Biso   1.000  H
  H31      1.0000 0.67110  0.50080  0.21200  Biso   1.000  H
  H32      1.0000 0.67110  0.49920  0.71200  Biso   1.000  H
  C45      1.0000 0.54110  0.06530  0.91510  Biso   1.000  C
  C46      1.0000 0.54110  0.93470  0.41510  Biso   1.000  C
  C47      1.0000 0.04110  0.56530  0.91510  Biso   1.000  C
  C48      1.0000 0.04110  0.43470  0.41510  Biso   1.000  C
