data_image0
_cell_length_a       4.944
_cell_length_b       24.815
_cell_length_c       11.11
_cell_angle_alpha    90
_cell_angle_beta     98.19
_cell_angle_gamma    90

_symmetry_space_group_name_H-M    "P 1"
_symmetry_int_tables_number       1

loop_
  _symmetry_equiv_pos_as_xyz
  'x, y, z'

loop_
  _atom_site_label
  _atom_site_occupancy
  _atom_site_fract_x
  _atom_site_fract_y
  _atom_site_fract_z
  _atom_site_thermal_displace_type
  _atom_site_B_iso_or_equiv
  _atom_site_type_symbol
  Cu1      1.0000 0.78732  0.61379  0.30466  Biso   1.000  Cu
  Cu2      1.0000 0.78732  0.38621  0.80466  Biso   1.000  Cu
  Cu3      1.0000 0.28732  0.11379  0.30466  Biso   1.000  Cu
  Cu4      1.0000 0.28732  0.88621  0.80466  Biso   1.000  Cu
  N1       1.0000 0.94890  0.55440  0.41890  Biso   1.000  N
  N2       1.0000 0.94890  0.44560  0.91890  Biso   1.000  N
  N3       1.0000 0.44890  0.05440  0.41890  Biso   1.000  N
  N4       1.0000 0.44890  0.94560  0.91890  Biso   1.000  N
  N5       1.0000 0.63490  0.67520  0.19930  Biso   1.000  N
  N6       1.0000 0.63490  0.32480  0.69930  Biso   1.000  N
  N7       1.0000 0.13490  0.17520  0.19930  Biso   1.000  N
  N8       1.0000 0.13490  0.82480  0.69930  Biso   1.000  N
  O1       1.0000 0.55330  0.43880  0.70860  Biso   1.000  O
  O2       1.0000 0.55330  0.56120  0.20860  Biso   1.000  O
  O3       1.0000 0.05330  0.93880  0.70860  Biso   1.000  O
  O4       1.0000 0.05330  0.06120  0.20860  Biso   1.000  O
  O5       1.0000 0.15140  0.39660  0.69890  Biso   1.000  O
  O6       1.0000 0.15140  0.60340  0.19890  Biso   1.000  O
  O7       1.0000 0.65140  0.89660  0.69890  Biso   1.000  O
  O8       1.0000 0.65140  0.10340  0.19890  Biso   1.000  O
  O9       1.0000 0.47010  0.82940  0.91100  Biso   1.000  O
  O10      1.0000 0.47010  0.17060  0.41100  Biso   1.000  O
  O11      1.0000 0.97010  0.32940  0.91100  Biso   1.000  O
  O12      1.0000 0.97010  0.67060  0.41100  Biso   1.000  O
  O13      1.0000 0.16020  0.84290  0.03390  Biso   1.000  O
  O14      1.0000 0.16020  0.15710  0.53390  Biso   1.000  O
  O15      1.0000 0.66020  0.34290  0.03390  Biso   1.000  O
  O16      1.0000 0.66020  0.65710  0.53390  Biso   1.000  O
  C1       1.0000 0.29660  0.43360  0.67110  Biso   1.000  C
  C2       1.0000 0.29660  0.56640  0.17110  Biso   1.000  C
  C3       1.0000 0.79660  0.93360  0.67110  Biso   1.000  C
  C4       1.0000 0.79660  0.06640  0.17110  Biso   1.000  C
  C5       1.0000 0.17870  0.47610  0.58270  Biso   1.000  C
  C6       1.0000 0.17870  0.52390  0.08270  Biso   1.000  C
  C7       1.0000 0.67870  0.97610  0.58270  Biso   1.000  C
  C8       1.0000 0.67870  0.02390  0.08270  Biso   1.000  C
  C9       1.0000 0.93620  0.46730  0.50350  Biso   1.000  C
  C10      1.0000 0.93620  0.53270  0.00350  Biso   1.000  C
  C11      1.0000 0.43620  0.96730  0.50350  Biso   1.000  C
  C12      1.0000 0.43620  0.03270  0.00350  Biso   1.000  C
  H1       1.0000 0.84480  0.43450  0.50480  Biso   1.000  H
  H2       1.0000 0.84480  0.56550  0.00480  Biso   1.000  H
  H3       1.0000 0.34480  0.93450  0.50480  Biso   1.000  H
  H4       1.0000 0.34480  0.06550  0.00480  Biso   1.000  H
  C13      1.0000 0.83380  0.50710  0.42400  Biso   1.000  C
  C14      1.0000 0.83380  0.49290  0.92400  Biso   1.000  C
  C15      1.0000 0.33380  0.00710  0.42400  Biso   1.000  C
  C16      1.0000 0.33380  0.99290  0.92400  Biso   1.000  C
  H5       1.0000 0.67460  0.50010  0.37100  Biso   1.000  H
  H6       1.0000 0.67460  0.49990  0.87100  Biso   1.000  H
  H7       1.0000 0.17460  0.00010  0.37100  Biso   1.000  H
  H8       1.0000 0.17460  0.99990  0.87100  Biso   1.000  H
  C17      1.0000 0.18160  0.56390  0.49330  Biso   1.000  C
  C18      1.0000 0.18160  0.43610  0.99330  Biso   1.000  C
  C19      1.0000 0.68160  0.06390  0.49330  Biso   1.000  C
  C20      1.0000 0.68160  0.93610  0.99330  Biso   1.000  C
  H9       1.0000 0.26570  0.59720  0.48940  Biso   1.000  H
  H10      1.0000 0.26570  0.40280  0.98940  Biso   1.000  H
  H11      1.0000 0.76570  0.09720  0.48940  Biso   1.000  H
  H12      1.0000 0.76570  0.90280  0.98940  Biso   1.000  H
  C21      1.0000 0.30120  0.52650  0.57500  Biso   1.000  C
  C22      1.0000 0.30120  0.47350  0.07500  Biso   1.000  C
  C23      1.0000 0.80120  0.02650  0.57500  Biso   1.000  C
  C24      1.0000 0.80120  0.97350  0.07500  Biso   1.000  C
  H13      1.0000 0.46310  0.53470  0.62510  Biso   1.000  H
  H14      1.0000 0.46310  0.46530  0.12510  Biso   1.000  H
  H15      1.0000 0.96310  0.03470  0.62510  Biso   1.000  H
  H16      1.0000 0.96310  0.96530  0.12510  Biso   1.000  H
  C25      1.0000 0.34910  0.81720  0.00090  Biso   1.000  C
  C26      1.0000 0.34910  0.18280  0.50090  Biso   1.000  C
  C27      1.0000 0.84910  0.31720  0.00090  Biso   1.000  C
  C28      1.0000 0.84910  0.68280  0.50090  Biso   1.000  C
  C29      1.0000 0.45690  0.76860  0.07200  Biso   1.000  C
  C30      1.0000 0.45690  0.23140  0.57200  Biso   1.000  C
  C31      1.0000 0.95690  0.26860  0.07200  Biso   1.000  C
  C32      1.0000 0.95690  0.73140  0.57200  Biso   1.000  C
  C33      1.0000 0.64700  0.73600  0.03140  Biso   1.000  C
  C34      1.0000 0.64700  0.26400  0.53140  Biso   1.000  C
  C35      1.0000 0.14700  0.23600  0.03140  Biso   1.000  C
  C36      1.0000 0.14700  0.76400  0.53140  Biso   1.000  C
  H17      1.0000 0.72140  0.74510  0.96160  Biso   1.000  H
  H18      1.0000 0.72140  0.25490  0.46160  Biso   1.000  H
  H19      1.0000 0.22140  0.24510  0.96160  Biso   1.000  H
  H20      1.0000 0.22140  0.75490  0.46160  Biso   1.000  H
  C37      1.0000 0.73100  0.68880  0.09570  Biso   1.000  C
  C38      1.0000 0.73100  0.31120  0.59570  Biso   1.000  C
  C39      1.0000 0.23100  0.18880  0.09570  Biso   1.000  C
  C40      1.0000 0.23100  0.81120  0.59570  Biso   1.000  C
  H21      1.0000 0.85620  0.66620  0.06600  Biso   1.000  H
  H22      1.0000 0.85620  0.33380  0.56600  Biso   1.000  H
  H23      1.0000 0.35620  0.16620  0.06600  Biso   1.000  H
  H24      1.0000 0.35620  0.83380  0.56600  Biso   1.000  H
  C41      1.0000 0.44460  0.70680  0.23650  Biso   1.000  C
  C42      1.0000 0.44460  0.29320  0.73650  Biso   1.000  C
  C43      1.0000 0.94460  0.20680  0.23650  Biso   1.000  C
  C44      1.0000 0.94460  0.79320  0.73650  Biso   1.000  C
  H25      1.0000 0.37280  0.69680  0.30620  Biso   1.000  H
  H26      1.0000 0.37280  0.30320  0.80620  Biso   1.000  H
  H27      1.0000 0.87280  0.19680  0.30620  Biso   1.000  H
  H28      1.0000 0.87280  0.80320  0.80620  Biso   1.000  H
  C45      1.0000 0.34770  0.75360  0.17750  Biso   1.000  C
  C46      1.0000 0.34770  0.24640  0.67750  Biso   1.000  C
  C47      1.0000 0.84770  0.25360  0.17750  Biso   1.000  C
  C48      1.0000 0.84770  0.74640  0.67750  Biso   1.000  C
  H29      1.0000 0.21490  0.77450  0.20670  Biso   1.000  H
  H30      1.0000 0.21490  0.22550  0.70670  Biso   1.000  H
  H31      1.0000 0.71490  0.27450  0.20670  Biso   1.000  H
  H32      1.0000 0.71490  0.72550  0.70670  Biso   1.000  H
