data_image0
_cell_length_a       5.1646
_cell_length_b       24.466
_cell_length_c       11.585
_cell_angle_alpha    90
_cell_angle_beta     101.559
_cell_angle_gamma    90

_symmetry_space_group_name_H-M    "P 1"
_symmetry_int_tables_number       1

loop_
  _symmetry_equiv_pos_as_xyz
  'x, y, z'

loop_
  _atom_site_label
  _atom_site_occupancy
  _atom_site_fract_x
  _atom_site_fract_y
  _atom_site_fract_z
  _atom_site_thermal_displace_type
  _atom_site_B_iso_or_equiv
  _atom_site_type_symbol
  Cu1      1.0000 0.05799  0.11343  0.78326  Biso   1.000  Cu
  Cu2      1.0000 0.05799  0.88657  0.28326  Biso   1.000  Cu
  Cu3      1.0000 0.55799  0.61343  0.78326  Biso   1.000  Cu
  Cu4      1.0000 0.55799  0.38657  0.28326  Biso   1.000  Cu
  O1       1.0000 0.86650  0.17304  0.68610  Biso   1.000  O
  O2       1.0000 0.86650  0.82696  0.18610  Biso   1.000  O
  O3       1.0000 0.36650  0.67304  0.68610  Biso   1.000  O
  O4       1.0000 0.36650  0.32696  0.18610  Biso   1.000  O
  O5       1.0000 0.18920  0.16186  0.58710  Biso   1.000  O
  O6       1.0000 0.18920  0.83814  0.08710  Biso   1.000  O
  O7       1.0000 0.68920  0.66186  0.58710  Biso   1.000  O
  O8       1.0000 0.68920  0.33814  0.08710  Biso   1.000  O
  O9       1.0000 0.29410  0.05855  0.87150  Biso   1.000  O
  O10      1.0000 0.29410  0.94145  0.37150  Biso   1.000  O
  O11      1.0000 0.79410  0.55855  0.87150  Biso   1.000  O
  O12      1.0000 0.79410  0.44145  0.37150  Biso   1.000  O
  O13      1.0000 0.68830  0.09770  0.87390  Biso   1.000  O
  O14      1.0000 0.68830  0.90230  0.37390  Biso   1.000  O
  O15      1.0000 0.18830  0.59770  0.87390  Biso   1.000  O
  O16      1.0000 0.18830  0.40230  0.37390  Biso   1.000  O
  N1       1.0000 0.70920  0.32642  0.39530  Biso   1.000  N
  N2       1.0000 0.70920  0.67358  0.89530  Biso   1.000  N
  N3       1.0000 0.20920  0.82642  0.39530  Biso   1.000  N
  N4       1.0000 0.20920  0.17358  0.89530  Biso   1.000  N
  N5       1.0000 0.89350  0.94341  0.16460  Biso   1.000  N
  N6       1.0000 0.89350  0.05659  0.66460  Biso   1.000  N
  N7       1.0000 0.39350  0.44341  0.16460  Biso   1.000  N
  N8       1.0000 0.39350  0.55659  0.66460  Biso   1.000  N
  C1       1.0000 0.60000  0.31156  0.48500  Biso   1.000  C
  C2       1.0000 0.60000  0.68844  0.98500  Biso   1.000  C
  C3       1.0000 0.10000  0.81156  0.48500  Biso   1.000  C
  C4       1.0000 0.10000  0.18844  0.98500  Biso   1.000  C
  H1       1.0000 0.45910  0.33250  0.50140  Biso   1.000  H
  H2       1.0000 0.45910  0.66750  0.00140  Biso   1.000  H
  H3       1.0000 0.95910  0.83250  0.50140  Biso   1.000  H
  H4       1.0000 0.95910  0.16750  0.00140  Biso   1.000  H
  C5       1.0000 0.68400  0.26663  0.55550  Biso   1.000  C
  C6       1.0000 0.68400  0.73337  0.05550  Biso   1.000  C
  C7       1.0000 0.18400  0.76663  0.55550  Biso   1.000  C
  C8       1.0000 0.18400  0.23337  0.05550  Biso   1.000  C
  H5       1.0000 0.60320  0.25790  0.61890  Biso   1.000  H
  H6       1.0000 0.60320  0.74210  0.11890  Biso   1.000  H
  H7       1.0000 0.10320  0.75790  0.61890  Biso   1.000  H
  H8       1.0000 0.10320  0.24210  0.11890  Biso   1.000  H
  C9       1.0000 0.88700  0.23504  0.53150  Biso   1.000  C
  C10      1.0000 0.88700  0.76496  0.03150  Biso   1.000  C
  C11      1.0000 0.38700  0.73504  0.53150  Biso   1.000  C
  C12      1.0000 0.38700  0.26496  0.03150  Biso   1.000  C
  C13      1.0000 0.00170  0.25013  0.43700  Biso   1.000  C
  C14      1.0000 0.00170  0.74987  0.93700  Biso   1.000  C
  C15      1.0000 0.50170  0.75013  0.43700  Biso   1.000  C
  C16      1.0000 0.50170  0.24987  0.93700  Biso   1.000  C
  H9       1.0000 0.14160  0.22950  0.41860  Biso   1.000  H
  H10      1.0000 0.14160  0.77050  0.91860  Biso   1.000  H
  H11      1.0000 0.64160  0.72950  0.41860  Biso   1.000  H
  H12      1.0000 0.64160  0.27050  0.91860  Biso   1.000  H
  C17      1.0000 0.90870  0.29555  0.37050  Biso   1.000  C
  C18      1.0000 0.90870  0.70445  0.87050  Biso   1.000  C
  C19      1.0000 0.40870  0.79555  0.37050  Biso   1.000  C
  C20      1.0000 0.40870  0.20445  0.87050  Biso   1.000  C
  H13      1.0000 0.98580  0.30520  0.30640  Biso   1.000  H
  H14      1.0000 0.98580  0.69480  0.80640  Biso   1.000  H
  H15      1.0000 0.48580  0.80520  0.30640  Biso   1.000  H
  H16      1.0000 0.48580  0.19480  0.80640  Biso   1.000  H
  C21      1.0000 0.98940  0.18540  0.60610  Biso   1.000  C
  C22      1.0000 0.98940  0.81460  0.10610  Biso   1.000  C
  C23      1.0000 0.48940  0.68540  0.60610  Biso   1.000  C
  C24      1.0000 0.48940  0.31460  0.10610  Biso   1.000  C
  C25      1.0000 0.65260  0.93595  0.09940  Biso   1.000  C
  C26      1.0000 0.65260  0.06405  0.59940  Biso   1.000  C
  C27      1.0000 0.15260  0.43595  0.09940  Biso   1.000  C
  C28      1.0000 0.15260  0.56405  0.59940  Biso   1.000  C
  H17      1.0000 0.55980  0.90400  0.11090  Biso   1.000  H
  H18      1.0000 0.55980  0.09600  0.61090  Biso   1.000  H
  H19      1.0000 0.05980  0.40400  0.11090  Biso   1.000  H
  H20      1.0000 0.05980  0.59600  0.61090  Biso   1.000  H
  C29      1.0000 0.53350  0.97303  0.01600  Biso   1.000  C
  C30      1.0000 0.53350  0.02697  0.51600  Biso   1.000  C
  C31      1.0000 0.03350  0.47303  0.01600  Biso   1.000  C
  C32      1.0000 0.03350  0.52697  0.51600  Biso   1.000  C
  H21      1.0000 0.36130  0.96660  0.97330  Biso   1.000  H
  H22      1.0000 0.36130  0.03340  0.47330  Biso   1.000  H
  H23      1.0000 0.86130  0.46660  0.97330  Biso   1.000  H
  H24      1.0000 0.86130  0.53340  0.47330  Biso   1.000  H
  C33      1.0000 0.66900  0.02008  0.99490  Biso   1.000  C
  C34      1.0000 0.66900  0.97992  0.49490  Biso   1.000  C
  C35      1.0000 0.16900  0.52008  0.99490  Biso   1.000  C
  C36      1.0000 0.16900  0.47992  0.49490  Biso   1.000  C
  C37      1.0000 0.91880  0.02705  0.06000  Biso   1.000  C
  C38      1.0000 0.91880  0.97295  0.56000  Biso   1.000  C
  C39      1.0000 0.41880  0.52705  0.06000  Biso   1.000  C
  C40      1.0000 0.41880  0.47295  0.56000  Biso   1.000  C
  H25      1.0000 0.01830  0.05790  0.04760  Biso   1.000  H
  H26      1.0000 0.01830  0.94210  0.54760  Biso   1.000  H
  H27      1.0000 0.51830  0.55790  0.04760  Biso   1.000  H
  H28      1.0000 0.51830  0.44210  0.54760  Biso   1.000  H
  C41      1.0000 0.02510  0.98855  0.14420  Biso   1.000  C
  C42      1.0000 0.02510  0.01145  0.64420  Biso   1.000  C
  C43      1.0000 0.52510  0.48855  0.14420  Biso   1.000  C
  C44      1.0000 0.52510  0.51145  0.64420  Biso   1.000  C
  H29      1.0000 0.19600  0.99430  0.18880  Biso   1.000  H
  H30      1.0000 0.19600  0.00570  0.68880  Biso   1.000  H
  H31      1.0000 0.69600  0.49430  0.18880  Biso   1.000  H
  H32      1.0000 0.69600  0.50570  0.68880  Biso   1.000  H
  C45      1.0000 0.54460  0.06266  0.90580  Biso   1.000  C
  C46      1.0000 0.54460  0.93734  0.40580  Biso   1.000  C
  C47      1.0000 0.04460  0.56266  0.90580  Biso   1.000  C
  C48      1.0000 0.04460  0.43734  0.40580  Biso   1.000  C
  O17      1.0000 0.70400  0.37420  0.87050  Biso   1.000  O
  O18      1.0000 0.70400  0.62580  0.37050  Biso   1.000  O
  O19      1.0000 0.20400  0.87420  0.87050  Biso   1.000  O
  O20      1.0000 0.20400  0.12580  0.37050  Biso   1.000  O
  H33      1.0000 0.66100  0.36220  0.94330  Biso   1.000  H
  H34      1.0000 0.66100  0.63780  0.44330  Biso   1.000  H
  H35      1.0000 0.16100  0.86220  0.94330  Biso   1.000  H
  H36      1.0000 0.16100  0.13780  0.44330  Biso   1.000  H
  C49      1.0000 0.95700  0.35650  0.84700  Biso   1.000  C
  C50      1.0000 0.95700  0.64350  0.34700  Biso   1.000  C
  C51      1.0000 0.45700  0.85650  0.84700  Biso   1.000  C
  C52      1.0000 0.45700  0.14350  0.34700  Biso   1.000  C
  H37      1.0000 0.94140  0.31820  0.82170  Biso   1.000  H
  H38      1.0000 0.94140  0.68180  0.32170  Biso   1.000  H
  H39      1.0000 0.44140  0.81820  0.82170  Biso   1.000  H
  H40      1.0000 0.44140  0.18180  0.32170  Biso   1.000  H
  H41      1.0000 0.08890  0.35830  0.92030  Biso   1.000  H
  H42      1.0000 0.08890  0.64170  0.42030  Biso   1.000  H
  H43      1.0000 0.58890  0.85830  0.92030  Biso   1.000  H
  H44      1.0000 0.58890  0.14170  0.42030  Biso   1.000  H
  C53      1.0000 0.05600  0.38940  0.75400  Biso   1.000  C
  C54      1.0000 0.05600  0.61060  0.25400  Biso   1.000  C
  C55      1.0000 0.55600  0.88940  0.75400  Biso   1.000  C
  C56      1.0000 0.55600  0.11060  0.25400  Biso   1.000  C
  H45      1.0000 0.06630  0.42820  0.77550  Biso   1.000  H
  H46      1.0000 0.06630  0.57180  0.27550  Biso   1.000  H
  H47      1.0000 0.56630  0.92820  0.77550  Biso   1.000  H
  H48      1.0000 0.56630  0.07180  0.27550  Biso   1.000  H
  H49      1.0000 0.93530  0.38550  0.67770  Biso   1.000  H
  H50      1.0000 0.93530  0.61450  0.17770  Biso   1.000  H
  H51      1.0000 0.43530  0.88550  0.67770  Biso   1.000  H
  H52      1.0000 0.43530  0.11450  0.17770  Biso   1.000  H
  C57      1.0000 0.32900  0.36840  0.74600  Biso   1.000  C
  C58      1.0000 0.32900  0.63160  0.24600  Biso   1.000  C
  C59      1.0000 0.82900  0.86840  0.74600  Biso   1.000  C
  C60      1.0000 0.82900  0.13160  0.24600  Biso   1.000  C
  H53      1.0000 0.40970  0.39320  0.69780  Biso   1.000  H
  H54      1.0000 0.40970  0.60680  0.19780  Biso   1.000  H
  H55      1.0000 0.90970  0.89320  0.69780  Biso   1.000  H
  H56      1.0000 0.90970  0.10680  0.19780  Biso   1.000  H
  H57      1.0000 0.31320  0.33240  0.70980  Biso   1.000  H
  H58      1.0000 0.31320  0.66760  0.20980  Biso   1.000  H
  H59      1.0000 0.81320  0.83240  0.70980  Biso   1.000  H
  H60      1.0000 0.81320  0.16760  0.20980  Biso   1.000  H
  H61      1.0000 0.43880  0.36620  0.82400  Biso   1.000  H
  H62      1.0000 0.43880  0.63380  0.32400  Biso   1.000  H
  H63      1.0000 0.93880  0.86620  0.82400  Biso   1.000  H
  H64      1.0000 0.93880  0.13380  0.32400  Biso   1.000  H
  O21      1.0000 0.25900  0.35180  0.69770  Biso   1.000  O
  O22      1.0000 0.25900  0.64820  0.19770  Biso   1.000  O
  O23      1.0000 0.75900  0.85180  0.69770  Biso   1.000  O
  O24      1.0000 0.75900  0.14820  0.19770  Biso   1.000  O
  H65      1.0000 0.41040  0.36050  0.75630  Biso   1.000  H
  H66      1.0000 0.41040  0.63950  0.25630  Biso   1.000  H
  H67      1.0000 0.91040  0.86050  0.75630  Biso   1.000  H
  H68      1.0000 0.91040  0.13950  0.25630  Biso   1.000  H
  C61      1.0000 0.03600  0.38520  0.71500  Biso   1.000  C
  C62      1.0000 0.03600  0.61480  0.21500  Biso   1.000  C
  C63      1.0000 0.53600  0.88520  0.71500  Biso   1.000  C
  C64      1.0000 0.53600  0.11480  0.21500  Biso   1.000  C
  H69      1.0000 0.90240  0.38700  0.64200  Biso   1.000  H
  H70      1.0000 0.90240  0.61300  0.14200  Biso   1.000  H
  H71      1.0000 0.40240  0.88700  0.64200  Biso   1.000  H
  H72      1.0000 0.40240  0.11300  0.14200  Biso   1.000  H
  H73      1.0000 0.09510  0.42240  0.73790  Biso   1.000  H
  H74      1.0000 0.09510  0.57760  0.23790  Biso   1.000  H
  H75      1.0000 0.59510  0.92240  0.73790  Biso   1.000  H
  H76      1.0000 0.59510  0.07760  0.23790  Biso   1.000  H
  C65      1.0000 0.92000  0.35900  0.81100  Biso   1.000  C
  C66      1.0000 0.92000  0.64100  0.31100  Biso   1.000  C
  C67      1.0000 0.42000  0.85900  0.81100  Biso   1.000  C
  C68      1.0000 0.42000  0.14100  0.31100  Biso   1.000  C
  H77      1.0000 0.01220  0.37220  0.88860  Biso   1.000  H
  H78      1.0000 0.01220  0.62780  0.38860  Biso   1.000  H
  H79      1.0000 0.51220  0.87220  0.88860  Biso   1.000  H
  H80      1.0000 0.51220  0.12780  0.38860  Biso   1.000  H
  H81      1.0000 0.94120  0.31920  0.80940  Biso   1.000  H
  H82      1.0000 0.94120  0.68080  0.30940  Biso   1.000  H
  H83      1.0000 0.44120  0.81920  0.80940  Biso   1.000  H
  H84      1.0000 0.44120  0.18080  0.30940  Biso   1.000  H
  C69      1.0000 0.63000  0.37350  0.79200  Biso   1.000  C
  C70      1.0000 0.63000  0.62650  0.29200  Biso   1.000  C
  C71      1.0000 0.13000  0.87350  0.79200  Biso   1.000  C
  C72      1.0000 0.13000  0.12650  0.29200  Biso   1.000  C
  H85      1.0000 0.55480  0.35850  0.85600  Biso   1.000  H
  H86      1.0000 0.55480  0.64150  0.35600  Biso   1.000  H
  H87      1.0000 0.05480  0.85850  0.85600  Biso   1.000  H
  H88      1.0000 0.05480  0.14150  0.35600  Biso   1.000  H
  H89      1.0000 0.53780  0.35840  0.71790  Biso   1.000  H
  H90      1.0000 0.53780  0.64160  0.21790  Biso   1.000  H
  H91      1.0000 0.03780  0.85840  0.71790  Biso   1.000  H
  H92      1.0000 0.03780  0.14160  0.21790  Biso   1.000  H
  H93      1.0000 0.60980  0.41300  0.79090  Biso   1.000  H
  H94      1.0000 0.60980  0.58700  0.29090  Biso   1.000  H
  H95      1.0000 0.10980  0.91300  0.79090  Biso   1.000  H
  H96      1.0000 0.10980  0.08700  0.29090  Biso   1.000  H
  O25      1.0000 0.42000  0.39850  0.83100  Biso   1.000  O
  O26      1.0000 0.42000  0.60150  0.33100  Biso   1.000  O
  O27      1.0000 0.92000  0.89850  0.83100  Biso   1.000  O
  O28      1.0000 0.92000  0.10150  0.33100  Biso   1.000  O
  C73      1.0000 0.69100  0.37800  0.84500  Biso   1.000  C
  C74      1.0000 0.69100  0.62200  0.34500  Biso   1.000  C
  C75      1.0000 0.19100  0.87800  0.84500  Biso   1.000  C
  C76      1.0000 0.19100  0.12200  0.34500  Biso   1.000  C
  H97      1.0000 0.70300  0.34170  0.87940  Biso   1.000  H
  H98      1.0000 0.70300  0.65830  0.37940  Biso   1.000  H
  H99      1.0000 0.20300  0.84170  0.87940  Biso   1.000  H
  H100     1.0000 0.20300  0.15830  0.37940  Biso   1.000  H
  H101     1.0000 0.81040  0.40240  0.89890  Biso   1.000  H
  H102     1.0000 0.81040  0.59760  0.39890  Biso   1.000  H
  H103     1.0000 0.31040  0.90240  0.89890  Biso   1.000  H
  H104     1.0000 0.31040  0.09760  0.39890  Biso   1.000  H
  C77      1.0000 0.77400  0.37700  0.72700  Biso   1.000  C
  C78      1.0000 0.77400  0.62300  0.22700  Biso   1.000  C
  C79      1.0000 0.27400  0.87700  0.72700  Biso   1.000  C
  C80      1.0000 0.27400  0.12300  0.22700  Biso   1.000  C
  H105     1.0000 0.81880  0.33900  0.70960  Biso   1.000  H
  H106     1.0000 0.81880  0.66100  0.20960  Biso   1.000  H
  H107     1.0000 0.31880  0.83900  0.70960  Biso   1.000  H
  H108     1.0000 0.31880  0.16100  0.20960  Biso   1.000  H
  H109     1.0000 0.62800  0.38890  0.66510  Biso   1.000  H
  H110     1.0000 0.62800  0.61110  0.16510  Biso   1.000  H
  H111     1.0000 0.12800  0.88890  0.66510  Biso   1.000  H
  H112     1.0000 0.12800  0.11110  0.16510  Biso   1.000  H
  C81      1.0000 0.01000  0.41300  0.73000  Biso   1.000  C
  C82      1.0000 0.01000  0.58700  0.23000  Biso   1.000  C
  C83      1.0000 0.51000  0.91300  0.73000  Biso   1.000  C
  C84      1.0000 0.51000  0.08700  0.23000  Biso   1.000  C
  H113     1.0000 0.06240  0.41150  0.65380  Biso   1.000  H
  H114     1.0000 0.06240  0.58850  0.15380  Biso   1.000  H
  H115     1.0000 0.56240  0.91150  0.65380  Biso   1.000  H
  H116     1.0000 0.56240  0.08850  0.15380  Biso   1.000  H
  H117     1.0000 0.15540  0.40050  0.79050  Biso   1.000  H
  H118     1.0000 0.15540  0.59950  0.29050  Biso   1.000  H
  H119     1.0000 0.65540  0.90050  0.79050  Biso   1.000  H
  H120     1.0000 0.65540  0.09950  0.29050  Biso   1.000  H
  H121     1.0000 0.96500  0.45020  0.74610  Biso   1.000  H
  H122     1.0000 0.96500  0.54980  0.24610  Biso   1.000  H
  H123     1.0000 0.46500  0.95020  0.74610  Biso   1.000  H
  H124     1.0000 0.46500  0.04980  0.24610  Biso   1.000  H
  O29      1.0000 0.70400  0.37600  0.80300  Biso   1.000  O
  O30      1.0000 0.70400  0.62400  0.30300  Biso   1.000  O
  O31      1.0000 0.20400  0.87600  0.80300  Biso   1.000  O
  O32      1.0000 0.20400  0.12400  0.30300  Biso   1.000  O
  C85      1.0000 0.44400  0.38000  0.72700  Biso   1.000  C
  C86      1.0000 0.44400  0.62000  0.22700  Biso   1.000  C
  C87      1.0000 0.94400  0.88000  0.72700  Biso   1.000  C
  C88      1.0000 0.94400  0.12000  0.22700  Biso   1.000  C
  H125     1.0000 0.40500  0.34620  0.68210  Biso   1.000  H
  H126     1.0000 0.40500  0.65380  0.18210  Biso   1.000  H
  H127     1.0000 0.90500  0.84620  0.68210  Biso   1.000  H
  H128     1.0000 0.90500  0.15380  0.18210  Biso   1.000  H
  H129     1.0000 0.44460  0.41010  0.67070  Biso   1.000  H
  H130     1.0000 0.44460  0.58990  0.17070  Biso   1.000  H
  H131     1.0000 0.94460  0.91010  0.67070  Biso   1.000  H
  H132     1.0000 0.94460  0.08990  0.17070  Biso   1.000  H
  C89      1.0000 0.23100  0.39050  0.79700  Biso   1.000  C
  C90      1.0000 0.23100  0.60950  0.29700  Biso   1.000  C
  C91      1.0000 0.73100  0.89050  0.79700  Biso   1.000  C
  C92      1.0000 0.73100  0.10950  0.29700  Biso   1.000  C
  H133     1.0000 0.13800  0.42450  0.77090  Biso   1.000  H
  H134     1.0000 0.13800  0.57550  0.27090  Biso   1.000  H
  H135     1.0000 0.63800  0.92450  0.77090  Biso   1.000  H
  H136     1.0000 0.63800  0.07550  0.27090  Biso   1.000  H
  H137     1.0000 0.31130  0.39410  0.88090  Biso   1.000  H
  H138     1.0000 0.31130  0.60590  0.38090  Biso   1.000  H
  H139     1.0000 0.81130  0.89410  0.88090  Biso   1.000  H
  H140     1.0000 0.81130  0.10590  0.38090  Biso   1.000  H
  C93      1.0000 0.03900  0.34300  0.77900  Biso   1.000  C
  C94      1.0000 0.03900  0.65700  0.27900  Biso   1.000  C
  C95      1.0000 0.53900  0.84300  0.77900  Biso   1.000  C
  C96      1.0000 0.53900  0.15700  0.27900  Biso   1.000  C
  H141     1.0000 0.91340  0.34730  0.83010  Biso   1.000  H
  H142     1.0000 0.91340  0.65270  0.33010  Biso   1.000  H
  H143     1.0000 0.41340  0.84730  0.83010  Biso   1.000  H
  H144     1.0000 0.41340  0.15270  0.33010  Biso   1.000  H
  H145     1.0000 0.13580  0.30910  0.79760  Biso   1.000  H
  H146     1.0000 0.13580  0.69090  0.29760  Biso   1.000  H
  H147     1.0000 0.63580  0.80910  0.79760  Biso   1.000  H
  H148     1.0000 0.63580  0.19090  0.29760  Biso   1.000  H
  H149     1.0000 0.94610  0.34230  0.69750  Biso   1.000  H
  H150     1.0000 0.94610  0.65770  0.19750  Biso   1.000  H
  H151     1.0000 0.44610  0.84230  0.69750  Biso   1.000  H
  H152     1.0000 0.44610  0.15770  0.19750  Biso   1.000  H
