data_image0
_cell_length_a       4.9213
_cell_length_b       25.1423
_cell_length_c       10.8011
_cell_angle_alpha    90
_cell_angle_beta     96.92
_cell_angle_gamma    90

_symmetry_space_group_name_H-M    "P 1"
_symmetry_int_tables_number       1

loop_
  _symmetry_equiv_pos_as_xyz
  'x, y, z'

loop_
  _atom_site_label
  _atom_site_occupancy
  _atom_site_fract_x
  _atom_site_fract_y
  _atom_site_fract_z
  _atom_site_thermal_displace_type
  _atom_site_B_iso_or_equiv
  _atom_site_type_symbol
  Cu1      1.0000 0.05710  0.11329  0.78433  Biso   1.000  Cu
  Cu2      1.0000 0.05710  0.88671  0.28433  Biso   1.000  Cu
  Cu3      1.0000 0.55710  0.61329  0.78433  Biso   1.000  Cu
  Cu4      1.0000 0.55710  0.38671  0.28433  Biso   1.000  Cu
  O1       1.0000 0.88340  0.16897  0.67180  Biso   1.000  O
  O2       1.0000 0.88340  0.83103  0.17180  Biso   1.000  O
  O3       1.0000 0.38340  0.66897  0.67180  Biso   1.000  O
  O4       1.0000 0.38340  0.33103  0.17180  Biso   1.000  O
  O5       1.0000 0.18180  0.15507  0.53550  Biso   1.000  O
  O6       1.0000 0.18180  0.84493  0.03550  Biso   1.000  O
  O7       1.0000 0.68180  0.65507  0.53550  Biso   1.000  O
  O8       1.0000 0.68180  0.34493  0.03550  Biso   1.000  O
  O9       1.0000 0.29300  0.06175  0.88220  Biso   1.000  O
  O10      1.0000 0.29300  0.93825  0.38220  Biso   1.000  O
  O11      1.0000 0.79300  0.56175  0.88220  Biso   1.000  O
  O12      1.0000 0.79300  0.43825  0.38220  Biso   1.000  O
  O13      1.0000 0.69270  0.10482  0.89390  Biso   1.000  O
  O14      1.0000 0.69270  0.89518  0.39390  Biso   1.000  O
  O15      1.0000 0.19270  0.60482  0.89390  Biso   1.000  O
  O16      1.0000 0.19270  0.39518  0.39390  Biso   1.000  O
  N1       1.0000 0.70780  0.32430  0.38790  Biso   1.000  N
  N2       1.0000 0.70780  0.67570  0.88790  Biso   1.000  N
  N3       1.0000 0.20780  0.82430  0.38790  Biso   1.000  N
  N4       1.0000 0.20780  0.17570  0.88790  Biso   1.000  N
  N5       1.0000 0.89600  0.94571  0.17190  Biso   1.000  N
  N6       1.0000 0.89600  0.05429  0.67190  Biso   1.000  N
  N7       1.0000 0.39600  0.44571  0.17190  Biso   1.000  N
  N8       1.0000 0.39600  0.55429  0.67190  Biso   1.000  N
  C1       1.0000 0.61290  0.30885  0.49360  Biso   1.000  C
  C2       1.0000 0.61290  0.69115  0.99360  Biso   1.000  C
  C3       1.0000 0.11290  0.80885  0.49360  Biso   1.000  C
  C4       1.0000 0.11290  0.19115  0.99360  Biso   1.000  C
  H1       1.0000 0.48280  0.33030  0.52660  Biso   1.000  H
  H2       1.0000 0.48280  0.66970  0.02660  Biso   1.000  H
  H3       1.0000 0.98280  0.83030  0.52660  Biso   1.000  H
  H4       1.0000 0.98280  0.16970  0.02660  Biso   1.000  H
  C5       1.0000 0.69780  0.26293  0.55570  Biso   1.000  C
  C6       1.0000 0.69780  0.73707  0.05570  Biso   1.000  C
  C7       1.0000 0.19780  0.76293  0.55570  Biso   1.000  C
  C8       1.0000 0.19780  0.23707  0.05570  Biso   1.000  C
  H5       1.0000 0.62590  0.25330  0.62930  Biso   1.000  H
  H6       1.0000 0.62590  0.74670  0.12930  Biso   1.000  H
  H7       1.0000 0.12590  0.75330  0.62930  Biso   1.000  H
  H8       1.0000 0.12590  0.24670  0.12930  Biso   1.000  H
  C9       1.0000 0.89110  0.23089  0.50860  Biso   1.000  C
  C10      1.0000 0.89110  0.76911  0.00860  Biso   1.000  C
  C11      1.0000 0.39110  0.73089  0.50860  Biso   1.000  C
  C12      1.0000 0.39110  0.26911  0.00860  Biso   1.000  C
  C13      1.0000 0.99510  0.24749  0.40030  Biso   1.000  C
  C14      1.0000 0.99510  0.75251  0.90030  Biso   1.000  C
  C15      1.0000 0.49510  0.74749  0.40030  Biso   1.000  C
  C16      1.0000 0.49510  0.25251  0.90030  Biso   1.000  C
  H9       1.0000 0.12840  0.22720  0.36640  Biso   1.000  H
  H10      1.0000 0.12840  0.77280  0.86640  Biso   1.000  H
  H11      1.0000 0.62840  0.72720  0.36640  Biso   1.000  H
  H12      1.0000 0.62840  0.27280  0.86640  Biso   1.000  H
  C17      1.0000 0.89960  0.29404  0.34410  Biso   1.000  C
  C18      1.0000 0.89960  0.70596  0.84410  Biso   1.000  C
  C19      1.0000 0.39960  0.79404  0.34410  Biso   1.000  C
  C20      1.0000 0.39960  0.20596  0.84410  Biso   1.000  C
  H13      1.0000 0.97190  0.30520  0.27170  Biso   1.000  H
  H14      1.0000 0.97190  0.69480  0.77170  Biso   1.000  H
  H15      1.0000 0.47190  0.80520  0.27170  Biso   1.000  H
  H16      1.0000 0.47190  0.19480  0.77170  Biso   1.000  H
  C21      1.0000 0.99720  0.18016  0.57600  Biso   1.000  C
  C22      1.0000 0.99720  0.81984  0.07600  Biso   1.000  C
  C23      1.0000 0.49720  0.68016  0.57600  Biso   1.000  C
  C24      1.0000 0.49720  0.31984  0.07600  Biso   1.000  C
  C25      1.0000 0.66380  0.93687  0.09430  Biso   1.000  C
  C26      1.0000 0.66380  0.06313  0.59430  Biso   1.000  C
  C27      1.0000 0.16380  0.43687  0.09430  Biso   1.000  C
  C28      1.0000 0.16380  0.56313  0.59430  Biso   1.000  C
  H17      1.0000 0.58050  0.90320  0.09480  Biso   1.000  H
  H18      1.0000 0.58050  0.09680  0.59480  Biso   1.000  H
  H19      1.0000 0.08050  0.40320  0.09480  Biso   1.000  H
  H20      1.0000 0.08050  0.59680  0.59480  Biso   1.000  H
  C29      1.0000 0.54470  0.97529  0.01440  Biso   1.000  C
  C30      1.0000 0.54470  0.02471  0.51440  Biso   1.000  C
  C31      1.0000 0.04470  0.47529  0.01440  Biso   1.000  C
  C32      1.0000 0.04470  0.52471  0.51440  Biso   1.000  C
  H21      1.0000 0.38160  0.96780  0.96270  Biso   1.000  H
  H22      1.0000 0.38160  0.03220  0.46270  Biso   1.000  H
  H23      1.0000 0.88160  0.46780  0.96270  Biso   1.000  H
  H24      1.0000 0.88160  0.53220  0.46270  Biso   1.000  H
  C33      1.0000 0.66530  0.02512  0.01010  Biso   1.000  C
  C34      1.0000 0.66530  0.97488  0.51010  Biso   1.000  C
  C35      1.0000 0.16530  0.52512  0.01010  Biso   1.000  C
  C36      1.0000 0.16530  0.47488  0.51010  Biso   1.000  C
  C37      1.0000 0.90140  0.03456  0.09110  Biso   1.000  C
  C38      1.0000 0.90140  0.96544  0.59110  Biso   1.000  C
  C39      1.0000 0.40140  0.53456  0.09110  Biso   1.000  C
  C40      1.0000 0.40140  0.46544  0.59110  Biso   1.000  C
  H25      1.0000 0.98910  0.06780  0.09180  Biso   1.000  H
  H26      1.0000 0.98910  0.93220  0.59180  Biso   1.000  H
  H27      1.0000 0.48910  0.56780  0.09180  Biso   1.000  H
  H28      1.0000 0.48910  0.43220  0.59180  Biso   1.000  H
  C41      1.0000 0.00630  0.99457  0.17080  Biso   1.000  C
  C42      1.0000 0.00630  0.00543  0.67080  Biso   1.000  C
  C43      1.0000 0.50630  0.49457  0.17080  Biso   1.000  C
  C44      1.0000 0.50630  0.50543  0.67080  Biso   1.000  C
  H29      1.0000 0.16280  0.00190  0.22710  Biso   1.000  H
  H30      1.0000 0.16280  0.99810  0.72710  Biso   1.000  H
  H31      1.0000 0.66280  0.50190  0.22710  Biso   1.000  H
  H32      1.0000 0.66280  0.49810  0.72710  Biso   1.000  H
  C45      1.0000 0.54530  0.06785  0.92130  Biso   1.000  C
  C46      1.0000 0.54530  0.93215  0.42130  Biso   1.000  C
  C47      1.0000 0.04530  0.56785  0.92130  Biso   1.000  C
  C48      1.0000 0.04530  0.43215  0.42130  Biso   1.000  C
  O17      1.0000 0.73590  0.36860  0.77660  Biso   1.000  O
  O18      1.0000 0.73590  0.63140  0.27660  Biso   1.000  O
  O19      1.0000 0.23590  0.86860  0.77660  Biso   1.000  O
  O20      1.0000 0.23590  0.13140  0.27660  Biso   1.000  O
  H33      1.0000 0.70850  0.36570  0.86190  Biso   1.000  H
  H34      1.0000 0.70850  0.63430  0.36190  Biso   1.000  H
  H35      1.0000 0.20850  0.86570  0.86190  Biso   1.000  H
  H36      1.0000 0.20850  0.13430  0.36190  Biso   1.000  H
  C49      1.0000 0.02710  0.37380  0.76680  Biso   1.000  C
  C50      1.0000 0.02710  0.62620  0.26680  Biso   1.000  C
  C51      1.0000 0.52710  0.87380  0.76680  Biso   1.000  C
  C52      1.0000 0.52710  0.12620  0.26680  Biso   1.000  C
  H37      1.0000 0.10620  0.40010  0.82610  Biso   1.000  H
  H38      1.0000 0.10620  0.59990  0.32610  Biso   1.000  H
  H39      1.0000 0.60620  0.90010  0.82610  Biso   1.000  H
  H40      1.0000 0.60620  0.09990  0.32610  Biso   1.000  H
  H41      1.0000 0.05270  0.38480  0.68290  Biso   1.000  H
  H42      1.0000 0.05270  0.61520  0.18290  Biso   1.000  H
  H43      1.0000 0.55270  0.88480  0.68290  Biso   1.000  H
  H44      1.0000 0.55270  0.11520  0.18290  Biso   1.000  H
  H45      1.0000 0.11650  0.33980  0.78480  Biso   1.000  H
  H46      1.0000 0.11650  0.66020  0.28480  Biso   1.000  H
  H47      1.0000 0.61650  0.83980  0.78480  Biso   1.000  H
  H48      1.0000 0.61650  0.16020  0.28480  Biso   1.000  H
  O21      1.0000 0.75000  0.38170  0.79610  Biso   1.000  O
  O22      1.0000 0.75000  0.61830  0.29610  Biso   1.000  O
  O23      1.0000 0.25000  0.88170  0.79610  Biso   1.000  O
  O24      1.0000 0.25000  0.11830  0.29610  Biso   1.000  O
  H49      1.0000 0.73550  0.37650  0.88220  Biso   1.000  H
  H50      1.0000 0.73550  0.62350  0.38220  Biso   1.000  H
  H51      1.0000 0.23550  0.87650  0.88220  Biso   1.000  H
  H52      1.0000 0.23550  0.12350  0.38220  Biso   1.000  H
  C53      1.0000 0.01430  0.36150  0.76740  Biso   1.000  C
  C54      1.0000 0.01430  0.63850  0.26740  Biso   1.000  C
  C55      1.0000 0.51430  0.86150  0.76740  Biso   1.000  C
  C56      1.0000 0.51430  0.13850  0.26740  Biso   1.000  C
  H53      1.0000 0.16090  0.38130  0.81460  Biso   1.000  H
  H54      1.0000 0.16090  0.61870  0.31460  Biso   1.000  H
  H55      1.0000 0.66090  0.88130  0.81460  Biso   1.000  H
  H56      1.0000 0.66090  0.11870  0.31460  Biso   1.000  H
  H57      1.0000 0.02630  0.36560  0.67890  Biso   1.000  H
  H58      1.0000 0.02630  0.63440  0.17890  Biso   1.000  H
  H59      1.0000 0.52630  0.86560  0.67890  Biso   1.000  H
  H60      1.0000 0.52630  0.13440  0.17890  Biso   1.000  H
  H61      1.0000 0.03080  0.32420  0.78960  Biso   1.000  H
  H62      1.0000 0.03080  0.67580  0.28960  Biso   1.000  H
  H63      1.0000 0.53080  0.82420  0.78960  Biso   1.000  H
  H64      1.0000 0.53080  0.17580  0.28960  Biso   1.000  H
