data_image0
_cell_length_a       7.2475
_cell_length_b       15.4532
_cell_length_c       20.856
_cell_angle_alpha    90
_cell_angle_beta     90.057
_cell_angle_gamma    90

_symmetry_space_group_name_H-M    "P 1"
_symmetry_int_tables_number       1

loop_
  _symmetry_equiv_pos_as_xyz
  'x, y, z'

loop_
  _atom_site_label
  _atom_site_occupancy
  _atom_site_fract_x
  _atom_site_fract_y
  _atom_site_fract_z
  _atom_site_thermal_displace_type
  _atom_site_B_iso_or_equiv
  _atom_site_type_symbol
  W1       1.0000 0.79222  0.68239  0.30109  Biso   1.000  W
  W2       1.0000 0.70778  0.18239  0.19891  Biso   1.000  W
  W3       1.0000 0.20778  0.31761  0.69891  Biso   1.000  W
  W4       1.0000 0.29222  0.81761  0.80109  Biso   1.000  W
  Cu1      1.0000 0.50000  0.50000  0.50000  Biso   1.000  Cu
  Cu2      1.0000 0.00000  0.00000  0.00000  Biso   1.000  Cu
  Cu3      1.0000 0.24342  0.43738  0.23347  Biso   1.000  Cu
  Cu4      1.0000 0.25658  0.93738  0.26653  Biso   1.000  Cu
  Cu5      1.0000 0.75658  0.56262  0.76653  Biso   1.000  Cu
  Cu6      1.0000 0.74342  0.06262  0.73347  Biso   1.000  Cu
  O1       1.0000 0.61980  0.38630  0.50585  Biso   1.000  O
  O2       1.0000 0.88020  0.88630  0.99415  Biso   1.000  O
  O3       1.0000 0.38020  0.61370  0.49415  Biso   1.000  O
  O4       1.0000 0.11980  0.11370  0.00585  Biso   1.000  O
  O5       1.0000 0.44690  0.26090  0.44669  Biso   1.000  O
  O6       1.0000 0.05310  0.76090  0.05331  Biso   1.000  O
  O7       1.0000 0.55310  0.73910  0.55331  Biso   1.000  O
  O8       1.0000 0.94690  0.23910  0.94669  Biso   1.000  O
  N1       1.0000 0.45200  0.82230  0.28390  Biso   1.000  N
  N2       1.0000 0.04800  0.32230  0.21610  Biso   1.000  N
  N3       1.0000 0.54800  0.17770  0.71610  Biso   1.000  N
  N4       1.0000 0.95200  0.67770  0.78390  Biso   1.000  N
  N5       1.0000 0.73720  0.79180  0.43620  Biso   1.000  N
  N6       1.0000 0.76280  0.29180  0.06380  Biso   1.000  N
  N7       1.0000 0.26280  0.20820  0.56380  Biso   1.000  N
  N8       1.0000 0.23720  0.70820  0.93620  Biso   1.000  N
  N9       1.0000 0.17390  0.65550  0.38670  Biso   1.000  N
  N10      1.0000 0.32610  0.15550  0.11330  Biso   1.000  N
  N11      1.0000 0.82610  0.34450  0.61330  Biso   1.000  N
  N12      1.0000 0.67390  0.84450  0.88670  Biso   1.000  N
  N13      1.0000 0.04990  0.85420  0.27039  Biso   1.000  N
  N14      1.0000 0.45010  0.35420  0.22961  Biso   1.000  N
  N15      1.0000 0.95010  0.14580  0.72961  Biso   1.000  N
  N16      1.0000 0.54990  0.64580  0.77039  Biso   1.000  N
  N17      1.0000 0.20760  0.41900  0.33127  Biso   1.000  N
  N18      1.0000 0.29240  0.91900  0.16873  Biso   1.000  N
  N19      1.0000 0.79240  0.58100  0.66873  Biso   1.000  N
  N20      1.0000 0.70760  0.08100  0.83127  Biso   1.000  N
  N21      1.0000 0.03950  0.52300  0.24087  Biso   1.000  N
  N22      1.0000 0.46050  0.02300  0.25913  Biso   1.000  N
  N23      1.0000 0.96050  0.47700  0.75913  Biso   1.000  N
  N24      1.0000 0.53950  0.97700  0.74087  Biso   1.000  N
  N25      1.0000 0.77750  0.71330  0.14400  Biso   1.000  N
  N26      1.0000 0.72250  0.21330  0.35600  Biso   1.000  N
  N27      1.0000 0.22250  0.28670  0.85600  Biso   1.000  N
  N28      1.0000 0.27750  0.78670  0.64400  Biso   1.000  N
  N29      1.0000 0.30370  0.44890  0.43733  Biso   1.000  N
  N30      1.0000 0.19630  0.94890  0.06267  Biso   1.000  N
  N31      1.0000 0.69630  0.55110  0.56267  Biso   1.000  N
  N32      1.0000 0.80370  0.05110  0.93733  Biso   1.000  N
  N33      1.0000 0.25810  0.45840  0.13674  Biso   1.000  N
  N34      1.0000 0.24190  0.95840  0.36326  Biso   1.000  N
  N35      1.0000 0.74190  0.54160  0.86326  Biso   1.000  N
  N36      1.0000 0.75810  0.04160  0.63674  Biso   1.000  N
  N37      1.0000 0.45360  0.55480  0.25142  Biso   1.000  N
  N38      1.0000 0.04640  0.05480  0.24858  Biso   1.000  N
  N39      1.0000 0.54640  0.44520  0.74858  Biso   1.000  N
  N40      1.0000 0.95360  0.94520  0.75142  Biso   1.000  N
  N41      1.0000 0.26550  0.50730  0.88090  Biso   1.000  N
  N42      1.0000 0.23450  0.00730  0.61910  Biso   1.000  N
  N43      1.0000 0.73450  0.49270  0.11910  Biso   1.000  N
  N44      1.0000 0.76550  0.99270  0.38090  Biso   1.000  N
  N45      1.0000 0.68580  0.53820  0.41107  Biso   1.000  N
  N46      1.0000 0.81420  0.03820  0.08893  Biso   1.000  N
  N47      1.0000 0.31420  0.46180  0.58893  Biso   1.000  N
  N48      1.0000 0.18580  0.96180  0.91107  Biso   1.000  N
  C1       1.0000 0.75730  0.75470  0.38900  Biso   1.000  C
  C2       1.0000 0.74270  0.25470  0.11100  Biso   1.000  C
  C3       1.0000 0.24270  0.24530  0.61100  Biso   1.000  C
  C4       1.0000 0.25730  0.74530  0.88900  Biso   1.000  C
  C5       1.0000 0.56790  0.77180  0.28970  Biso   1.000  C
  C6       1.0000 0.93210  0.27180  0.21030  Biso   1.000  C
  C7       1.0000 0.43210  0.22820  0.71030  Biso   1.000  C
  C8       1.0000 0.06790  0.72820  0.78970  Biso   1.000  C
  C9       1.0000 0.95650  0.79500  0.28010  Biso   1.000  C
  C10      1.0000 0.54350  0.29500  0.21990  Biso   1.000  C
  C11      1.0000 0.04350  0.20500  0.71990  Biso   1.000  C
  C12      1.0000 0.45650  0.70500  0.78010  Biso   1.000  C
  C13      1.0000 0.72500  0.58690  0.37230  Biso   1.000  C
  C14      1.0000 0.77500  0.08690  0.12770  Biso   1.000  C
  C15      1.0000 0.27500  0.41310  0.62770  Biso   1.000  C
  C16      1.0000 0.22500  0.91310  0.87230  Biso   1.000  C
  C17      1.0000 0.94830  0.57800  0.25950  Biso   1.000  C
  C18      1.0000 0.55170  0.07800  0.24050  Biso   1.000  C
  C19      1.0000 0.05170  0.42200  0.74050  Biso   1.000  C
  C20      1.0000 0.44830  0.92200  0.75950  Biso   1.000  C
  C21      1.0000 0.56940  0.60080  0.26670  Biso   1.000  C
  C22      1.0000 0.93060  0.10080  0.23330  Biso   1.000  C
  C23      1.0000 0.43060  0.39920  0.73330  Biso   1.000  C
  C24      1.0000 0.06940  0.89920  0.76670  Biso   1.000  C
  C25      1.0000 0.78010  0.70330  0.19820  Biso   1.000  C
  C26      1.0000 0.71990  0.20330  0.30180  Biso   1.000  C
  C27      1.0000 0.21990  0.29670  0.80180  Biso   1.000  C
  C28      1.0000 0.28010  0.79670  0.69820  Biso   1.000  C
  C29      1.0000 0.04450  0.66560  0.35620  Biso   1.000  C
  C30      1.0000 0.45550  0.16560  0.14380  Biso   1.000  C
  C31      1.0000 0.95550  0.33440  0.64380  Biso   1.000  C
  C32      1.0000 0.54450  0.83440  0.85620  Biso   1.000  C
  C33      1.0000 0.04840  0.38700  0.35370  Biso   1.000  C
  C34      1.0000 0.45160  0.88700  0.14630  Biso   1.000  C
  C35      1.0000 0.95160  0.61300  0.64630  Biso   1.000  C
  C36      1.0000 0.54840  0.11300  0.85370  Biso   1.000  C
  C37      1.0000 0.01140  0.38410  0.41860  Biso   1.000  C
  C38      1.0000 0.48860  0.88410  0.08140  Biso   1.000  C
  C39      1.0000 0.98860  0.61590  0.58140  Biso   1.000  C
  C40      1.0000 0.51140  0.11590  0.91860  Biso   1.000  C
  C41      1.0000 0.32990  0.44750  0.37380  Biso   1.000  C
  C42      1.0000 0.17010  0.94750  0.12620  Biso   1.000  C
  C43      1.0000 0.67010  0.55250  0.62620  Biso   1.000  C
  C44      1.0000 0.82990  0.05250  0.87380  Biso   1.000  C
  C45      1.0000 0.26230  0.53900  0.11430  Biso   1.000  C
  C46      1.0000 0.23770  0.03900  0.38570  Biso   1.000  C
  C47      1.0000 0.73770  0.46100  0.88570  Biso   1.000  C
  C48      1.0000 0.76230  0.96100  0.61430  Biso   1.000  C
  C49      1.0000 0.26060  0.55850  0.05050  Biso   1.000  C
  C50      1.0000 0.23940  0.05850  0.44950  Biso   1.000  C
  C51      1.0000 0.73940  0.44150  0.94950  Biso   1.000  C
  C52      1.0000 0.76060  0.94150  0.55050  Biso   1.000  C
  C53      1.0000 0.25650  0.49020  0.00790  Biso   1.000  C
  C54      1.0000 0.24350  0.99020  0.49210  Biso   1.000  C
  C55      1.0000 0.74350  0.50980  0.99210  Biso   1.000  C
  C56      1.0000 0.75650  0.00980  0.50790  Biso   1.000  C
  C57      1.0000 0.25490  0.40650  0.02950  Biso   1.000  C
  C58      1.0000 0.24510  0.90650  0.47050  Biso   1.000  C
  C59      1.0000 0.74510  0.59350  0.97050  Biso   1.000  C
  C60      1.0000 0.75490  0.09350  0.52950  Biso   1.000  C
  C61      1.0000 0.25670  0.39380  0.09530  Biso   1.000  C
  C62      1.0000 0.24330  0.89380  0.40470  Biso   1.000  C
  C63      1.0000 0.74330  0.60620  0.90470  Biso   1.000  C
  C64      1.0000 0.75670  0.10620  0.59530  Biso   1.000  C
  C65      1.0000 0.14430  0.41670  0.45960  Biso   1.000  C
  C66      1.0000 0.35570  0.91670  0.04040  Biso   1.000  C
  C67      1.0000 0.85570  0.58330  0.54040  Biso   1.000  C
  C68      1.0000 0.64430  0.08330  0.95960  Biso   1.000  C
  C69      1.0000 0.26480  0.49500  0.93780  Biso   1.000  C
  C70      1.0000 0.23520  0.99500  0.56220  Biso   1.000  C
  C71      1.0000 0.73520  0.50500  0.06220  Biso   1.000  C
  C72      1.0000 0.76480  0.00500  0.43780  Biso   1.000  C
  H1       1.0000 0.95850  0.36570  0.32390  Biso   1.000  H
  H2       1.0000 0.54150  0.86570  0.17610  Biso   1.000  H
  H3       1.0000 0.04150  0.63430  0.67610  Biso   1.000  H
  H4       1.0000 0.45850  0.13430  0.82390  Biso   1.000  H
  H5       1.0000 0.89830  0.36050  0.43460  Biso   1.000  H
  H6       1.0000 0.60170  0.86050  0.06540  Biso   1.000  H
  H7       1.0000 0.10170  0.63950  0.56540  Biso   1.000  H
  H8       1.0000 0.39830  0.13950  0.93460  Biso   1.000  H
  H9       1.0000 0.44510  0.46830  0.35790  Biso   1.000  H
  H10      1.0000 0.05490  0.96830  0.14210  Biso   1.000  H
  H11      1.0000 0.55490  0.53170  0.64210  Biso   1.000  H
  H12      1.0000 0.94510  0.03170  0.85790  Biso   1.000  H
  H13      1.0000 0.26640  0.58590  0.14490  Biso   1.000  H
  H14      1.0000 0.23360  0.08590  0.35510  Biso   1.000  H
  H15      1.0000 0.73360  0.41410  0.85510  Biso   1.000  H
  H16      1.0000 0.76640  0.91410  0.64490  Biso   1.000  H
  H17      1.0000 0.26180  0.61780  0.03580  Biso   1.000  H
  H18      1.0000 0.23820  0.11780  0.46420  Biso   1.000  H
  H19      1.0000 0.73820  0.38220  0.96420  Biso   1.000  H
  H20      1.0000 0.76180  0.88220  0.53580  Biso   1.000  H
  H21      1.0000 0.25210  0.35840  0.00000  Biso   1.000  H
  H22      1.0000 0.24790  0.85840  0.50000  Biso   1.000  H
  H23      1.0000 0.74790  0.64160  0.00000  Biso   1.000  H
  H24      1.0000 0.75210  0.14160  0.50000  Biso   1.000  H
  H25      1.0000 0.25670  0.33550  0.11170  Biso   1.000  H
  H26      1.0000 0.24330  0.83550  0.38830  Biso   1.000  H
  H27      1.0000 0.74330  0.66450  0.88830  Biso   1.000  H
  H28      1.0000 0.75670  0.16450  0.61170  Biso   1.000  H
  H29      1.0000 0.12220  0.41650  0.50500  Biso   1.000  H
  H30      1.0000 0.37780  0.91650  0.99500  Biso   1.000  H
  H31      1.0000 0.87780  0.58350  0.49500  Biso   1.000  H
  H32      1.0000 0.62220  0.08350  0.00500  Biso   1.000  H
