data_image0
_cell_length_a       10.6173
_cell_length_b       11.8959
_cell_length_c       23.9307
_cell_angle_alpha    92.956
_cell_angle_beta     100.62
_cell_angle_gamma    108.193

_symmetry_space_group_name_H-M    "P 1"
_symmetry_int_tables_number       1

loop_
  _symmetry_equiv_pos_as_xyz
  'x, y, z'

loop_
  _atom_site_label
  _atom_site_occupancy
  _atom_site_fract_x
  _atom_site_fract_y
  _atom_site_fract_z
  _atom_site_thermal_displace_type
  _atom_site_B_iso_or_equiv
  _atom_site_type_symbol
  Cu1      1.0000 0.02271  0.20949  0.24750  Biso   1.000  Cu
  Cu2      1.0000 0.97729  0.79051  0.75250  Biso   1.000  Cu
  Br1      1.0000 0.18395  0.07533  0.23491  Biso   1.000  Br
  Br2      1.0000 0.81605  0.92467  0.76509  Biso   1.000  Br
  S1       1.0000 0.47200  0.61670  0.44413  Biso   1.000  S
  S2       1.0000 0.52800  0.38330  0.55587  Biso   1.000  S
  S3       1.0000 0.79130  0.91850  0.45356  Biso   1.000  S
  S4       1.0000 0.20870  0.08150  0.54644  Biso   1.000  S
  S5       1.0000 0.20260  0.56090  0.05145  Biso   1.000  S
  S6       1.0000 0.79740  0.43910  0.94855  Biso   1.000  S
  S7       1.0000 0.51800  0.86790  0.04591  Biso   1.000  S
  S8       1.0000 0.48200  0.13210  0.95409  Biso   1.000  S
  N1       1.0000 0.16140  0.33760  0.30800  Biso   1.000  N
  N2       1.0000 0.83860  0.66240  0.69200  Biso   1.000  N
  N3       1.0000 0.94640  0.12000  0.31050  Biso   1.000  N
  N4       1.0000 0.05360  0.88000  0.68950  Biso   1.000  N
  N5       1.0000 0.07320  0.32150  0.18730  Biso   1.000  N
  N6       1.0000 0.92680  0.67850  0.81270  Biso   1.000  N
  N7       1.0000 0.85820  0.10210  0.18750  Biso   1.000  N
  N8       1.0000 0.14180  0.89790  0.81250  Biso   1.000  N
  C1       1.0000 0.12870  0.42590  0.33250  Biso   1.000  C
  C2       1.0000 0.87130  0.57410  0.66750  Biso   1.000  C
  H1       1.0000 0.04010  0.42610  0.32160  Biso   1.000  H
  H2       1.0000 0.95990  0.57390  0.67840  Biso   1.000  H
  C3       1.0000 0.21490  0.51310  0.37120  Biso   1.000  C
  C4       1.0000 0.78510  0.48690  0.62880  Biso   1.000  C
  H3       1.0000 0.18670  0.57290  0.38590  Biso   1.000  H
  H4       1.0000 0.81330  0.42710  0.61410  Biso   1.000  H
  C5       1.0000 0.34990  0.51430  0.39000  Biso   1.000  C
  C6       1.0000 0.65010  0.48570  0.61000  Biso   1.000  C
  C7       1.0000 0.38420  0.42820  0.36350  Biso   1.000  C
  C8       1.0000 0.61580  0.57180  0.63650  Biso   1.000  C
  H5       1.0000 0.47310  0.42790  0.37270  Biso   1.000  H
  H6       1.0000 0.52690  0.57210  0.62730  Biso   1.000  H
  C9       1.0000 0.29090  0.34180  0.32370  Biso   1.000  C
  C10      1.0000 0.70910  0.65820  0.67630  Biso   1.000  C
  H7       1.0000 0.31800  0.28360  0.30680  Biso   1.000  H
  H8       1.0000 0.68200  0.71640  0.69320  Biso   1.000  H
  C11      1.0000 0.02170  0.07580  0.34850  Biso   1.000  C
  C12      1.0000 0.97830  0.92420  0.65150  Biso   1.000  C
  H9       1.0000 0.11120  0.08800  0.34590  Biso   1.000  H
  H10      1.0000 0.88880  0.91200  0.65410  Biso   1.000  H
  C13      1.0000 0.97510  0.01430  0.39070  Biso   1.000  C
  C14      1.0000 0.02490  0.98570  0.60930  Biso   1.000  C
  H11      1.0000 0.03260  0.98590  0.41590  Biso   1.000  H
  H12      1.0000 0.96740  0.01410  0.58410  Biso   1.000  H
  C15      1.0000 0.84410  0.99330  0.39660  Biso   1.000  C
  C16      1.0000 0.15590  0.00670  0.60340  Biso   1.000  C
  C17      1.0000 0.76440  0.03820  0.35800  Biso   1.000  C
  C18      1.0000 0.23560  0.96180  0.64200  Biso   1.000  C
  H13      1.0000 0.67510  0.02760  0.36050  Biso   1.000  H
  H14      1.0000 0.32490  0.97240  0.63950  Biso   1.000  H
  C19      1.0000 0.81830  0.09910  0.31560  Biso   1.000  C
  C20      1.0000 0.18170  0.90090  0.68440  Biso   1.000  C
  H15      1.0000 0.76240  0.12710  0.28940  Biso   1.000  H
  H16      1.0000 0.23760  0.87290  0.71060  Biso   1.000  H
  C21      1.0000 0.48350  0.80590  0.51400  Biso   1.000  C
  C22      1.0000 0.51650  0.19410  0.48600  Biso   1.000  C
  C23      1.0000 0.45260  0.78080  0.56710  Biso   1.000  C
  C24      1.0000 0.54740  0.21920  0.43290  Biso   1.000  C
  H17      1.0000 0.37890  0.71430  0.56850  Biso   1.000  H
  H18      1.0000 0.62110  0.28570  0.43150  Biso   1.000  H
  C25      1.0000 0.52580  0.84970  0.61730  Biso   1.000  C
  C26      1.0000 0.47420  0.15030  0.38270  Biso   1.000  C
  H19      1.0000 0.50500  0.82910  0.65230  Biso   1.000  H
  H20      1.0000 0.49500  0.17090  0.34770  Biso   1.000  H
  C27      1.0000 0.63270  0.95170  0.61430  Biso   1.000  C
  C28      1.0000 0.36730  0.04830  0.38570  Biso   1.000  C
  H21      1.0000 0.68210  0.00140  0.64770  Biso   1.000  H
  H22      1.0000 0.31790  0.99860  0.35230  Biso   1.000  H
  C29      1.0000 0.66640  0.98000  0.56280  Biso   1.000  C
  C30      1.0000 0.33360  0.02000  0.43720  Biso   1.000  C
  H23      1.0000 0.73880  0.04780  0.56180  Biso   1.000  H
  H24      1.0000 0.26120  0.95220  0.43820  Biso   1.000  H
  C31      1.0000 0.59160  0.90690  0.51160  Biso   1.000  C
  C32      1.0000 0.40840  0.09310  0.48840  Biso   1.000  C
  C33      1.0000 0.39500  0.72640  0.46100  Biso   1.000  C
  C34      1.0000 0.60500  0.27360  0.53900  Biso   1.000  C
  H25      1.0000 0.38680  0.77330  0.42940  Biso   1.000  H
  H26      1.0000 0.61320  0.22670  0.57060  Biso   1.000  H
  H27      1.0000 0.30500  0.68720  0.46770  Biso   1.000  H
  H28      1.0000 0.69500  0.31280  0.53230  Biso   1.000  H
  C35      1.0000 0.63110  0.94180  0.45620  Biso   1.000  C
  C36      1.0000 0.36890  0.05820  0.54380  Biso   1.000  C
  H29      1.0000 0.64020  0.02490  0.45340  Biso   1.000  H
  H30      1.0000 0.35980  0.97510  0.54660  Biso   1.000  H
  H31      1.0000 0.56130  0.89410  0.42420  Biso   1.000  H
  H32      1.0000 0.43870  0.10590  0.57580  Biso   1.000  H
  C37      1.0000 0.03470  0.41370  0.17770  Biso   1.000  C
  C38      1.0000 0.96530  0.58630  0.82230  Biso   1.000  C
  H33      1.0000 0.97900  0.43120  0.20020  Biso   1.000  H
  H34      1.0000 0.02100  0.56880  0.79980  Biso   1.000  H
  C39      1.0000 0.07110  0.48750  0.13640  Biso   1.000  C
  C40      1.0000 0.92890  0.51250  0.86360  Biso   1.000  C
  H35      1.0000 0.03810  0.55080  0.13090  Biso   1.000  H
  H36      1.0000 0.96190  0.44920  0.86910  Biso   1.000  H
  C41      1.0000 0.15690  0.46610  0.10340  Biso   1.000  C
  C42      1.0000 0.84310  0.53390  0.89660  Biso   1.000  C
  C43      1.0000 0.20070  0.37050  0.11490  Biso   1.000  C
  C44      1.0000 0.79930  0.62950  0.88510  Biso   1.000  C
  H37      1.0000 0.26040  0.35330  0.09450  Biso   1.000  H
  H38      1.0000 0.73960  0.64670  0.90550  Biso   1.000  H
  C45      1.0000 0.15870  0.30220  0.15490  Biso   1.000  C
  C46      1.0000 0.84130  0.69780  0.84510  Biso   1.000  C
  H39      1.0000 0.18960  0.23790  0.16090  Biso   1.000  H
  H40      1.0000 0.81040  0.76210  0.83910  Biso   1.000  H
  C47      1.0000 0.84520  0.98840  0.17390  Biso   1.000  C
  C48      1.0000 0.15480  0.01160  0.82610  Biso   1.000  C
  H41      1.0000 0.91060  0.95960  0.19360  Biso   1.000  H
  H42      1.0000 0.08940  0.04040  0.80640  Biso   1.000  H
  C49      1.0000 0.74470  0.91210  0.13380  Biso   1.000  C
  C50      1.0000 0.25530  0.08790  0.86620  Biso   1.000  C
  H43      1.0000 0.74100  0.83330  0.12740  Biso   1.000  H
  H44      1.0000 0.25900  0.16670  0.87260  Biso   1.000  H
  C51      1.0000 0.64930  0.95040  0.10290  Biso   1.000  C
  C52      1.0000 0.35070  0.04960  0.89710  Biso   1.000  C
  C53      1.0000 0.65750  0.06660  0.11670  Biso   1.000  C
  C54      1.0000 0.34250  0.93340  0.88330  Biso   1.000  C
  H45      1.0000 0.59150  0.09570  0.09780  Biso   1.000  H
  H46      1.0000 0.40850  0.90430  0.90220  Biso   1.000  H
  C55      1.0000 0.76280  0.13980  0.15820  Biso   1.000  C
  C56      1.0000 0.23720  0.86020  0.84180  Biso   1.000  C
  H47      1.0000 0.76760  0.21860  0.16620  Biso   1.000  H
  H48      1.0000 0.23240  0.78140  0.83380  Biso   1.000  H
  C57      1.0000 0.36020  0.56000  0.97290  Biso   1.000  C
  C58      1.0000 0.63980  0.44000  0.02710  Biso   1.000  C
  C59      1.0000 0.29210  0.50270  0.91800  Biso   1.000  C
  C60      1.0000 0.70790  0.49730  0.08200  Biso   1.000  C
  H49      1.0000 0.22010  0.43190  0.91400  Biso   1.000  H
  H50      1.0000 0.77990  0.56810  0.08600  Biso   1.000  H
  C61      1.0000 0.32950  0.54900  0.87060  Biso   1.000  C
  C62      1.0000 0.67050  0.45100  0.12940  Biso   1.000  C
  H51      1.0000 0.28170  0.51030  0.83460  Biso   1.000  H
  H52      1.0000 0.71830  0.48970  0.16540  Biso   1.000  H
  C63      1.0000 0.43530  0.65060  0.87490  Biso   1.000  C
  C64      1.0000 0.56470  0.34940  0.12510  Biso   1.000  C
  H53      1.0000 0.46020  0.68160  0.84210  Biso   1.000  H
  H54      1.0000 0.53980  0.31840  0.15790  Biso   1.000  H
  C65      1.0000 0.50590  0.70770  0.92860  Biso   1.000  C
  C66      1.0000 0.49410  0.29230  0.07140  Biso   1.000  C
  H55      1.0000 0.57940  0.77690  0.93140  Biso   1.000  H
  H56      1.0000 0.42060  0.22310  0.06860  Biso   1.000  H
  C67      1.0000 0.47090  0.66520  0.97840  Biso   1.000  C
  C68      1.0000 0.52910  0.33480  0.02160  Biso   1.000  C
  C69      1.0000 0.31830  0.49830  0.02300  Biso   1.000  C
  C70      1.0000 0.68170  0.50170  0.97700  Biso   1.000  C
  H57      1.0000 0.39800  0.50820  0.05260  Biso   1.000  H
  H58      1.0000 0.60200  0.49180  0.94740  Biso   1.000  H
  H59      1.0000 0.27370  0.41380  0.01100  Biso   1.000  H
  H60      1.0000 0.72630  0.58620  0.98900  Biso   1.000  H
  C71      1.0000 0.55460  0.73080  0.03490  Biso   1.000  C
  C72      1.0000 0.44540  0.26920  0.96510  Biso   1.000  C
  H61      1.0000 0.65030  0.74820  0.03500  Biso   1.000  H
  H62      1.0000 0.34970  0.25180  0.96500  Biso   1.000  H
  H63      1.0000 0.53300  0.68240  0.06540  Biso   1.000  H
  H64      1.0000 0.46700  0.31760  0.93460  Biso   1.000  H
  Cl1      1.0000 0.73820  0.39690  0.29661  Biso   1.000  Cl
  Cl2      1.0000 0.26180  0.60310  0.70339  Biso   1.000  Cl
  O1       1.0000 0.80490  0.35440  0.26090  Biso   1.000  O
  O2       1.0000 0.19510  0.64560  0.73910  Biso   1.000  O
  O3       1.0000 0.77880  0.37550  0.35230  Biso   1.000  O
  O4       1.0000 0.22120  0.62450  0.64770  Biso   1.000  O
  O5       1.0000 0.60690  0.34300  0.27870  Biso   1.000  O
  O6       1.0000 0.39310  0.65700  0.72130  Biso   1.000  O
  O7       1.0000 0.77000  0.51070  0.28910  Biso   1.000  O
  O8       1.0000 0.23000  0.48930  0.71090  Biso   1.000  O
  O9       1.0000 0.09030  0.74450  0.42850  Biso   1.000  O
  O10      1.0000 0.90970  0.25550  0.57150  Biso   1.000  O
  N9       1.0000 0.94790  0.66030  0.47920  Biso   1.000  N
  N10      1.0000 0.05210  0.33970  0.52080  Biso   1.000  N
  C73      1.0000 0.80500  0.59500  0.48140  Biso   1.000  C
  C74      1.0000 0.19500  0.40500  0.51860  Biso   1.000  C
  C75      1.0000 0.04200  0.69700  0.53550  Biso   1.000  C
  C76      1.0000 0.95800  0.30300  0.46450  Biso   1.000  C
  C77      1.0000 0.98700  0.69320  0.43570  Biso   1.000  C
  C78      1.0000 0.01300  0.30680  0.56430  Biso   1.000  C
  N11      1.0000 0.93300  0.71890  0.18250  Biso   1.000  N
  N12      1.0000 0.06700  0.28110  0.81750  Biso   1.000  N
  C79      1.0000 0.99200  0.73100  0.23020  Biso   1.000  C
  C80      1.0000 0.00800  0.26900  0.76980  Biso   1.000  C
  C81      1.0000 0.08100  0.75300  0.29050  Biso   1.000  C
  C82      1.0000 0.91900  0.24700  0.70950  Biso   1.000  C
  O11      1.0000 0.36300  0.87300  0.23600  Biso   1.000  O
  O12      1.0000 0.63700  0.12700  0.76400  Biso   1.000  O
  N13      1.0000 0.47300  0.75000  0.25000  Biso   1.000  N
  N14      1.0000 0.52700  0.25000  0.75000  Biso   1.000  N
  C83      1.0000 0.41200  0.80100  0.21700  Biso   1.000  C
  C84      1.0000 0.58800  0.19900  0.78300  Biso   1.000  C
  C85      1.0000 0.52200  0.66200  0.20800  Biso   1.000  C
  C86      1.0000 0.47800  0.33800  0.79200  Biso   1.000  C
  C87      1.0000 0.49700  0.76400  0.31200  Biso   1.000  C
  C88      1.0000 0.50300  0.23600  0.68800  Biso   1.000  C
  O13      1.0000 0.87370  0.80020  0.01880  Biso   1.000  O
  O14      1.0000 0.12630  0.19980  0.98120  Biso   1.000  O
  C89      1.0000 0.11600  0.85800  0.98590  Biso   1.000  C
  C90      1.0000 0.88400  0.14200  0.01410  Biso   1.000  C
  C91      1.0000 0.98900  0.84400  0.05510  Biso   1.000  C
  C92      1.0000 0.01100  0.15600  0.94490  Biso   1.000  C
  C93      1.0000 0.19400  0.84700  0.09420  Biso   1.000  C
  C94      1.0000 0.80600  0.15300  0.90580  Biso   1.000  C
  N15      1.0000 0.07400  0.84900  0.04220  Biso   1.000  N
  N16      1.0000 0.92600  0.15100  0.95780  Biso   1.000  N
