data_image0
_cell_length_a       13.8856
_cell_length_b       22.078
_cell_length_c       19.846
_cell_angle_alpha    90
_cell_angle_beta     107.152
_cell_angle_gamma    90

_symmetry_space_group_name_H-M    "P 1"
_symmetry_int_tables_number       1

loop_
  _symmetry_equiv_pos_as_xyz
  'x, y, z'

loop_
  _atom_site_label
  _atom_site_occupancy
  _atom_site_fract_x
  _atom_site_fract_y
  _atom_site_fract_z
  _atom_site_thermal_displace_type
  _atom_site_B_iso_or_equiv
  _atom_site_type_symbol
  Ho1      1.0000 0.84323  0.78353  0.67023  Biso   1.000  Ho
  Ho2      1.0000 0.15677  0.28353  0.82977  Biso   1.000  Ho
  Ho3      1.0000 0.15677  0.21647  0.32977  Biso   1.000  Ho
  Ho4      1.0000 0.84323  0.71647  0.17023  Biso   1.000  Ho
  Ho5      1.0000 0.02447  0.66476  0.59452  Biso   1.000  Ho
  Ho6      1.0000 0.97553  0.16476  0.90548  Biso   1.000  Ho
  Ho7      1.0000 0.97553  0.33524  0.40548  Biso   1.000  Ho
  Ho8      1.0000 0.02447  0.83524  0.09452  Biso   1.000  Ho
  Cu1      1.0000 0.36154  0.68897  0.65391  Biso   1.000  Cu
  Cu2      1.0000 0.63846  0.18897  0.84609  Biso   1.000  Cu
  Cu3      1.0000 0.63846  0.31103  0.34609  Biso   1.000  Cu
  Cu4      1.0000 0.36154  0.81103  0.15391  Biso   1.000  Cu
  Cu5      1.0000 0.51325  0.74316  0.62360  Biso   1.000  Cu
  Cu6      1.0000 0.48675  0.24316  0.87640  Biso   1.000  Cu
  Cu7      1.0000 0.48675  0.25684  0.37640  Biso   1.000  Cu
  Cu8      1.0000 0.51325  0.75684  0.12360  Biso   1.000  Cu
  O1       1.0000 0.30360  0.77154  0.64194  Biso   1.000  O
  O2       1.0000 0.69640  0.27154  0.85806  Biso   1.000  O
  O3       1.0000 0.69640  0.22846  0.35806  Biso   1.000  O
  O4       1.0000 0.30360  0.72846  0.14194  Biso   1.000  O
  O5       1.0000 0.43040  0.81524  0.61285  Biso   1.000  O
  O6       1.0000 0.56960  0.31524  0.88715  Biso   1.000  O
  O7       1.0000 0.56960  0.18476  0.38715  Biso   1.000  O
  O8       1.0000 0.43040  0.68476  0.11285  Biso   1.000  O
  C1       1.0000 0.34850  0.81720  0.62600  Biso   1.000  C
  C2       1.0000 0.65150  0.31720  0.87400  Biso   1.000  C
  C3       1.0000 0.65150  0.18280  0.37400  Biso   1.000  C
  C4       1.0000 0.34850  0.68280  0.12600  Biso   1.000  C
  C5       1.0000 0.29760  0.87600  0.62330  Biso   1.000  C
  C6       1.0000 0.70240  0.37600  0.87670  Biso   1.000  C
  C7       1.0000 0.70240  0.12400  0.37670  Biso   1.000  C
  C8       1.0000 0.29760  0.62400  0.12330  Biso   1.000  C
  H1       1.0000 0.23370  0.87680  0.62940  Biso   1.000  H
  H2       1.0000 0.76630  0.37680  0.87060  Biso   1.000  H
  H3       1.0000 0.76630  0.12320  0.37060  Biso   1.000  H
  H4       1.0000 0.23370  0.62320  0.12940  Biso   1.000  H
  C9       1.0000 0.33770  0.92690  0.61280  Biso   1.000  C
  C10      1.0000 0.66230  0.42690  0.88720  Biso   1.000  C
  C11      1.0000 0.66230  0.07310  0.38720  Biso   1.000  C
  C12      1.0000 0.33770  0.57310  0.11280  Biso   1.000  C
  H5       1.0000 0.40070  0.92540  0.60530  Biso   1.000  H
  H6       1.0000 0.59930  0.42540  0.89470  Biso   1.000  H
  H7       1.0000 0.59930  0.07460  0.39470  Biso   1.000  H
  H8       1.0000 0.40070  0.57460  0.10530  Biso   1.000  H
  C13      1.0000 0.29000  0.98790  0.61200  Biso   1.000  C
  C14      1.0000 0.71000  0.48790  0.88800  Biso   1.000  C
  C15      1.0000 0.71000  0.01210  0.38800  Biso   1.000  C
  C16      1.0000 0.29000  0.51210  0.11200  Biso   1.000  C
  H9       1.0000 0.22430  0.98310  0.61800  Biso   1.000  H
  H10      1.0000 0.77570  0.48310  0.88200  Biso   1.000  H
  H11      1.0000 0.77570  0.01690  0.38200  Biso   1.000  H
  H12      1.0000 0.22430  0.51690  0.11800  Biso   1.000  H
  H13      1.0000 0.28400  0.00750  0.56780  Biso   1.000  H
  H14      1.0000 0.71600  0.50750  0.93220  Biso   1.000  H
  H15      1.0000 0.71600  0.99250  0.43220  Biso   1.000  H
  H16      1.0000 0.28400  0.49250  0.06780  Biso   1.000  H
  H17      1.0000 0.33120  0.01220  0.64970  Biso   1.000  H
  H18      1.0000 0.66880  0.51220  0.85030  Biso   1.000  H
  H19      1.0000 0.66880  0.98780  0.35030  Biso   1.000  H
  H20      1.0000 0.33120  0.48780  0.14970  Biso   1.000  H
  O9       1.0000 0.43450  0.70699  0.75125  Biso   1.000  O
  O10      1.0000 0.56550  0.20699  0.74875  Biso   1.000  O
  O11      1.0000 0.56550  0.29301  0.24875  Biso   1.000  O
  O12      1.0000 0.43450  0.79301  0.25125  Biso   1.000  O
  O13      1.0000 0.55700  0.75996  0.72663  Biso   1.000  O
  O14      1.0000 0.44300  0.25996  0.77337  Biso   1.000  O
  O15      1.0000 0.44300  0.24004  0.27337  Biso   1.000  O
  O16      1.0000 0.55700  0.74004  0.22663  Biso   1.000  O
  C17      1.0000 0.51090  0.73960  0.76860  Biso   1.000  C
  C18      1.0000 0.48910  0.23960  0.73140  Biso   1.000  C
  C19      1.0000 0.48910  0.26040  0.23140  Biso   1.000  C
  C20      1.0000 0.51090  0.76040  0.26860  Biso   1.000  C
  C21      1.0000 0.54940  0.75650  0.84360  Biso   1.000  C
  C22      1.0000 0.45060  0.25650  0.65640  Biso   1.000  C
  C23      1.0000 0.45060  0.24350  0.15640  Biso   1.000  C
  C24      1.0000 0.54940  0.74350  0.34360  Biso   1.000  C
  H21      1.0000 0.54060  0.72870  0.87660  Biso   1.000  H
  H22      1.0000 0.45940  0.22870  0.62340  Biso   1.000  H
  H23      1.0000 0.45940  0.27130  0.12340  Biso   1.000  H
  H24      1.0000 0.54060  0.77130  0.37660  Biso   1.000  H
  C25      1.0000 0.59430  0.80650  0.86700  Biso   1.000  C
  C26      1.0000 0.40570  0.30650  0.63300  Biso   1.000  C
  C27      1.0000 0.40570  0.19350  0.13300  Biso   1.000  C
  C28      1.0000 0.59430  0.69350  0.36700  Biso   1.000  C
  H25      1.0000 0.61020  0.83200  0.83460  Biso   1.000  H
  H26      1.0000 0.38980  0.33200  0.66540  Biso   1.000  H
  H27      1.0000 0.38980  0.16800  0.16540  Biso   1.000  H
  H28      1.0000 0.61020  0.66800  0.33460  Biso   1.000  H
  C29      1.0000 0.62320  0.82730  0.94300  Biso   1.000  C
  C30      1.0000 0.37680  0.32730  0.55700  Biso   1.000  C
  C31      1.0000 0.37680  0.17270  0.05700  Biso   1.000  C
  C32      1.0000 0.62320  0.67270  0.44300  Biso   1.000  C
  H29      1.0000 0.62120  0.79340  0.97290  Biso   1.000  H
  H30      1.0000 0.37880  0.29340  0.52710  Biso   1.000  H
  H31      1.0000 0.37880  0.20660  0.02710  Biso   1.000  H
  H32      1.0000 0.62120  0.70660  0.47290  Biso   1.000  H
  H33      1.0000 0.57670  0.85770  0.94840  Biso   1.000  H
  H34      1.0000 0.42330  0.35770  0.55160  Biso   1.000  H
  H35      1.0000 0.42330  0.14230  0.05160  Biso   1.000  H
  H36      1.0000 0.57670  0.64230  0.44840  Biso   1.000  H
  H37      1.0000 0.69010  0.84380  0.95590  Biso   1.000  H
  H38      1.0000 0.30990  0.34380  0.54410  Biso   1.000  H
  H39      1.0000 0.30990  0.15620  0.04410  Biso   1.000  H
  H40      1.0000 0.69010  0.65620  0.45590  Biso   1.000  H
  O17      1.0000 0.44430  0.61669  0.66010  Biso   1.000  O
  O18      1.0000 0.55570  0.11669  0.83990  Biso   1.000  O
  O19      1.0000 0.55570  0.38331  0.33990  Biso   1.000  O
  O20      1.0000 0.44430  0.88331  0.16010  Biso   1.000  O
  O21      1.0000 0.57780  0.66311  0.64296  Biso   1.000  O
  O22      1.0000 0.42220  0.16311  0.85704  Biso   1.000  O
  O23      1.0000 0.42220  0.33689  0.35704  Biso   1.000  O
  O24      1.0000 0.57780  0.83689  0.14296  Biso   1.000  O
  C33      1.0000 0.53240  0.61730  0.65720  Biso   1.000  C
  C34      1.0000 0.46760  0.11730  0.84280  Biso   1.000  C
  C35      1.0000 0.46760  0.38270  0.34280  Biso   1.000  C
  C36      1.0000 0.53240  0.88270  0.15720  Biso   1.000  C
  C37      1.0000 0.59030  0.55980  0.67000  Biso   1.000  C
  C38      1.0000 0.40970  0.05980  0.83000  Biso   1.000  C
  C39      1.0000 0.40970  0.44020  0.33000  Biso   1.000  C
  C40      1.0000 0.59030  0.94020  0.17000  Biso   1.000  C
  H41      1.0000 0.65810  0.56090  0.67230  Biso   1.000  H
  H42      1.0000 0.34190  0.06090  0.82770  Biso   1.000  H
  H43      1.0000 0.34190  0.43910  0.32770  Biso   1.000  H
  H44      1.0000 0.65810  0.93910  0.17230  Biso   1.000  H
  C41      1.0000 0.55050  0.50800  0.67830  Biso   1.000  C
  C42      1.0000 0.44950  0.00800  0.82170  Biso   1.000  C
  C43      1.0000 0.44950  0.49200  0.32170  Biso   1.000  C
  C44      1.0000 0.55050  0.99200  0.17830  Biso   1.000  C
  H45      1.0000 0.48300  0.50790  0.67700  Biso   1.000  H
  H46      1.0000 0.51700  0.00790  0.82300  Biso   1.000  H
  H47      1.0000 0.51700  0.49210  0.32300  Biso   1.000  H
  H48      1.0000 0.48300  0.99210  0.17700  Biso   1.000  H
  C45      1.0000 0.60530  0.44820  0.68980  Biso   1.000  C
  C46      1.0000 0.39470  0.94820  0.81020  Biso   1.000  C
  C47      1.0000 0.39470  0.55180  0.31020  Biso   1.000  C
  C48      1.0000 0.60530  0.05180  0.18980  Biso   1.000  C
  H49      1.0000 0.58090  0.42350  0.64850  Biso   1.000  H
  H50      1.0000 0.41910  0.92350  0.85150  Biso   1.000  H
  H51      1.0000 0.41910  0.57650  0.35150  Biso   1.000  H
  H52      1.0000 0.58090  0.07650  0.14850  Biso   1.000  H
  H53      1.0000 0.59380  0.42800  0.72960  Biso   1.000  H
  H54      1.0000 0.40620  0.92800  0.77040  Biso   1.000  H
  H55      1.0000 0.40620  0.57200  0.27040  Biso   1.000  H
  H56      1.0000 0.59380  0.07200  0.22960  Biso   1.000  H
  H57      1.0000 0.67630  0.45510  0.69870  Biso   1.000  H
  H58      1.0000 0.32370  0.95510  0.80130  Biso   1.000  H
  H59      1.0000 0.32370  0.54490  0.30130  Biso   1.000  H
  H60      1.0000 0.67630  0.04490  0.19870  Biso   1.000  H
  O25      1.0000 0.31230  0.67875  0.55130  Biso   1.000  O
  O26      1.0000 0.68770  0.17875  0.94870  Biso   1.000  O
  O27      1.0000 0.68770  0.32125  0.44870  Biso   1.000  O
  O28      1.0000 0.31230  0.82125  0.05130  Biso   1.000  O
  O29      1.0000 0.44300  0.72049  0.52530  Biso   1.000  O
  O30      1.0000 0.55700  0.22049  0.97470  Biso   1.000  O
  O31      1.0000 0.55700  0.27951  0.47470  Biso   1.000  O
  O32      1.0000 0.44300  0.77951  0.02530  Biso   1.000  O
  C49      1.0000 0.35850  0.69590  0.50830  Biso   1.000  C
  C50      1.0000 0.64150  0.19590  0.99170  Biso   1.000  C
  C51      1.0000 0.64150  0.30410  0.49170  Biso   1.000  C
  C52      1.0000 0.35850  0.80410  0.00830  Biso   1.000  C
  C53      1.0000 0.30350  0.68500  0.43350  Biso   1.000  C
  C54      1.0000 0.69650  0.18500  0.06650  Biso   1.000  C
  C55      1.0000 0.69650  0.31500  0.56650  Biso   1.000  C
  C56      1.0000 0.30350  0.81500  0.93350  Biso   1.000  C
  H61      1.0000 0.25030  0.65770  0.42370  Biso   1.000  H
  H62      1.0000 0.74970  0.15770  0.07630  Biso   1.000  H
  H63      1.0000 0.74970  0.34230  0.57630  Biso   1.000  H
  H64      1.0000 0.25030  0.84230  0.92370  Biso   1.000  H
  C57      1.0000 0.32310  0.71000  0.38150  Biso   1.000  C
  C58      1.0000 0.67690  0.21000  0.11850  Biso   1.000  C
  C59      1.0000 0.67690  0.29000  0.61850  Biso   1.000  C
  C60      1.0000 0.32310  0.79000  0.88150  Biso   1.000  C
  H65      1.0000 0.37790  0.73620  0.39150  Biso   1.000  H
  H66      1.0000 0.62210  0.23620  0.10850  Biso   1.000  H
  H67      1.0000 0.62210  0.26380  0.60850  Biso   1.000  H
  H68      1.0000 0.37790  0.76380  0.89150  Biso   1.000  H
  C61      1.0000 0.26570  0.70100  0.30480  Biso   1.000  C
  C62      1.0000 0.73430  0.20100  0.19520  Biso   1.000  C
  C63      1.0000 0.73430  0.29900  0.69520  Biso   1.000  C
  C64      1.0000 0.26570  0.79900  0.80480  Biso   1.000  C
  H69      1.0000 0.20930  0.67470  0.30110  Biso   1.000  H
  H70      1.0000 0.79070  0.17470  0.19890  Biso   1.000  H
  H71      1.0000 0.79070  0.32530  0.69890  Biso   1.000  H
  H72      1.0000 0.20930  0.82530  0.80110  Biso   1.000  H
  H73      1.0000 0.30920  0.68310  0.28070  Biso   1.000  H
  H74      1.0000 0.69080  0.18310  0.21930  Biso   1.000  H
  H75      1.0000 0.69080  0.31690  0.71930  Biso   1.000  H
  H76      1.0000 0.30920  0.81690  0.78070  Biso   1.000  H
  H77      1.0000 0.24190  0.73940  0.28390  Biso   1.000  H
  H78      1.0000 0.75810  0.23940  0.21610  Biso   1.000  H
  H79      1.0000 0.75810  0.26060  0.71610  Biso   1.000  H
  H80      1.0000 0.24190  0.76060  0.78390  Biso   1.000  H
  O33      1.0000 0.95770  0.57490  0.52451  Biso   1.000  O
  O34      1.0000 0.04230  0.07490  0.97549  Biso   1.000  O
  O35      1.0000 0.04230  0.42510  0.47549  Biso   1.000  O
  O36      1.0000 0.95770  0.92510  0.02451  Biso   1.000  O
  O37      1.0000 0.87630  0.61044  0.59465  Biso   1.000  O
  O38      1.0000 0.12370  0.11044  0.90535  Biso   1.000  O
  O39      1.0000 0.12370  0.38956  0.40535  Biso   1.000  O
  O40      1.0000 0.87630  0.88956  0.09465  Biso   1.000  O
  C65      1.0000 0.88310  0.57280  0.54730  Biso   1.000  C
  C66      1.0000 0.11690  0.07280  0.95270  Biso   1.000  C
  C67      1.0000 0.11690  0.42720  0.45270  Biso   1.000  C
  C68      1.0000 0.88310  0.92720  0.04730  Biso   1.000  C
  C69      1.0000 0.80680  0.52500  0.51890  Biso   1.000  C
  C70      1.0000 0.19320  0.02500  0.98110  Biso   1.000  C
  C71      1.0000 0.19320  0.47500  0.48110  Biso   1.000  C
  C72      1.0000 0.80680  0.97500  0.01890  Biso   1.000  C
  H81      1.0000 0.82210  0.49480  0.49110  Biso   1.000  H
  H82      1.0000 0.17790  0.99480  0.00890  Biso   1.000  H
  H83      1.0000 0.17790  0.50520  0.50890  Biso   1.000  H
  H84      1.0000 0.82210  0.00520  0.99110  Biso   1.000  H
  C73      1.0000 0.72290  0.52310  0.53030  Biso   1.000  C
  C74      1.0000 0.27710  0.02310  0.96970  Biso   1.000  C
  C75      1.0000 0.27710  0.47690  0.46970  Biso   1.000  C
  C76      1.0000 0.72290  0.97690  0.03030  Biso   1.000  C
  H85      1.0000 0.70990  0.55220  0.56040  Biso   1.000  H
  H86      1.0000 0.29010  0.05220  0.93960  Biso   1.000  H
  H87      1.0000 0.29010  0.44780  0.43960  Biso   1.000  H
  H88      1.0000 0.70990  0.94780  0.06040  Biso   1.000  H
  C77      1.0000 0.64030  0.47690  0.49900  Biso   1.000  C
  C78      1.0000 0.35970  0.97690  0.00100  Biso   1.000  C
  C79      1.0000 0.35970  0.52310  0.50100  Biso   1.000  C
  C80      1.0000 0.64030  0.02310  0.99900  Biso   1.000  C
  H89      1.0000 0.66160  0.45040  0.46780  Biso   1.000  H
  H90      1.0000 0.33840  0.95040  0.03220  Biso   1.000  H
  H91      1.0000 0.33840  0.54960  0.53220  Biso   1.000  H
  H92      1.0000 0.66160  0.04960  0.96780  Biso   1.000  H
  H93      1.0000 0.57990  0.49760  0.47330  Biso   1.000  H
  H94      1.0000 0.42010  0.99760  0.02670  Biso   1.000  H
  H95      1.0000 0.42010  0.50240  0.52670  Biso   1.000  H
  H96      1.0000 0.57990  0.00240  0.97330  Biso   1.000  H
  H97      1.0000 0.62750  0.45360  0.53630  Biso   1.000  H
  H98      1.0000 0.37250  0.95360  0.96370  Biso   1.000  H
  H99      1.0000 0.37250  0.54640  0.46370  Biso   1.000  H
  H100     1.0000 0.62750  0.04640  0.03630  Biso   1.000  H
  O41      1.0000 0.21730  0.65248  0.66304  Biso   1.000  O
  O42      1.0000 0.78270  0.15248  0.83696  Biso   1.000  O
  O43      1.0000 0.78270  0.34752  0.33696  Biso   1.000  O
  O44      1.0000 0.21730  0.84752  0.16304  Biso   1.000  O
  O45      1.0000 0.10590  0.58251  0.66393  Biso   1.000  O
  O46      1.0000 0.89410  0.08251  0.83607  Biso   1.000  O
  O47      1.0000 0.89410  0.41749  0.33607  Biso   1.000  O
  O48      1.0000 0.10590  0.91749  0.16393  Biso   1.000  O
  C81      1.0000 0.19650  0.60080  0.68240  Biso   1.000  C
  C82      1.0000 0.80350  0.10080  0.81760  Biso   1.000  C
  C83      1.0000 0.80350  0.39920  0.31760  Biso   1.000  C
  C84      1.0000 0.19650  0.89920  0.18240  Biso   1.000  C
  C85      1.0000 0.27710  0.56190  0.72720  Biso   1.000  C
  C86      1.0000 0.72290  0.06190  0.77280  Biso   1.000  C
  C87      1.0000 0.72290  0.43810  0.27280  Biso   1.000  C
  C88      1.0000 0.27710  0.93810  0.22720  Biso   1.000  C
  H101     1.0000 0.34250  0.57710  0.74140  Biso   1.000  H
  H102     1.0000 0.65750  0.07710  0.75860  Biso   1.000  H
  H103     1.0000 0.65750  0.42290  0.25860  Biso   1.000  H
  H104     1.0000 0.34250  0.92290  0.24140  Biso   1.000  H
  C89      1.0000 0.26150  0.50760  0.74770  Biso   1.000  C
  C90      1.0000 0.73850  0.00760  0.75230  Biso   1.000  C
  C91      1.0000 0.73850  0.49240  0.25230  Biso   1.000  C
  C92      1.0000 0.26150  0.99240  0.24770  Biso   1.000  C
  H105     1.0000 0.19530  0.49380  0.73470  Biso   1.000  H
  H106     1.0000 0.80470  0.99380  0.76530  Biso   1.000  H
  H107     1.0000 0.80470  0.50620  0.26530  Biso   1.000  H
  H108     1.0000 0.19530  0.00620  0.23470  Biso   1.000  H
  C93      1.0000 0.34100  0.46540  0.79060  Biso   1.000  C
  C94      1.0000 0.65900  0.96540  0.70940  Biso   1.000  C
  C95      1.0000 0.65900  0.53460  0.20940  Biso   1.000  C
  C96      1.0000 0.34100  0.03460  0.29060  Biso   1.000  C
  H109     1.0000 0.40610  0.48390  0.79950  Biso   1.000  H
  H110     1.0000 0.59390  0.98390  0.70050  Biso   1.000  H
  H111     1.0000 0.59390  0.51610  0.20050  Biso   1.000  H
  H112     1.0000 0.40610  0.01610  0.29950  Biso   1.000  H
  H113     1.0000 0.33960  0.42830  0.76500  Biso   1.000  H
  H114     1.0000 0.66040  0.92830  0.73500  Biso   1.000  H
  H115     1.0000 0.66040  0.57170  0.23500  Biso   1.000  H
  H116     1.0000 0.33960  0.07170  0.26500  Biso   1.000  H
  H117     1.0000 0.32810  0.45680  0.83460  Biso   1.000  H
  H118     1.0000 0.67190  0.95680  0.66540  Biso   1.000  H
  H119     1.0000 0.67190  0.54320  0.16540  Biso   1.000  H
  H120     1.0000 0.32810  0.04320  0.33460  Biso   1.000  H
  O49      1.0000 0.87520  0.74373  0.57064  Biso   1.000  O
  O50      1.0000 0.12480  0.24373  0.92936  Biso   1.000  O
  O51      1.0000 0.12480  0.25627  0.42936  Biso   1.000  O
  O52      1.0000 0.87520  0.75627  0.07064  Biso   1.000  O
  O53      1.0000 0.92150  0.70443  0.48474  Biso   1.000  O
  O54      1.0000 0.07850  0.20443  0.01526  Biso   1.000  O
  O55      1.0000 0.07850  0.29557  0.51526  Biso   1.000  O
  O56      1.0000 0.92150  0.79557  0.98474  Biso   1.000  O
  C97      1.0000 0.87250  0.74410  0.50620  Biso   1.000  C
  C98      1.0000 0.12750  0.24410  0.99380  Biso   1.000  C
  C99      1.0000 0.12750  0.25590  0.49380  Biso   1.000  C
  C100     1.0000 0.87250  0.75590  0.00620  Biso   1.000  C
  C101     1.0000 0.81460  0.79120  0.45880  Biso   1.000  C
  C102     1.0000 0.18540  0.29120  0.04120  Biso   1.000  C
  C103     1.0000 0.18540  0.20880  0.54120  Biso   1.000  C
  C104     1.0000 0.81460  0.70880  0.95880  Biso   1.000  C
  H121     1.0000 0.77460  0.81720  0.47580  Biso   1.000  H
  H122     1.0000 0.22540  0.31720  0.02420  Biso   1.000  H
  H123     1.0000 0.22540  0.18280  0.52420  Biso   1.000  H
  H124     1.0000 0.77460  0.68280  0.97580  Biso   1.000  H
  C105     1.0000 0.81690  0.79800  0.39390  Biso   1.000  C
  C106     1.0000 0.18310  0.29800  0.10610  Biso   1.000  C
  C107     1.0000 0.18310  0.20200  0.60610  Biso   1.000  C
  C108     1.0000 0.81690  0.70200  0.89390  Biso   1.000  C
  H125     1.0000 0.85620  0.77120  0.37720  Biso   1.000  H
  H126     1.0000 0.14380  0.27120  0.12280  Biso   1.000  H
  H127     1.0000 0.14380  0.22880  0.62280  Biso   1.000  H
  H128     1.0000 0.85620  0.72880  0.87720  Biso   1.000  H
  C109     1.0000 0.76090  0.84600  0.34480  Biso   1.000  C
  C110     1.0000 0.23910  0.34600  0.15520  Biso   1.000  C
  C111     1.0000 0.23910  0.15400  0.65520  Biso   1.000  C
  C112     1.0000 0.76090  0.65400  0.84480  Biso   1.000  C
  H129     1.0000 0.71230  0.86450  0.36410  Biso   1.000  H
  H130     1.0000 0.28770  0.36450  0.13590  Biso   1.000  H
  H131     1.0000 0.28770  0.13550  0.63590  Biso   1.000  H
  H132     1.0000 0.71230  0.63550  0.86410  Biso   1.000  H
  H133     1.0000 0.72680  0.82810  0.30000  Biso   1.000  H
  H134     1.0000 0.27320  0.32810  0.20000  Biso   1.000  H
  H135     1.0000 0.27320  0.17190  0.70000  Biso   1.000  H
  H136     1.0000 0.72680  0.67190  0.80000  Biso   1.000  H
  H137     1.0000 0.80740  0.87610  0.33870  Biso   1.000  H
  H138     1.0000 0.19260  0.37610  0.16130  Biso   1.000  H
  H139     1.0000 0.19260  0.12390  0.66130  Biso   1.000  H
  H140     1.0000 0.80740  0.62390  0.83870  Biso   1.000  H
  O57      1.0000 0.95940  0.75324  0.77741  Biso   1.000  O
  O58      1.0000 0.04060  0.25324  0.72259  Biso   1.000  O
  O59      1.0000 0.04060  0.24676  0.22259  Biso   1.000  O
  O60      1.0000 0.95940  0.74676  0.27741  Biso   1.000  O
  O61      1.0000 0.99920  0.69894  0.69837  Biso   1.000  O
  O62      1.0000 0.00080  0.19894  0.80163  Biso   1.000  O
  O63      1.0000 0.00080  0.30106  0.30163  Biso   1.000  O
  O64      1.0000 0.99920  0.80106  0.19837  Biso   1.000  O
  C113     1.0000 0.01190  0.71200  0.76210  Biso   1.000  C
  C114     1.0000 0.98810  0.21200  0.73790  Biso   1.000  C
  C115     1.0000 0.98810  0.28800  0.23790  Biso   1.000  C
  C116     1.0000 0.01190  0.78800  0.26210  Biso   1.000  C
  C117     1.0000 0.08660  0.67850  0.81760  Biso   1.000  C
  C118     1.0000 0.91340  0.17850  0.68240  Biso   1.000  C
  C119     1.0000 0.91340  0.32150  0.18240  Biso   1.000  C
  C120     1.0000 0.08660  0.82150  0.31760  Biso   1.000  C
  H141     1.0000 0.12440  0.64860  0.80420  Biso   1.000  H
  H142     1.0000 0.87560  0.14860  0.69580  Biso   1.000  H
  H143     1.0000 0.87560  0.35140  0.19580  Biso   1.000  H
  H144     1.0000 0.12440  0.85140  0.30420  Biso   1.000  H
  C121     1.0000 0.10210  0.68860  0.88350  Biso   1.000  C
  C122     1.0000 0.89790  0.18860  0.61650  Biso   1.000  C
  C123     1.0000 0.89790  0.31140  0.11650  Biso   1.000  C
  C124     1.0000 0.10210  0.81140  0.38350  Biso   1.000  C
  H145     1.0000 0.06250  0.71790  0.89620  Biso   1.000  H
  H146     1.0000 0.93750  0.21790  0.60380  Biso   1.000  H
  H147     1.0000 0.93750  0.28210  0.10380  Biso   1.000  H
  H148     1.0000 0.06250  0.78210  0.39620  Biso   1.000  H
  C125     1.0000 0.18030  0.65630  0.94250  Biso   1.000  C
  C126     1.0000 0.81970  0.15630  0.55750  Biso   1.000  C
  C127     1.0000 0.81970  0.34370  0.05750  Biso   1.000  C
  C128     1.0000 0.18030  0.84370  0.44250  Biso   1.000  C
  H149     1.0000 0.22000  0.63000  0.92270  Biso   1.000  H
  H150     1.0000 0.78000  0.13000  0.57730  Biso   1.000  H
  H151     1.0000 0.78000  0.37000  0.07730  Biso   1.000  H
  H152     1.0000 0.22000  0.87000  0.42270  Biso   1.000  H
  H153     1.0000 0.14690  0.63270  0.96970  Biso   1.000  H
  H154     1.0000 0.85310  0.13270  0.53030  Biso   1.000  H
  H155     1.0000 0.85310  0.36730  0.03030  Biso   1.000  H
  H156     1.0000 0.14690  0.86730  0.46970  Biso   1.000  H
  H157     1.0000 0.22330  0.68560  0.97250  Biso   1.000  H
  H158     1.0000 0.77670  0.18560  0.52750  Biso   1.000  H
  H159     1.0000 0.77670  0.31440  0.02750  Biso   1.000  H
  H160     1.0000 0.22330  0.81440  0.47250  Biso   1.000  H
  O65      1.0000 0.64910  0.78103  0.60660  Biso   1.000  O
  O66      1.0000 0.35090  0.28103  0.89340  Biso   1.000  O
  O67      1.0000 0.35090  0.21897  0.39340  Biso   1.000  O
  O68      1.0000 0.64910  0.71897  0.10660  Biso   1.000  O
  O69      1.0000 0.74450  0.85441  0.58965  Biso   1.000  O
  O70      1.0000 0.25550  0.35441  0.91035  Biso   1.000  O
  O71      1.0000 0.25550  0.14559  0.41035  Biso   1.000  O
  O72      1.0000 0.74450  0.64559  0.08965  Biso   1.000  O
  C129     1.0000 0.66000  0.82980  0.57520  Biso   1.000  C
  C130     1.0000 0.34000  0.32980  0.92480  Biso   1.000  C
  C131     1.0000 0.34000  0.17020  0.42480  Biso   1.000  C
  C132     1.0000 0.66000  0.67020  0.07520  Biso   1.000  C
  C133     1.0000 0.57170  0.85310  0.51910  Biso   1.000  C
  C134     1.0000 0.42830  0.35310  0.98090  Biso   1.000  C
  C135     1.0000 0.42830  0.14690  0.48090  Biso   1.000  C
  C136     1.0000 0.57170  0.64690  0.01910  Biso   1.000  C
  H161     1.0000 0.51090  0.83250  0.51100  Biso   1.000  H
  H162     1.0000 0.48910  0.33250  0.98900  Biso   1.000  H
  H163     1.0000 0.48910  0.16750  0.48900  Biso   1.000  H
  H164     1.0000 0.51090  0.66750  0.01100  Biso   1.000  H
  C137     1.0000 0.57380  0.89830  0.48210  Biso   1.000  C
  C138     1.0000 0.42620  0.39830  0.01790  Biso   1.000  C
  C139     1.0000 0.42620  0.10170  0.51790  Biso   1.000  C
  C140     1.0000 0.57380  0.60170  0.98210  Biso   1.000  C
  H165     1.0000 0.63490  0.91850  0.49030  Biso   1.000  H
  H166     1.0000 0.36510  0.41850  0.00970  Biso   1.000  H
  H167     1.0000 0.36510  0.08150  0.50970  Biso   1.000  H
  H168     1.0000 0.63490  0.58150  0.99030  Biso   1.000  H
  C141     1.0000 0.48420  0.92300  0.42420  Biso   1.000  C
  C142     1.0000 0.51580  0.42300  0.07580  Biso   1.000  C
  C143     1.0000 0.51580  0.07700  0.57580  Biso   1.000  C
  C144     1.0000 0.48420  0.57700  0.92420  Biso   1.000  C
  H169     1.0000 0.50800  0.94510  0.39060  Biso   1.000  H
  H170     1.0000 0.49200  0.44510  0.10940  Biso   1.000  H
  H171     1.0000 0.49200  0.05490  0.60940  Biso   1.000  H
  H172     1.0000 0.50800  0.55490  0.89060  Biso   1.000  H
  H173     1.0000 0.44570  0.94960  0.44470  Biso   1.000  H
  H174     1.0000 0.55430  0.44960  0.05530  Biso   1.000  H
  H175     1.0000 0.55430  0.05040  0.55530  Biso   1.000  H
  H176     1.0000 0.44570  0.55040  0.94470  Biso   1.000  H
  H177     1.0000 0.44240  0.89010  0.40100  Biso   1.000  H
  H178     1.0000 0.55760  0.39010  0.09900  Biso   1.000  H
  H179     1.0000 0.55760  0.10990  0.59900  Biso   1.000  H
  H180     1.0000 0.44240  0.60990  0.90100  Biso   1.000  H
  O73      1.0000 0.98500  0.83683  0.65880  Biso   1.000  O
  O74      1.0000 0.01500  0.33683  0.84120  Biso   1.000  O
  O75      1.0000 0.01500  0.16317  0.34120  Biso   1.000  O
  O76      1.0000 0.98500  0.66317  0.15880  Biso   1.000  O
  O77      1.0000 0.90380  0.87976  0.72448  Biso   1.000  O
  O78      1.0000 0.09620  0.37976  0.77552  Biso   1.000  O
  O79      1.0000 0.09620  0.12024  0.27552  Biso   1.000  O
  O80      1.0000 0.90380  0.62024  0.22448  Biso   1.000  O
  C145     1.0000 0.97350  0.88130  0.69680  Biso   1.000  C
  C146     1.0000 0.02650  0.38130  0.80320  Biso   1.000  C
  C147     1.0000 0.02650  0.11870  0.30320  Biso   1.000  C
  C148     1.0000 0.97350  0.61870  0.19680  Biso   1.000  C
  C149     1.0000 0.04310  0.93290  0.70570  Biso   1.000  C
  C150     1.0000 0.95690  0.43290  0.79430  Biso   1.000  C
  C151     1.0000 0.95690  0.06710  0.29430  Biso   1.000  C
  C152     1.0000 0.04310  0.56710  0.20570  Biso   1.000  C
  H181     1.0000 0.09670  0.92970  0.68670  Biso   1.000  H
  H182     1.0000 0.90330  0.42970  0.81330  Biso   1.000  H
  H183     1.0000 0.90330  0.07030  0.31330  Biso   1.000  H
  H184     1.0000 0.09670  0.57030  0.18670  Biso   1.000  H
  C153     1.0000 0.03470  0.98200  0.73780  Biso   1.000  C
  C154     1.0000 0.96530  0.48200  0.76220  Biso   1.000  C
  C155     1.0000 0.96530  0.01800  0.26220  Biso   1.000  C
  C156     1.0000 0.03470  0.51800  0.23780  Biso   1.000  C
  H185     1.0000 0.98170  0.98380  0.75750  Biso   1.000  H
  H186     1.0000 0.01830  0.48380  0.74250  Biso   1.000  H
  H187     1.0000 0.01830  0.01620  0.24250  Biso   1.000  H
  H188     1.0000 0.98170  0.51620  0.25750  Biso   1.000  H
  C157     1.0000 0.10090  0.03720  0.74730  Biso   1.000  C
  C158     1.0000 0.89910  0.53720  0.75270  Biso   1.000  C
  C159     1.0000 0.89910  0.96280  0.25270  Biso   1.000  C
  C160     1.0000 0.10090  0.46280  0.24730  Biso   1.000  C
  H189     1.0000 0.14870  0.03220  0.72130  Biso   1.000  H
  H190     1.0000 0.85130  0.53220  0.77870  Biso   1.000  H
  H191     1.0000 0.85130  0.96780  0.27870  Biso   1.000  H
  H192     1.0000 0.14870  0.46780  0.22130  Biso   1.000  H
  H193     1.0000 0.13620  0.04240  0.79640  Biso   1.000  H
  H194     1.0000 0.86380  0.54240  0.70360  Biso   1.000  H
  H195     1.0000 0.86380  0.95760  0.20360  Biso   1.000  H
  H196     1.0000 0.13620  0.45760  0.29640  Biso   1.000  H
  H197     1.0000 0.06000  0.07230  0.73030  Biso   1.000  H
  H198     1.0000 0.94000  0.57230  0.76970  Biso   1.000  H
  H199     1.0000 0.94000  0.92770  0.26970  Biso   1.000  H
  H200     1.0000 0.06000  0.42770  0.23030  Biso   1.000  H
  O81      1.0000 0.75260  0.80013  0.74993  Biso   1.000  O
  O82      1.0000 0.24740  0.30013  0.75007  Biso   1.000  O
  O83      1.0000 0.24740  0.19987  0.25007  Biso   1.000  O
  O84      1.0000 0.75260  0.69987  0.24993  Biso   1.000  O
  O85      1.0000 0.78320  0.68213  0.66900  Biso   1.000  O
  O86      1.0000 0.21680  0.18213  0.83100  Biso   1.000  O
  O87      1.0000 0.21680  0.31787  0.33100  Biso   1.000  O
  O88      1.0000 0.78320  0.81787  0.16900  Biso   1.000  O
  O89      1.0000 0.09570  0.76302  0.60445  Biso   1.000  O
  O90      1.0000 0.90430  0.26302  0.89555  Biso   1.000  O
  O91      1.0000 0.90430  0.23698  0.39555  Biso   1.000  O
  O92      1.0000 0.09570  0.73698  0.10445  Biso   1.000  O
  O93      1.0000 0.11790  0.65241  0.51587  Biso   1.000  O
  O94      1.0000 0.88210  0.15241  0.98413  Biso   1.000  O
  O95      1.0000 0.88210  0.34759  0.48413  Biso   1.000  O
  O96      1.0000 0.11790  0.84759  0.01587  Biso   1.000  O
  O97      1.0000 0.81290  0.86530  0.86586  Biso   1.000  O
  O98      1.0000 0.18710  0.36530  0.63414  Biso   1.000  O
  O99      1.0000 0.18710  0.13470  0.13414  Biso   1.000  O
  O100     1.0000 0.81290  0.63470  0.36586  Biso   1.000  O
  O101     1.0000 0.94770  0.96277  0.88853  Biso   1.000  O
  O102     1.0000 0.05230  0.46277  0.61147  Biso   1.000  O
  O103     1.0000 0.05230  0.03723  0.11147  Biso   1.000  O
  O104     1.0000 0.94770  0.53723  0.38853  Biso   1.000  O
  O105     1.0000 0.05340  0.85442  0.87360  Biso   1.000  O
  O106     1.0000 0.94660  0.35442  0.62640  Biso   1.000  O
  O107     1.0000 0.94660  0.14558  0.12640  Biso   1.000  O
  O108     1.0000 0.05340  0.64558  0.37360  Biso   1.000  O
