data_image0
_cell_length_a       8.2204
_cell_length_b       14.1727
_cell_length_c       16.4045
_cell_angle_alpha    90
_cell_angle_beta     104.377
_cell_angle_gamma    90

_symmetry_space_group_name_H-M    "P 1"
_symmetry_int_tables_number       1

loop_
  _symmetry_equiv_pos_as_xyz
  'x, y, z'

loop_
  _atom_site_label
  _atom_site_occupancy
  _atom_site_fract_x
  _atom_site_fract_y
  _atom_site_fract_z
  _atom_site_thermal_displace_type
  _atom_site_B_iso_or_equiv
  _atom_site_type_symbol
  C1       1.0000 0.18570  0.37193  0.51181  Biso   1.000  C
  C2       1.0000 0.81430  0.87193  0.98819  Biso   1.000  C
  C3       1.0000 0.81430  0.62807  0.48819  Biso   1.000  C
  C4       1.0000 0.18570  0.12807  0.01181  Biso   1.000  C
  H1       1.0000 0.24440  0.41340  0.55250  Biso   1.000  H
  H2       1.0000 0.75560  0.91340  0.94750  Biso   1.000  H
  H3       1.0000 0.75560  0.58660  0.44750  Biso   1.000  H
  H4       1.0000 0.24440  0.08660  0.05250  Biso   1.000  H
  C5       1.0000 0.10190  0.40750  0.43560  Biso   1.000  C
  C6       1.0000 0.89810  0.90750  0.06440  Biso   1.000  C
  C7       1.0000 0.89810  0.59250  0.56440  Biso   1.000  C
  C8       1.0000 0.10190  0.09250  0.93560  Biso   1.000  C
  H5       1.0000 0.10310  0.47180  0.42480  Biso   1.000  H
  H6       1.0000 0.89690  0.97180  0.07520  Biso   1.000  H
  H7       1.0000 0.89690  0.52820  0.57520  Biso   1.000  H
  H8       1.0000 0.10310  0.02820  0.92480  Biso   1.000  H
  C9       1.0000 0.01620  0.34650  0.37540  Biso   1.000  C
  C10      1.0000 0.98380  0.84650  0.12460  Biso   1.000  C
  C11      1.0000 0.98380  0.65350  0.62460  Biso   1.000  C
  C12      1.0000 0.01620  0.15350  0.87540  Biso   1.000  C
  H9       1.0000 0.95710  0.36910  0.32310  Biso   1.000  H
  H10      1.0000 0.04290  0.86910  0.17690  Biso   1.000  H
  H11      1.0000 0.04290  0.63090  0.67690  Biso   1.000  H
  H12      1.0000 0.95710  0.13090  0.82310  Biso   1.000  H
  C13      1.0000 0.01820  0.25160  0.39284  Biso   1.000  C
  C14      1.0000 0.98180  0.75160  0.10716  Biso   1.000  C
  C15      1.0000 0.98180  0.74840  0.60716  Biso   1.000  C
  C16      1.0000 0.01820  0.24840  0.89284  Biso   1.000  C
  H13      1.0000 0.96160  0.20950  0.35210  Biso   1.000  H
  H14      1.0000 0.03840  0.70950  0.14790  Biso   1.000  H
  H15      1.0000 0.03840  0.79050  0.64790  Biso   1.000  H
  H16      1.0000 0.96160  0.29050  0.85210  Biso   1.000  H
  C17      1.0000 0.10460  0.21883  0.47113  Biso   1.000  C
  C18      1.0000 0.89540  0.71883  0.02887  Biso   1.000  C
  C19      1.0000 0.89540  0.78117  0.52887  Biso   1.000  C
  C20      1.0000 0.10460  0.28117  0.97113  Biso   1.000  C
  C21      1.0000 0.11320  0.11558  0.49038  Biso   1.000  C
  C22      1.0000 0.88680  0.61558  0.00962  Biso   1.000  C
  C23      1.0000 0.88680  0.88442  0.50962  Biso   1.000  C
  C24      1.0000 0.11320  0.38442  0.99038  Biso   1.000  C
  H17      1.0000 0.05390  0.08140  0.44070  Biso   1.000  H
  H18      1.0000 0.94610  0.58140  0.05930  Biso   1.000  H
  H19      1.0000 0.94610  0.91860  0.55930  Biso   1.000  H
  H20      1.0000 0.05390  0.41860  0.94070  Biso   1.000  H
  H21      1.0000 0.05630  0.10350  0.53450  Biso   1.000  H
  H22      1.0000 0.94370  0.60350  0.96550  Biso   1.000  H
  H23      1.0000 0.94370  0.89650  0.46550  Biso   1.000  H
  H24      1.0000 0.05630  0.39650  0.03450  Biso   1.000  H
  C25      1.0000 0.29120  0.07838  0.51800  Biso   1.000  C
  C26      1.0000 0.70880  0.57838  0.98200  Biso   1.000  C
  C27      1.0000 0.70880  0.92162  0.48200  Biso   1.000  C
  C28      1.0000 0.29120  0.42162  0.01800  Biso   1.000  C
  H25      1.0000 0.28950  0.01000  0.51980  Biso   1.000  H
  H26      1.0000 0.71050  0.51000  0.98020  Biso   1.000  H
  H27      1.0000 0.71050  0.99000  0.48020  Biso   1.000  H
  H28      1.0000 0.28950  0.49000  0.01980  Biso   1.000  H
  H29      1.0000 0.35390  0.09740  0.47780  Biso   1.000  H
  H30      1.0000 0.64610  0.59740  0.02220  Biso   1.000  H
  H31      1.0000 0.64610  0.90260  0.52220  Biso   1.000  H
  H32      1.0000 0.35390  0.40260  0.97780  Biso   1.000  H
  C29      1.0000 0.42830  0.10176  0.78171  Biso   1.000  C
  C30      1.0000 0.57170  0.60176  0.71829  Biso   1.000  C
  C31      1.0000 0.57170  0.89824  0.21829  Biso   1.000  C
  C32      1.0000 0.42830  0.39824  0.28171  Biso   1.000  C
  H33      1.0000 0.37860  0.06070  0.73840  Biso   1.000  H
  H34      1.0000 0.62140  0.56070  0.76160  Biso   1.000  H
  H35      1.0000 0.62140  0.93930  0.26160  Biso   1.000  H
  H36      1.0000 0.37860  0.43930  0.23840  Biso   1.000  H
  C33      1.0000 0.49260  0.06536  0.86074  Biso   1.000  C
  C34      1.0000 0.50740  0.56536  0.63926  Biso   1.000  C
  C35      1.0000 0.50740  0.93464  0.13926  Biso   1.000  C
  C36      1.0000 0.49260  0.43464  0.36074  Biso   1.000  C
  H37      1.0000 0.48660  0.00100  0.87050  Biso   1.000  H
  H38      1.0000 0.51340  0.50100  0.62950  Biso   1.000  H
  H39      1.0000 0.51340  0.99900  0.12950  Biso   1.000  H
  H40      1.0000 0.48660  0.49900  0.37050  Biso   1.000  H
  C37      1.0000 0.56570  0.12510  0.92480  Biso   1.000  C
  C38      1.0000 0.43430  0.62510  0.57520  Biso   1.000  C
  C39      1.0000 0.43430  0.87490  0.07520  Biso   1.000  C
  C40      1.0000 0.56570  0.37490  0.42480  Biso   1.000  C
  H41      1.0000 0.61100  0.10220  0.97880  Biso   1.000  H
  H42      1.0000 0.38900  0.60220  0.52120  Biso   1.000  H
  H43      1.0000 0.38900  0.89780  0.02120  Biso   1.000  H
  H44      1.0000 0.61100  0.39780  0.47880  Biso   1.000  H
  C41      1.0000 0.57080  0.21970  0.90782  Biso   1.000  C
  C42      1.0000 0.42920  0.71970  0.59218  Biso   1.000  C
  C43      1.0000 0.42920  0.78030  0.09218  Biso   1.000  C
  C44      1.0000 0.57080  0.28030  0.40782  Biso   1.000  C
  H45      1.0000 0.61940  0.26130  0.95080  Biso   1.000  H
  H46      1.0000 0.38060  0.76130  0.54920  Biso   1.000  H
  H47      1.0000 0.38060  0.73870  0.04920  Biso   1.000  H
  H48      1.0000 0.61940  0.23870  0.45080  Biso   1.000  H
  C45      1.0000 0.50420  0.25390  0.82728  Biso   1.000  C
  C46      1.0000 0.49580  0.75390  0.67272  Biso   1.000  C
  C47      1.0000 0.49580  0.74610  0.17272  Biso   1.000  C
  C48      1.0000 0.50420  0.24610  0.32728  Biso   1.000  C
  C49      1.0000 0.50150  0.35754  0.80788  Biso   1.000  C
  C50      1.0000 0.49850  0.85754  0.69212  Biso   1.000  C
  C51      1.0000 0.49850  0.64246  0.19212  Biso   1.000  C
  C52      1.0000 0.50150  0.14246  0.30788  Biso   1.000  C
  H49      1.0000 0.56280  0.36870  0.76530  Biso   1.000  H
  H50      1.0000 0.43720  0.86870  0.73470  Biso   1.000  H
  H51      1.0000 0.43720  0.63130  0.23470  Biso   1.000  H
  H52      1.0000 0.56280  0.13130  0.26530  Biso   1.000  H
  H53      1.0000 0.55790  0.39170  0.85820  Biso   1.000  H
  H54      1.0000 0.44210  0.89170  0.64180  Biso   1.000  H
  H55      1.0000 0.44210  0.60830  0.14180  Biso   1.000  H
  H56      1.0000 0.55790  0.10830  0.35820  Biso   1.000  H
  C53      1.0000 0.32460  0.39487  0.77686  Biso   1.000  C
  C54      1.0000 0.67540  0.89487  0.72314  Biso   1.000  C
  C55      1.0000 0.67540  0.60513  0.22314  Biso   1.000  C
  C56      1.0000 0.32460  0.10513  0.27686  Biso   1.000  C
  H57      1.0000 0.25650  0.37390  0.81400  Biso   1.000  H
  H58      1.0000 0.74350  0.87390  0.68600  Biso   1.000  H
  H59      1.0000 0.74350  0.62610  0.18600  Biso   1.000  H
  H60      1.0000 0.25650  0.12610  0.31400  Biso   1.000  H
  H61      1.0000 0.32610  0.46330  0.77720  Biso   1.000  H
  H62      1.0000 0.67390  0.96330  0.72280  Biso   1.000  H
  H63      1.0000 0.67390  0.53670  0.22280  Biso   1.000  H
  H64      1.0000 0.32610  0.03670  0.27720  Biso   1.000  H
  C57      1.0000 0.69330  0.27220  0.63419  Biso   1.000  C
  C58      1.0000 0.30670  0.77220  0.86581  Biso   1.000  C
  C59      1.0000 0.30670  0.72780  0.36581  Biso   1.000  C
  C60      1.0000 0.69330  0.22780  0.13419  Biso   1.000  C
  C61      1.0000 0.86570  0.30539  0.64973  Biso   1.000  C
  C62      1.0000 0.13430  0.80539  0.85027  Biso   1.000  C
  C63      1.0000 0.13430  0.69461  0.35027  Biso   1.000  C
  C64      1.0000 0.86570  0.19461  0.14973  Biso   1.000  C
  C65      1.0000 0.92720  0.20849  0.65514  Biso   1.000  C
  C66      1.0000 0.07280  0.70849  0.84486  Biso   1.000  C
  C67      1.0000 0.07280  0.79151  0.34486  Biso   1.000  C
  C68      1.0000 0.92720  0.29151  0.15514  Biso   1.000  C
  C69      1.0000 0.75450  0.17468  0.63664  Biso   1.000  C
  C70      1.0000 0.24550  0.67468  0.86336  Biso   1.000  C
  C71      1.0000 0.24550  0.82532  0.36336  Biso   1.000  C
  C72      1.0000 0.75450  0.32532  0.13664  Biso   1.000  C
  N1       1.0000 0.18690  0.27941  0.53064  Biso   1.000  N
  N2       1.0000 0.81310  0.77941  0.96936  Biso   1.000  N
  N3       1.0000 0.81310  0.72059  0.46936  Biso   1.000  N
  N4       1.0000 0.18690  0.22059  0.03064  Biso   1.000  N
  N5       1.0000 0.43410  0.19429  0.76427  Biso   1.000  N
  N6       1.0000 0.56590  0.69429  0.73573  Biso   1.000  N
  N7       1.0000 0.56590  0.80571  0.23573  Biso   1.000  N
  N8       1.0000 0.43410  0.30571  0.26427  Biso   1.000  N
  O1       1.0000 0.37100  0.11444  0.59921  Biso   1.000  O
  O2       1.0000 0.62900  0.61444  0.90079  Biso   1.000  O
  O3       1.0000 0.62900  0.88556  0.40079  Biso   1.000  O
  O4       1.0000 0.37100  0.38556  0.09921  Biso   1.000  O
  H65      1.0000 0.47200  0.11300  0.60600  Biso   1.000  H
  H66      1.0000 0.52800  0.61300  0.89400  Biso   1.000  H
  H67      1.0000 0.52800  0.88700  0.39400  Biso   1.000  H
  H68      1.0000 0.47200  0.38700  0.10600  Biso   1.000  H
  O5       1.0000 0.25390  0.36161  0.69370  Biso   1.000  O
  O6       1.0000 0.74610  0.86161  0.80630  Biso   1.000  O
  O7       1.0000 0.74610  0.63839  0.30630  Biso   1.000  O
  O8       1.0000 0.25390  0.13839  0.19370  Biso   1.000  O
  H69      1.0000 0.14900  0.36700  0.68600  Biso   1.000  H
  H70      1.0000 0.85100  0.86700  0.81400  Biso   1.000  H
  H71      1.0000 0.85100  0.63300  0.31400  Biso   1.000  H
  H72      1.0000 0.14900  0.13300  0.18600  Biso   1.000  H
  O9       1.0000 0.55348  0.31119  0.62303  Biso   1.000  O
  O10      1.0000 0.44652  0.81119  0.87697  Biso   1.000  O
  O11      1.0000 0.44652  0.68881  0.37697  Biso   1.000  O
  O12      1.0000 0.55348  0.18881  0.12303  Biso   1.000  O
  O13      1.0000 0.93550  0.38506  0.65670  Biso   1.000  O
  O14      1.0000 0.06450  0.88506  0.84330  Biso   1.000  O
  O15      1.0000 0.06450  0.61494  0.34330  Biso   1.000  O
  O16      1.0000 0.93550  0.11494  0.15670  Biso   1.000  O
  O17      1.0000 0.06791  0.16947  0.67032  Biso   1.000  O
  O18      1.0000 0.93209  0.66947  0.82968  Biso   1.000  O
  O19      1.0000 0.93209  0.83053  0.32968  Biso   1.000  O
  O20      1.0000 0.06791  0.33053  0.17032  Biso   1.000  O
  O21      1.0000 0.68630  0.09508  0.62642  Biso   1.000  O
  O22      1.0000 0.31370  0.59508  0.87358  Biso   1.000  O
  O23      1.0000 0.31370  0.90492  0.37358  Biso   1.000  O
  O24      1.0000 0.68630  0.40492  0.12642  Biso   1.000  O
  Cu1      1.0000 0.31367  0.23783  0.64688  Biso   1.000  Cu
  Cu2      1.0000 0.68633  0.73783  0.85312  Biso   1.000  Cu
  Cu3      1.0000 0.68633  0.76217  0.35312  Biso   1.000  Cu
  Cu4      1.0000 0.31367  0.26217  0.14688  Biso   1.000  Cu
  O25      1.0000 0.10760  0.97088  0.69278  Biso   1.000  O
  O26      1.0000 0.89240  0.47088  0.80722  Biso   1.000  O
  O27      1.0000 0.89240  0.02912  0.30722  Biso   1.000  O
  O28      1.0000 0.10760  0.52912  0.19278  Biso   1.000  O
  H73      1.0000 0.07600  0.02900  0.68600  Biso   1.000  H
  H74      1.0000 0.92400  0.52900  0.81400  Biso   1.000  H
  H75      1.0000 0.92400  0.97100  0.31400  Biso   1.000  H
  H76      1.0000 0.07600  0.47100  0.18600  Biso   1.000  H
  H77      1.0000 0.11000  0.95300  0.74400  Biso   1.000  H
  H78      1.0000 0.89000  0.45300  0.75600  Biso   1.000  H
  H79      1.0000 0.89000  0.04700  0.25600  Biso   1.000  H
  H80      1.0000 0.11000  0.54700  0.24400  Biso   1.000  H
