data_image0
_cell_length_a       12.9409
_cell_length_b       28.2648
_cell_length_c       8.7103
_cell_angle_alpha    90
_cell_angle_beta     90
_cell_angle_gamma    90

_symmetry_space_group_name_H-M    "P 1"
_symmetry_int_tables_number       1

loop_
  _symmetry_equiv_pos_as_xyz
  'x, y, z'

loop_
  _atom_site_label
  _atom_site_occupancy
  _atom_site_fract_x
  _atom_site_fract_y
  _atom_site_fract_z
  _atom_site_thermal_displace_type
  _atom_site_B_iso_or_equiv
  _atom_site_type_symbol
  C1       1.0000 0.19800  0.30330  0.12700  Biso   1.000  C
  C2       1.0000 0.30200  0.19670  0.12700  Biso   1.000  C
  C3       1.0000 0.69800  0.69670  0.37300  Biso   1.000  C
  C4       1.0000 0.80200  0.80330  0.37300  Biso   1.000  C
  C5       1.0000 0.80200  0.69670  0.87300  Biso   1.000  C
  C6       1.0000 0.69800  0.80330  0.87300  Biso   1.000  C
  C7       1.0000 0.30200  0.30330  0.62700  Biso   1.000  C
  C8       1.0000 0.19800  0.19670  0.62700  Biso   1.000  C
  H1       1.0000 0.18290  0.33520  0.08970  Biso   1.000  H
  H2       1.0000 0.31710  0.16480  0.08970  Biso   1.000  H
  H3       1.0000 0.68290  0.66480  0.41030  Biso   1.000  H
  H4       1.0000 0.81710  0.83520  0.41030  Biso   1.000  H
  H5       1.0000 0.81710  0.66480  0.91030  Biso   1.000  H
  H6       1.0000 0.68290  0.83520  0.91030  Biso   1.000  H
  H7       1.0000 0.31710  0.33520  0.58970  Biso   1.000  H
  H8       1.0000 0.18290  0.16480  0.58970  Biso   1.000  H
  H9       1.0000 0.25780  0.29050  0.07230  Biso   1.000  H
  H10      1.0000 0.24220  0.20950  0.07230  Biso   1.000  H
  H11      1.0000 0.75780  0.70950  0.42770  Biso   1.000  H
  H12      1.0000 0.74220  0.79050  0.42770  Biso   1.000  H
  H13      1.0000 0.74220  0.70950  0.92770  Biso   1.000  H
  H14      1.0000 0.75780  0.79050  0.92770  Biso   1.000  H
  H15      1.0000 0.24220  0.29050  0.57230  Biso   1.000  H
  H16      1.0000 0.25780  0.20950  0.57230  Biso   1.000  H
  H17      1.0000 0.21330  0.30460  0.23750  Biso   1.000  H
  H18      1.0000 0.28670  0.19540  0.23750  Biso   1.000  H
  H19      1.0000 0.71330  0.69540  0.26250  Biso   1.000  H
  H20      1.0000 0.78670  0.80460  0.26250  Biso   1.000  H
  H21      1.0000 0.78670  0.69540  0.76250  Biso   1.000  H
  H22      1.0000 0.71330  0.80460  0.76250  Biso   1.000  H
  H23      1.0000 0.28670  0.30460  0.73750  Biso   1.000  H
  H24      1.0000 0.21330  0.19540  0.73750  Biso   1.000  H
  O1       1.0000 0.11560  0.27530  0.10360  Biso   1.000  O
  O2       1.0000 0.38440  0.22470  0.10360  Biso   1.000  O
  O3       1.0000 0.61560  0.72470  0.39640  Biso   1.000  O
  O4       1.0000 0.88440  0.77530  0.39640  Biso   1.000  O
  O5       1.0000 0.88440  0.72470  0.89640  Biso   1.000  O
  O6       1.0000 0.61560  0.77530  0.89640  Biso   1.000  O
  O7       1.0000 0.38440  0.27530  0.60360  Biso   1.000  O
  O8       1.0000 0.11560  0.22470  0.60360  Biso   1.000  O
  H25      1.0000 0.09460  0.25700  0.17560  Biso   1.000  H
  H26      1.0000 0.40540  0.24300  0.17560  Biso   1.000  H
  H27      1.0000 0.59460  0.74300  0.32440  Biso   1.000  H
  H28      1.0000 0.90540  0.75700  0.32440  Biso   1.000  H
  H29      1.0000 0.90540  0.74300  0.82440  Biso   1.000  H
  H30      1.0000 0.59460  0.75700  0.82440  Biso   1.000  H
  H31      1.0000 0.40540  0.25700  0.67560  Biso   1.000  H
  H32      1.0000 0.09460  0.24300  0.67560  Biso   1.000  H
  C9       1.0000 0.02930  0.33060  0.79720  Biso   1.000  C
  C10      1.0000 0.47070  0.16940  0.79720  Biso   1.000  C
  C11      1.0000 0.52930  0.66940  0.70280  Biso   1.000  C
  C12      1.0000 0.97070  0.83060  0.70280  Biso   1.000  C
  C13      1.0000 0.97070  0.66940  0.20280  Biso   1.000  C
  C14      1.0000 0.52930  0.83060  0.20280  Biso   1.000  C
  C15      1.0000 0.47070  0.33060  0.29720  Biso   1.000  C
  C16      1.0000 0.02930  0.16940  0.29720  Biso   1.000  C
  H33      1.0000 0.95850  0.33740  0.83070  Biso   1.000  H
  H34      1.0000 0.54150  0.16260  0.83070  Biso   1.000  H
  H35      1.0000 0.45850  0.66260  0.66930  Biso   1.000  H
  H36      1.0000 0.04150  0.83740  0.66930  Biso   1.000  H
  H37      1.0000 0.04150  0.66260  0.16930  Biso   1.000  H
  H38      1.0000 0.45850  0.83740  0.16930  Biso   1.000  H
  H39      1.0000 0.54150  0.33740  0.33070  Biso   1.000  H
  H40      1.0000 0.95850  0.16260  0.33070  Biso   1.000  H
  H41      1.0000 0.03570  0.33710  0.68710  Biso   1.000  H
  H42      1.0000 0.46430  0.16290  0.68710  Biso   1.000  H
  H43      1.0000 0.53570  0.66290  0.81290  Biso   1.000  H
  H44      1.0000 0.96430  0.83710  0.81290  Biso   1.000  H
  H45      1.0000 0.96430  0.66290  0.31290  Biso   1.000  H
  H46      1.0000 0.53570  0.83710  0.31290  Biso   1.000  H
  H47      1.0000 0.46430  0.33710  0.18710  Biso   1.000  H
  H48      1.0000 0.03570  0.16290  0.18710  Biso   1.000  H
  H49      1.0000 0.07770  0.35070  0.85420  Biso   1.000  H
  H50      1.0000 0.42230  0.14930  0.85420  Biso   1.000  H
  H51      1.0000 0.57770  0.64930  0.64580  Biso   1.000  H
  H52      1.0000 0.92230  0.85070  0.64580  Biso   1.000  H
  H53      1.0000 0.92230  0.64930  0.14580  Biso   1.000  H
  H54      1.0000 0.57770  0.85070  0.14580  Biso   1.000  H
  H55      1.0000 0.42230  0.35070  0.35420  Biso   1.000  H
  H56      1.0000 0.07770  0.14930  0.35420  Biso   1.000  H
  O9       1.0000 0.05200  0.28340  0.82490  Biso   1.000  O
  O10      1.0000 0.44800  0.21660  0.82490  Biso   1.000  O
  O11      1.0000 0.55200  0.71660  0.67510  Biso   1.000  O
  O12      1.0000 0.94800  0.78340  0.67510  Biso   1.000  O
  O13      1.0000 0.94800  0.71660  0.17510  Biso   1.000  O
  O14      1.0000 0.55200  0.78340  0.17510  Biso   1.000  O
  O15      1.0000 0.44800  0.28340  0.32490  Biso   1.000  O
  O16      1.0000 0.05200  0.21660  0.32490  Biso   1.000  O
  H57      1.0000 0.06200  0.27940  0.91930  Biso   1.000  H
  H58      1.0000 0.43800  0.22060  0.91930  Biso   1.000  H
  H59      1.0000 0.56200  0.72060  0.58070  Biso   1.000  H
  H60      1.0000 0.93800  0.77940  0.58070  Biso   1.000  H
  H61      1.0000 0.93800  0.72060  0.08070  Biso   1.000  H
  H62      1.0000 0.56200  0.77940  0.08070  Biso   1.000  H
  H63      1.0000 0.43800  0.27940  0.41930  Biso   1.000  H
  H64      1.0000 0.06200  0.22060  0.41930  Biso   1.000  H
  C17      1.0000 0.71230  0.55660  0.99490  Biso   1.000  C
  C18      1.0000 0.78770  0.94340  0.99490  Biso   1.000  C
  C19      1.0000 0.21230  0.44340  0.50510  Biso   1.000  C
  C20      1.0000 0.28770  0.05660  0.50510  Biso   1.000  C
  C21      1.0000 0.28770  0.44340  0.00510  Biso   1.000  C
  C22      1.0000 0.21230  0.05660  0.00510  Biso   1.000  C
  C23      1.0000 0.78770  0.55660  0.49490  Biso   1.000  C
  C24      1.0000 0.71230  0.94340  0.49490  Biso   1.000  C
  H65      1.0000 0.71560  0.59050  0.97130  Biso   1.000  H
  H66      1.0000 0.78440  0.90950  0.97130  Biso   1.000  H
  H67      1.0000 0.21560  0.40950  0.52870  Biso   1.000  H
  H68      1.0000 0.28440  0.09050  0.52870  Biso   1.000  H
  H69      1.0000 0.28440  0.40950  0.02870  Biso   1.000  H
  H70      1.0000 0.21560  0.09050  0.02870  Biso   1.000  H
  H71      1.0000 0.78440  0.59050  0.47130  Biso   1.000  H
  H72      1.0000 0.71560  0.90950  0.47130  Biso   1.000  H
  H73      1.0000 0.67220  0.54030  0.91540  Biso   1.000  H
  H74      1.0000 0.82780  0.95970  0.91540  Biso   1.000  H
  H75      1.0000 0.17220  0.45970  0.58460  Biso   1.000  H
  H76      1.0000 0.32780  0.04030  0.58460  Biso   1.000  H
  H77      1.0000 0.32780  0.45970  0.08460  Biso   1.000  H
  H78      1.0000 0.17220  0.04030  0.08460  Biso   1.000  H
  H79      1.0000 0.82780  0.54030  0.41540  Biso   1.000  H
  H80      1.0000 0.67220  0.95970  0.41540  Biso   1.000  H
  H81      1.0000 0.67910  0.55200  0.09480  Biso   1.000  H
  H82      1.0000 0.82090  0.94800  0.09480  Biso   1.000  H
  H83      1.0000 0.17910  0.44800  0.40520  Biso   1.000  H
  H84      1.0000 0.32090  0.05200  0.40520  Biso   1.000  H
  H85      1.0000 0.32090  0.44800  0.90520  Biso   1.000  H
  H86      1.0000 0.17910  0.05200  0.90520  Biso   1.000  H
  H87      1.0000 0.82090  0.55200  0.59480  Biso   1.000  H
  H88      1.0000 0.67910  0.94800  0.59480  Biso   1.000  H
  C25      1.0000 0.92860  0.32763  0.32430  Biso   1.000  C
  C26      1.0000 0.57140  0.17237  0.32430  Biso   1.000  C
  C27      1.0000 0.42860  0.67237  0.17570  Biso   1.000  C
  C28      1.0000 0.07140  0.82763  0.17570  Biso   1.000  C
  C29      1.0000 0.07140  0.67237  0.67570  Biso   1.000  C
  C30      1.0000 0.42860  0.82763  0.67570  Biso   1.000  C
  C31      1.0000 0.57140  0.32763  0.82430  Biso   1.000  C
  C32      1.0000 0.92860  0.17237  0.82430  Biso   1.000  C
  H89      1.0000 0.97200  0.30110  0.34210  Biso   1.000  H
  H90      1.0000 0.52800  0.19890  0.34210  Biso   1.000  H
  H91      1.0000 0.47200  0.69890  0.15790  Biso   1.000  H
  H92      1.0000 0.02800  0.80110  0.15790  Biso   1.000  H
  H93      1.0000 0.02800  0.69890  0.65790  Biso   1.000  H
  H94      1.0000 0.47200  0.80110  0.65790  Biso   1.000  H
  H95      1.0000 0.52800  0.30110  0.84210  Biso   1.000  H
  H96      1.0000 0.97200  0.19890  0.84210  Biso   1.000  H
  C33      1.0000 0.75000  0.25000  0.39770  Biso   1.000  C
  C34      1.0000 0.25000  0.75000  0.10230  Biso   1.000  C
  C35      1.0000 0.25000  0.75000  0.60230  Biso   1.000  C
  C36      1.0000 0.75000  0.25000  0.89770  Biso   1.000  C
  H97      1.0000 0.80550  0.23760  0.33070  Biso   1.000  H
  H98      1.0000 0.69450  0.26240  0.33070  Biso   1.000  H
  H99      1.0000 0.30550  0.76240  0.16930  Biso   1.000  H
  H100     1.0000 0.19450  0.73760  0.16930  Biso   1.000  H
  H101     1.0000 0.19450  0.76240  0.66930  Biso   1.000  H
  H102     1.0000 0.30550  0.73760  0.66930  Biso   1.000  H
  H103     1.0000 0.69450  0.23760  0.83070  Biso   1.000  H
  H104     1.0000 0.80550  0.26240  0.83070  Biso   1.000  H
  C37      1.0000 0.81040  0.40507  0.26940  Biso   1.000  C
  C38      1.0000 0.68960  0.09493  0.26940  Biso   1.000  C
  C39      1.0000 0.31040  0.59493  0.23060  Biso   1.000  C
  C40      1.0000 0.18960  0.90507  0.23060  Biso   1.000  C
  C41      1.0000 0.18960  0.59493  0.73060  Biso   1.000  C
  C42      1.0000 0.31040  0.90507  0.73060  Biso   1.000  C
  C43      1.0000 0.68960  0.40507  0.76940  Biso   1.000  C
  C44      1.0000 0.81040  0.09493  0.76940  Biso   1.000  C
  H105     1.0000 0.76880  0.43220  0.25190  Biso   1.000  H
  H106     1.0000 0.73120  0.06780  0.25190  Biso   1.000  H
  H107     1.0000 0.26880  0.56780  0.24810  Biso   1.000  H
  H108     1.0000 0.23120  0.93220  0.24810  Biso   1.000  H
  H109     1.0000 0.23120  0.56780  0.74810  Biso   1.000  H
  H110     1.0000 0.26880  0.93220  0.74810  Biso   1.000  H
  H111     1.0000 0.73120  0.43220  0.75190  Biso   1.000  H
  H112     1.0000 0.76880  0.06780  0.75190  Biso   1.000  H
  C45      1.0000 0.79310  0.29036  0.49470  Biso   1.000  C
  C46      1.0000 0.70690  0.20964  0.49470  Biso   1.000  C
  C47      1.0000 0.29310  0.70964  0.00530  Biso   1.000  C
  C48      1.0000 0.20690  0.79036  0.00530  Biso   1.000  C
  C49      1.0000 0.20690  0.70964  0.50530  Biso   1.000  C
  C50      1.0000 0.29310  0.79036  0.50530  Biso   1.000  C
  C51      1.0000 0.70690  0.29036  0.99470  Biso   1.000  C
  C52      1.0000 0.79310  0.20964  0.99470  Biso   1.000  C
  H113     1.0000 0.73870  0.30210  0.56490  Biso   1.000  H
  H114     1.0000 0.76130  0.19790  0.56490  Biso   1.000  H
  H115     1.0000 0.23870  0.69790  0.93510  Biso   1.000  H
  H116     1.0000 0.26130  0.80210  0.93510  Biso   1.000  H
  H117     1.0000 0.26130  0.69790  0.43510  Biso   1.000  H
  H118     1.0000 0.23870  0.80210  0.43510  Biso   1.000  H
  H119     1.0000 0.76130  0.30210  0.06490  Biso   1.000  H
  H120     1.0000 0.73870  0.19790  0.06490  Biso   1.000  H
  H121     1.0000 0.85120  0.27850  0.55790  Biso   1.000  H
  H122     1.0000 0.64880  0.22150  0.55790  Biso   1.000  H
  H123     1.0000 0.35120  0.72150  0.94210  Biso   1.000  H
  H124     1.0000 0.14880  0.77850  0.94210  Biso   1.000  H
  H125     1.0000 0.14880  0.72150  0.44210  Biso   1.000  H
  H126     1.0000 0.35120  0.77850  0.44210  Biso   1.000  H
  H127     1.0000 0.64880  0.27850  0.05790  Biso   1.000  H
  H128     1.0000 0.85120  0.22150  0.05790  Biso   1.000  H
  C53      1.0000 0.77290  0.37030  0.36240  Biso   1.000  C
  C54      1.0000 0.72710  0.12970  0.36240  Biso   1.000  C
  C55      1.0000 0.27290  0.62970  0.13760  Biso   1.000  C
  C56      1.0000 0.22710  0.87030  0.13760  Biso   1.000  C
  C57      1.0000 0.22710  0.62970  0.63760  Biso   1.000  C
  C58      1.0000 0.27290  0.87030  0.63760  Biso   1.000  C
  C59      1.0000 0.72710  0.37030  0.86240  Biso   1.000  C
  C60      1.0000 0.77290  0.12970  0.86240  Biso   1.000  C
  H129     1.0000 0.70610  0.37350  0.40630  Biso   1.000  H
  H130     1.0000 0.79390  0.12650  0.40630  Biso   1.000  H
  H131     1.0000 0.20610  0.62650  0.09370  Biso   1.000  H
  H132     1.0000 0.29390  0.87350  0.09370  Biso   1.000  H
  H133     1.0000 0.29390  0.62650  0.59370  Biso   1.000  H
  H134     1.0000 0.20610  0.87350  0.59370  Biso   1.000  H
  H135     1.0000 0.79390  0.37350  0.90630  Biso   1.000  H
  H136     1.0000 0.70610  0.12650  0.90630  Biso   1.000  H
  C61      1.0000 0.96020  0.36409  0.23010  Biso   1.000  C
  C62      1.0000 0.53980  0.13591  0.23010  Biso   1.000  C
  C63      1.0000 0.46020  0.63591  0.26990  Biso   1.000  C
  C64      1.0000 0.03980  0.86409  0.26990  Biso   1.000  C
  C65      1.0000 0.03980  0.63591  0.76990  Biso   1.000  C
  C66      1.0000 0.46020  0.86409  0.76990  Biso   1.000  C
  C67      1.0000 0.53980  0.36409  0.73010  Biso   1.000  C
  C68      1.0000 0.96020  0.13591  0.73010  Biso   1.000  C
  H137     1.0000 0.02620  0.36160  0.18290  Biso   1.000  H
  H138     1.0000 0.47380  0.13840  0.18290  Biso   1.000  H
  H139     1.0000 0.52620  0.63840  0.31710  Biso   1.000  H
  H140     1.0000 0.97380  0.86160  0.31710  Biso   1.000  H
  H141     1.0000 0.97380  0.63840  0.81710  Biso   1.000  H
  H142     1.0000 0.52620  0.86160  0.81710  Biso   1.000  H
  H143     1.0000 0.47380  0.36160  0.68290  Biso   1.000  H
  H144     1.0000 0.02620  0.13840  0.68290  Biso   1.000  H
  C69      1.0000 0.83060  0.33068  0.39320  Biso   1.000  C
  C70      1.0000 0.66940  0.16932  0.39320  Biso   1.000  C
  C71      1.0000 0.33060  0.66932  0.10680  Biso   1.000  C
  C72      1.0000 0.16940  0.83068  0.10680  Biso   1.000  C
  C73      1.0000 0.16940  0.66932  0.60680  Biso   1.000  C
  C74      1.0000 0.33060  0.83068  0.60680  Biso   1.000  C
  C75      1.0000 0.66940  0.33068  0.89320  Biso   1.000  C
  C76      1.0000 0.83060  0.16932  0.89320  Biso   1.000  C
  N1       1.0000 0.90380  0.40276  0.20110  Biso   1.000  N
  N2       1.0000 0.59620  0.09724  0.20110  Biso   1.000  N
  N3       1.0000 0.40380  0.59724  0.29890  Biso   1.000  N
  N4       1.0000 0.09620  0.90276  0.29890  Biso   1.000  N
  N5       1.0000 0.09620  0.59724  0.79890  Biso   1.000  N
  N6       1.0000 0.40380  0.90276  0.79890  Biso   1.000  N
  N7       1.0000 0.59620  0.40276  0.70110  Biso   1.000  N
  N8       1.0000 0.90380  0.09724  0.70110  Biso   1.000  N
  C77      1.0000 0.82020  0.53660  0.99960  Biso   1.000  C
  C78      1.0000 0.67980  0.96340  0.99960  Biso   1.000  C
  C79      1.0000 0.32020  0.46340  0.50040  Biso   1.000  C
  C80      1.0000 0.17980  0.03660  0.50040  Biso   1.000  C
  C81      1.0000 0.17980  0.46340  0.00040  Biso   1.000  C
  C82      1.0000 0.32020  0.03660  0.00040  Biso   1.000  C
  C83      1.0000 0.67980  0.53660  0.49960  Biso   1.000  C
  C84      1.0000 0.82020  0.96340  0.49960  Biso   1.000  C
  O17      1.0000 0.94070  0.43698  0.86240  Biso   1.000  O
  O18      1.0000 0.55930  0.06302  0.86240  Biso   1.000  O
  O19      1.0000 0.44070  0.56302  0.63760  Biso   1.000  O
  O20      1.0000 0.05930  0.93698  0.63760  Biso   1.000  O
  O21      1.0000 0.05930  0.56302  0.13760  Biso   1.000  O
  O22      1.0000 0.44070  0.93698  0.13760  Biso   1.000  O
  O23      1.0000 0.55930  0.43698  0.36240  Biso   1.000  O
  O24      1.0000 0.94070  0.06302  0.36240  Biso   1.000  O
  O25      1.0000 0.00030  0.50142  0.74470  Biso   1.000  O
  O26      1.0000 0.49970  0.99858  0.74470  Biso   1.000  O
  O27      1.0000 0.50030  0.49858  0.75530  Biso   1.000  O
  O28      1.0000 0.99970  0.00142  0.75530  Biso   1.000  O
  O29      1.0000 0.99970  0.49858  0.25530  Biso   1.000  O
  O30      1.0000 0.50030  0.00142  0.25530  Biso   1.000  O
  O31      1.0000 0.49970  0.50142  0.24470  Biso   1.000  O
  O32      1.0000 0.00030  0.99858  0.24470  Biso   1.000  O
  O33      1.0000 0.83160  0.49603  0.05840  Biso   1.000  O
  O34      1.0000 0.66840  0.00397  0.05840  Biso   1.000  O
  O35      1.0000 0.33160  0.50397  0.44160  Biso   1.000  O
  O36      1.0000 0.16840  0.99603  0.44160  Biso   1.000  O
  O37      1.0000 0.16840  0.50397  0.94160  Biso   1.000  O
  O38      1.0000 0.33160  0.99603  0.94160  Biso   1.000  O
  O39      1.0000 0.66840  0.49603  0.55840  Biso   1.000  O
  O40      1.0000 0.83160  0.00397  0.55840  Biso   1.000  O
  O41      1.0000 0.89170  0.56049  0.94090  Biso   1.000  O
  O42      1.0000 0.60830  0.93951  0.94090  Biso   1.000  O
  O43      1.0000 0.39170  0.43951  0.55910  Biso   1.000  O
  O44      1.0000 0.10830  0.06049  0.55910  Biso   1.000  O
  O45      1.0000 0.10830  0.43951  0.05910  Biso   1.000  O
  O46      1.0000 0.39170  0.06049  0.05910  Biso   1.000  O
  O47      1.0000 0.60830  0.56049  0.44090  Biso   1.000  O
  O48      1.0000 0.89170  0.93951  0.44090  Biso   1.000  O
  C85      1.0000 0.96080  0.46126  0.74410  Biso   1.000  C
  C86      1.0000 0.53920  0.03874  0.74410  Biso   1.000  C
  C87      1.0000 0.46080  0.53874  0.75590  Biso   1.000  C
  C88      1.0000 0.03920  0.96126  0.75590  Biso   1.000  C
  C89      1.0000 0.03920  0.53874  0.25590  Biso   1.000  C
  C90      1.0000 0.46080  0.96126  0.25590  Biso   1.000  C
  C91      1.0000 0.53920  0.46126  0.24410  Biso   1.000  C
  C92      1.0000 0.96080  0.03874  0.24410  Biso   1.000  C
  Cu1      1.0000 0.96435  0.46221  0.07028  Biso   1.000  Cu
  Cu2      1.0000 0.53565  0.03779  0.07028  Biso   1.000  Cu
  Cu3      1.0000 0.46435  0.53779  0.42972  Biso   1.000  Cu
  Cu4      1.0000 0.03565  0.96221  0.42972  Biso   1.000  Cu
  Cu5      1.0000 0.03565  0.53779  0.92972  Biso   1.000  Cu
  Cu6      1.0000 0.46435  0.96221  0.92972  Biso   1.000  Cu
  Cu7      1.0000 0.53565  0.46221  0.57028  Biso   1.000  Cu
  Cu8      1.0000 0.96435  0.03779  0.57028  Biso   1.000  Cu
  C93      1.0000 0.93410  0.44020  0.59070  Biso   1.000  C
  C94      1.0000 0.56590  0.05980  0.59070  Biso   1.000  C
  C95      1.0000 0.43410  0.55980  0.90930  Biso   1.000  C
  C96      1.0000 0.06590  0.94020  0.90930  Biso   1.000  C
  C97      1.0000 0.06590  0.55980  0.40930  Biso   1.000  C
  C98      1.0000 0.43410  0.94020  0.40930  Biso   1.000  C
  C99      1.0000 0.56590  0.44020  0.09070  Biso   1.000  C
  C100     1.0000 0.93410  0.05980  0.09070  Biso   1.000  C
  H145     1.0000 0.98260  0.45190  0.51300  Biso   1.000  H
  H146     1.0000 0.51740  0.04810  0.51300  Biso   1.000  H
  H147     1.0000 0.48260  0.54810  0.98700  Biso   1.000  H
  H148     1.0000 0.01740  0.95190  0.98700  Biso   1.000  H
  H149     1.0000 0.01740  0.54810  0.48700  Biso   1.000  H
  H150     1.0000 0.48260  0.95190  0.48700  Biso   1.000  H
  H151     1.0000 0.51740  0.45190  0.01300  Biso   1.000  H
  H152     1.0000 0.98260  0.04810  0.01300  Biso   1.000  H
  H153     1.0000 0.93880  0.40570  0.59660  Biso   1.000  H
  H154     1.0000 0.56120  0.09430  0.59660  Biso   1.000  H
  H155     1.0000 0.43880  0.59430  0.90340  Biso   1.000  H
  H156     1.0000 0.06120  0.90570  0.90340  Biso   1.000  H
  H157     1.0000 0.06120  0.59430  0.40340  Biso   1.000  H
  H158     1.0000 0.43880  0.90570  0.40340  Biso   1.000  H
  H159     1.0000 0.56120  0.40570  0.09660  Biso   1.000  H
  H160     1.0000 0.93880  0.09430  0.09660  Biso   1.000  H
  H161     1.0000 0.86360  0.44940  0.56240  Biso   1.000  H
  H162     1.0000 0.63640  0.05060  0.56240  Biso   1.000  H
  H163     1.0000 0.36360  0.55060  0.93760  Biso   1.000  H
  H164     1.0000 0.13640  0.94940  0.93760  Biso   1.000  H
  H165     1.0000 0.13640  0.55060  0.43760  Biso   1.000  H
  H166     1.0000 0.36360  0.94940  0.43760  Biso   1.000  H
  H167     1.0000 0.63640  0.44940  0.06240  Biso   1.000  H
  H168     1.0000 0.86360  0.05060  0.06240  Biso   1.000  H
