data_image0
_cell_length_a       12.884
_cell_length_b       17.663
_cell_length_c       18.225
_cell_angle_alpha    111.46
_cell_angle_beta     99.24
_cell_angle_gamma    104.03

_symmetry_space_group_name_H-M    "P 1"
_symmetry_int_tables_number       1

loop_
  _symmetry_equiv_pos_as_xyz
  'x, y, z'

loop_
  _atom_site_label
  _atom_site_occupancy
  _atom_site_fract_x
  _atom_site_fract_y
  _atom_site_fract_z
  _atom_site_thermal_displace_type
  _atom_site_B_iso_or_equiv
  _atom_site_type_symbol
  Gd1      1.0000 0.99796  0.68996  0.28091  Biso   1.000  Gd
  Gd2      1.0000 0.00204  0.31004  0.71909  Biso   1.000  Gd
  Cu1      1.0000 0.81117  0.78431  0.22346  Biso   1.000  Cu
  Cu2      1.0000 0.18883  0.21569  0.77654  Biso   1.000  Cu
  N1       1.0000 0.67590  0.72830  0.12950  Biso   1.000  N
  N2       1.0000 0.32410  0.27170  0.87050  Biso   1.000  N
  O1       1.0000 0.94620  0.81460  0.30850  Biso   1.000  O
  O2       1.0000 0.05380  0.18540  0.69150  Biso   1.000  O
  C1       1.0000 0.35510  0.50100  0.29580  Biso   1.000  C
  C2       1.0000 0.64490  0.49900  0.70420  Biso   1.000  C
  H1       1.0000 0.41230  0.49310  0.26610  Biso   1.000  H
  H2       1.0000 0.58770  0.50690  0.73390  Biso   1.000  H
  H3       1.0000 0.30830  0.44340  0.28740  Biso   1.000  H
  H4       1.0000 0.69170  0.55660  0.71260  Biso   1.000  H
  C3       1.0000 0.63860  0.77730  0.08660  Biso   1.000  C
  C4       1.0000 0.36140  0.22270  0.91340  Biso   1.000  C
  H5       1.0000 0.56010  0.74620  0.05370  Biso   1.000  H
  H6       1.0000 0.43990  0.25380  0.94630  Biso   1.000  H
  H7       1.0000 0.68420  0.78240  0.04870  Biso   1.000  H
  H8       1.0000 0.31580  0.21760  0.95130  Biso   1.000  H
  N3       1.0000 0.83210  0.90460  0.24520  Biso   1.000  N
  N4       1.0000 0.16790  0.09540  0.75480  Biso   1.000  N
  Cu3      1.0000 0.19168  0.59519  0.32652  Biso   1.000  Cu
  Cu4      1.0000 0.80832  0.40481  0.67348  Biso   1.000  Cu
  O3       1.0000 0.81820  0.67050  0.21110  Biso   1.000  O
  O4       1.0000 0.18180  0.32950  0.78890  Biso   1.000  O
  C5       1.0000 0.41090  0.55410  0.38530  Biso   1.000  C
  C6       1.0000 0.58910  0.44590  0.61470  Biso   1.000  C
  H9       1.0000 0.43950  0.61530  0.39530  Biso   1.000  H
  H10      1.0000 0.56050  0.38470  0.60470  Biso   1.000  H
  H11      1.0000 0.47540  0.53670  0.40110  Biso   1.000  H
  H12      1.0000 0.52460  0.46330  0.59890  Biso   1.000  H
  C7       1.0000 0.64930  0.86850  0.14870  Biso   1.000  C
  C8       1.0000 0.35070  0.13150  0.85130  Biso   1.000  C
  H13      1.0000 0.60720  0.89440  0.12010  Biso   1.000  H
  H14      1.0000 0.39280  0.10560  0.87990  Biso   1.000  H
  H15      1.0000 0.61510  0.86320  0.19230  Biso   1.000  H
  H16      1.0000 0.38490  0.13680  0.80770  Biso   1.000  H
  N5       1.0000 0.28520  0.54150  0.26180  Biso   1.000  N
  N6       1.0000 0.71480  0.45850  0.73820  Biso   1.000  N
  O5       1.0000 0.86070  0.53950  0.22240  Biso   1.000  O
  O6       1.0000 0.13930  0.46050  0.77760  Biso   1.000  O
  C9       1.0000 0.33450  0.54530  0.43920  Biso   1.000  C
  C10      1.0000 0.66550  0.45470  0.56080  Biso   1.000  C
  H17      1.0000 0.30880  0.48450  0.43090  Biso   1.000  H
  H18      1.0000 0.69120  0.51550  0.56910  Biso   1.000  H
  H19      1.0000 0.37780  0.58050  0.49740  Biso   1.000  H
  H20      1.0000 0.62220  0.41950  0.50260  Biso   1.000  H
  C11      1.0000 0.76630  0.92700  0.18740  Biso   1.000  C
  C12      1.0000 0.23370  0.07300  0.81260  Biso   1.000  C
  H21      1.0000 0.80320  0.92640  0.14360  Biso   1.000  H
  H22      1.0000 0.19680  0.07360  0.85640  Biso   1.000  H
  H23      1.0000 0.76600  0.98640  0.21690  Biso   1.000  H
  H24      1.0000 0.23400  0.01360  0.78310  Biso   1.000  H
  C13      1.0000 0.88580  0.46500  0.22370  Biso   1.000  C
  C14      1.0000 0.11420  0.53500  0.77630  Biso   1.000  C
  H25      1.0000 0.85770  0.41820  0.16830  Biso   1.000  H
  H26      1.0000 0.14230  0.58180  0.83170  Biso   1.000  H
  H27      1.0000 0.85030  0.44660  0.26080  Biso   1.000  H
  H28      1.0000 0.14970  0.55340  0.73920  Biso   1.000  H
  H29      1.0000 0.96660  0.47930  0.24290  Biso   1.000  H
  H30      1.0000 0.03340  0.52070  0.75710  Biso   1.000  H
  N7       1.0000 0.23570  0.57210  0.42330  Biso   1.000  N
  N8       1.0000 0.76430  0.42790  0.57670  Biso   1.000  N
  O7       1.0000 0.10620  0.82150  0.42070  Biso   1.000  O
  O8       1.0000 0.89380  0.17850  0.57930  Biso   1.000  O
  C15      1.0000 0.29860  0.54590  0.19410  Biso   1.000  C
  C16      1.0000 0.70140  0.45410  0.80590  Biso   1.000  C
  H31      1.0000 0.35590  0.52660  0.17480  Biso   1.000  H
  H32      1.0000 0.64410  0.47340  0.82520  Biso   1.000  H
  C17      1.0000 0.18570  0.82800  0.49020  Biso   1.000  C
  C18      1.0000 0.81430  0.17200  0.50980  Biso   1.000  C
  H33      1.0000 0.16310  0.85300  0.54020  Biso   1.000  H
  H34      1.0000 0.83690  0.14700  0.45980  Biso   1.000  H
  H35      1.0000 0.25950  0.86490  0.49580  Biso   1.000  H
  H36      1.0000 0.74050  0.13510  0.50420  Biso   1.000  H
  H37      1.0000 0.18820  0.77050  0.48190  Biso   1.000  H
  H38      1.0000 0.81180  0.22950  0.51810  Biso   1.000  H
  C19      1.0000 0.90990  0.96960  0.30420  Biso   1.000  C
  C20      1.0000 0.09010  0.03040  0.69580  Biso   1.000  C
  H39      1.0000 0.91130  0.02500  0.30800  Biso   1.000  H
  H40      1.0000 0.08870  0.97500  0.69200  Biso   1.000  H
  N9       1.0000 0.33780  0.72870  0.37670  Biso   1.000  N
  N10      1.0000 0.66220  0.27130  0.62330  Biso   1.000  N
  O9       1.0000 0.11500  0.61070  0.23280  Biso   1.000  O
  O10      1.0000 0.88500  0.38930  0.76720  Biso   1.000  O
  C21      1.0000 0.99470  0.96770  0.36470  Biso   1.000  C
  C22      1.0000 0.00530  0.03230  0.63530  Biso   1.000  C
  C23      1.0000 0.23680  0.57670  0.14500  Biso   1.000  C
  C24      1.0000 0.76320  0.42330  0.85500  Biso   1.000  C
  C25      1.0000 0.26660  0.57520  0.07250  Biso   1.000  C
  C26      1.0000 0.73340  0.42480  0.92750  Biso   1.000  C
  H41      1.0000 0.32900  0.55840  0.06110  Biso   1.000  H
  H42      1.0000 0.67100  0.44160  0.93890  Biso   1.000  H
  O11      1.0000 0.07010  0.63330  0.36580  Biso   1.000  O
  O12      1.0000 0.92990  0.36670  0.63420  Biso   1.000  O
  C27      1.0000 0.06670  0.04860  0.42640  Biso   1.000  C
  C28      1.0000 0.93330  0.95140  0.57360  Biso   1.000  C
  H43      1.0000 0.05660  0.10020  0.42640  Biso   1.000  H
  H44      1.0000 0.94340  0.89980  0.57360  Biso   1.000  H
  C29      1.0000 0.20740  0.59720  0.01930  Biso   1.000  C
  C30      1.0000 0.79260  0.40280  0.98070  Biso   1.000  C
  H45      1.0000 0.22980  0.59820  0.97240  Biso   1.000  H
  H46      1.0000 0.77020  0.40180  0.02760  Biso   1.000  H
  O13      1.0000 0.99050  0.63900  0.12660  Biso   1.000  O
  O14      1.0000 0.00950  0.36100  0.87340  Biso   1.000  O
  C31      1.0000 0.15140  0.05290  0.48650  Biso   1.000  C
  C32      1.0000 0.84860  0.94710  0.51350  Biso   1.000  C
  H47      1.0000 0.19910  0.10730  0.52770  Biso   1.000  H
  H48      1.0000 0.80090  0.89270  0.47230  Biso   1.000  H
  C33      1.0000 0.91210  0.63990  0.06010  Biso   1.000  C
  C34      1.0000 0.08790  0.36010  0.93990  Biso   1.000  C
  H49      1.0000 0.90190  0.59030  0.00890  Biso   1.000  H
  H50      1.0000 0.09810  0.40970  0.99110  Biso   1.000  H
  H51      1.0000 0.94110  0.69320  0.05390  Biso   1.000  H
  H52      1.0000 0.05890  0.30680  0.94610  Biso   1.000  H
  H53      1.0000 0.84040  0.63670  0.07270  Biso   1.000  H
  H54      1.0000 0.15960  0.36330  0.92730  Biso   1.000  H
  C35      1.0000 0.11310  0.61840  0.03500  Biso   1.000  C
  C36      1.0000 0.88690  0.38160  0.96500  Biso   1.000  C
  H55      1.0000 0.06990  0.63230  0.99760  Biso   1.000  H
  H56      1.0000 0.93010  0.36770  0.00240  Biso   1.000  H
  O15      1.0000 0.89440  0.67780  0.38580  Biso   1.000  O
  O16      1.0000 0.10560  0.32220  0.61420  Biso   1.000  O
  C37      1.0000 0.16640  0.97910  0.48660  Biso   1.000  C
  C38      1.0000 0.83360  0.02090  0.51340  Biso   1.000  C
  H57      1.0000 0.22410  0.98220  0.52840  Biso   1.000  H
  H58      1.0000 0.77590  0.01780  0.47160  Biso   1.000  H
  C39      1.0000 0.08170  0.61920  0.10530  Biso   1.000  C
  C40      1.0000 0.91830  0.38080  0.89470  Biso   1.000  C
  C41      1.0000 0.09760  0.89920  0.42560  Biso   1.000  C
  C42      1.0000 0.90240  0.10080  0.57440  Biso   1.000  C
  C43      1.0000 0.01020  0.89300  0.36390  Biso   1.000  C
  C44      1.0000 0.98980  0.10700  0.63610  Biso   1.000  C
  C45      1.0000 0.03360  0.62860  0.43070  Biso   1.000  C
  C46      1.0000 0.96640  0.37140  0.56930  Biso   1.000  C
  N11      1.0000 0.15050  0.79350  0.26140  Biso   1.000  N
  N12      1.0000 0.84950  0.20650  0.73860  Biso   1.000  N
  O17      1.0000 0.64010  0.46470  0.35050  Biso   1.000  O
  O18      1.0000 0.35990  0.53530  0.64950  Biso   1.000  O
  C47      1.0000 0.21280  0.83190  0.23760  Biso   1.000  C
  C48      1.0000 0.78720  0.16810  0.76240  Biso   1.000  C
  N13      1.0000 0.39470  0.79130  0.12070  Biso   1.000  N
  N14      1.0000 0.60530  0.20870  0.87930  Biso   1.000  N
  C49      1.0000 0.73420  0.59740  0.17840  Biso   1.000  C
  C50      1.0000 0.26580  0.40260  0.82160  Biso   1.000  C
  C51      1.0000 0.14630  0.60300  0.16410  Biso   1.000  C
  C52      1.0000 0.85370  0.39700  0.83590  Biso   1.000  C
  N15      1.0000 0.25370  0.31520  0.35080  Biso   1.000  N
  N16      1.0000 0.74630  0.68480  0.64920  Biso   1.000  N
  C53      1.0000 0.75100  0.52480  0.18530  Biso   1.000  C
  C54      1.0000 0.24900  0.47520  0.81470  Biso   1.000  C
  C55      1.0000 0.93920  0.65310  0.44430  Biso   1.000  C
  C56      1.0000 0.06080  0.34690  0.55570  Biso   1.000  C
  N17      1.0000 0.46310  0.28580  0.17730  Biso   1.000  N
  N18      1.0000 0.53690  0.71420  0.82270  Biso   1.000  N
  C57      1.0000 0.66390  0.44890  0.15840  Biso   1.000  C
  C58      1.0000 0.33610  0.55110  0.84160  Biso   1.000  C
  H59      1.0000 0.67680  0.40220  0.16800  Biso   1.000  H
  H60      1.0000 0.32320  0.59780  0.83200  Biso   1.000  H
  C59      1.0000 0.89920  0.65370  0.51150  Biso   1.000  C
  C60      1.0000 0.10080  0.34630  0.48850  Biso   1.000  C
  H61      1.0000 0.83630  0.67140  0.51930  Biso   1.000  H
  H62      1.0000 0.16370  0.32860  0.48070  Biso   1.000  H
  C61      1.0000 0.55740  0.43970  0.11730  Biso   1.000  C
  C62      1.0000 0.44260  0.56030  0.88270  Biso   1.000  C
  H63      1.0000 0.49740  0.38800  0.10020  Biso   1.000  H
  H64      1.0000 0.50260  0.61200  0.89980  Biso   1.000  H
  C63      1.0000 0.95220  0.62840  0.56710  Biso   1.000  C
  C64      1.0000 0.04780  0.37160  0.43290  Biso   1.000  C
  H65      1.0000 0.92590  0.62820  0.61290  Biso   1.000  H
  H66      1.0000 0.07410  0.37180  0.38710  Biso   1.000  H
  C65      1.0000 0.54170  0.50720  0.10230  Biso   1.000  C
  C66      1.0000 0.45830  0.49280  0.89770  Biso   1.000  C
  H67      1.0000 0.47070  0.50060  0.07140  Biso   1.000  H
  H68      1.0000 0.52930  0.49940  0.92860  Biso   1.000  H
  C67      1.0000 0.04290  0.60380  0.55410  Biso   1.000  C
  C68      1.0000 0.95710  0.39620  0.44590  Biso   1.000  C
  H69      1.0000 0.07910  0.58630  0.59160  Biso   1.000  H
  H70      1.0000 0.92090  0.41370  0.40840  Biso   1.000  H
  C69      1.0000 0.62870  0.58650  0.13170  Biso   1.000  C
  C70      1.0000 0.37130  0.41350  0.86830  Biso   1.000  C
  C71      1.0000 0.08520  0.60330  0.48640  Biso   1.000  C
  C72      1.0000 0.91480  0.39670  0.51360  Biso   1.000  C
  C73      1.0000 0.18300  0.57870  0.48020  Biso   1.000  C
  C74      1.0000 0.81700  0.42130  0.51980  Biso   1.000  C
  H71      1.0000 0.21380  0.56530  0.52310  Biso   1.000  H
  H72      1.0000 0.78620  0.43470  0.47690  Biso   1.000  H
  C75      1.0000 0.60880  0.65190  0.10690  Biso   1.000  C
  C76      1.0000 0.39120  0.34810  0.89310  Biso   1.000  C
  H73      1.0000 0.53840  0.63670  0.07000  Biso   1.000  H
  H74      1.0000 0.46160  0.36330  0.93000  Biso   1.000  H
  C77      1.0000 0.49070  0.08410  0.39470  Biso   1.000  C
  C78      1.0000 0.50930  0.91590  0.60530  Biso   1.000  C
  N19      1.0000 0.65950  0.78920  0.30700  Biso   1.000  N
  N20      1.0000 0.34050  0.21080  0.69300  Biso   1.000  N
  C79      1.0000 0.41360  0.02920  0.41680  Biso   1.000  C
  C80      1.0000 0.58640  0.97080  0.58320  Biso   1.000  C
  H75      1.0000 0.36170  0.05020  0.44280  Biso   1.000  H
  H76      1.0000 0.63830  0.94980  0.55720  Biso   1.000  H
  C81      1.0000 0.41250  0.94740  0.40150  Biso   1.000  C
  C82      1.0000 0.58750  0.05260  0.59850  Biso   1.000  C
  H77      1.0000 0.35800  0.91130  0.41440  Biso   1.000  H
  H78      1.0000 0.64200  0.08870  0.58560  Biso   1.000  H
  N21      1.0000 0.36810  0.23460  0.49630  Biso   1.000  N
  N22      1.0000 0.63190  0.76540  0.50370  Biso   1.000  N
  N23      1.0000 0.62020  0.26780  0.36420  Biso   1.000  N
  N24      1.0000 0.37980  0.73220  0.63580  Biso   1.000  N
  C83      1.0000 0.56900  0.05180  0.35610  Biso   1.000  C
  C84      1.0000 0.43100  0.94820  0.64390  Biso   1.000  C
  H79      1.0000 0.61940  0.08620  0.33890  Biso   1.000  H
  H80      1.0000 0.38060  0.91380  0.66110  Biso   1.000  H
  N25      1.0000 0.05760  0.36450  0.22440  Biso   1.000  N
  N26      1.0000 0.94240  0.63550  0.77560  Biso   1.000  N
  C85      1.0000 0.12580  0.18430  0.10610  Biso   1.000  C
  C86      1.0000 0.87420  0.81570  0.89390  Biso   1.000  C
  C87      1.0000 0.05420  0.14080  0.14210  Biso   1.000  C
  C88      1.0000 0.94580  0.85920  0.85790  Biso   1.000  C
  H81      1.0000 0.01720  0.17130  0.17740  Biso   1.000  H
  H82      1.0000 0.98280  0.82870  0.82260  Biso   1.000  H
  N27      1.0000 0.96250  0.84340  0.13000  Biso   1.000  N
  N28      1.0000 0.03750  0.15660  0.87000  Biso   1.000  N
  N29      1.0000 0.17700  0.83090  0.96910  Biso   1.000  N
  N30      1.0000 0.82300  0.16910  0.03090  Biso   1.000  N
  C89      1.0000 0.03920  0.05660  0.12600  Biso   1.000  C
  C90      1.0000 0.96080  0.94340  0.87400  Biso   1.000  C
  H83      1.0000 0.99110  0.02920  0.14990  Biso   1.000  H
  H84      1.0000 0.00890  0.97080  0.85010  Biso   1.000  H
  C91      1.0000 0.09440  0.00890  0.07410  Biso   1.000  C
  C92      1.0000 0.90560  0.99110  0.92590  Biso   1.000  C
  N31      1.0000 0.27610  0.35480  0.06390  Biso   1.000  N
  N32      1.0000 0.72390  0.64520  0.93610  Biso   1.000  N
  C93      1.0000 0.16440  0.05190  0.03800  Biso   1.000  C
  C94      1.0000 0.83560  0.94810  0.96200  Biso   1.000  C
  H85      1.0000 0.20100  0.02110  0.00250  Biso   1.000  H
  H86      1.0000 0.79900  0.97890  0.99750  Biso   1.000  H
  C95      1.0000 0.18000  0.13580  0.05340  Biso   1.000  C
  C96      1.0000 0.82000  0.86420  0.94660  Biso   1.000  C
  H87      1.0000 0.22740  0.16250  0.02870  Biso   1.000  H
  H88      1.0000 0.77260  0.83750  0.97130  Biso   1.000  H
  N33      1.0000 0.61970  0.03890  0.09510  Biso   1.000  N
  N34      1.0000 0.38030  0.96110  0.90490  Biso   1.000  N
  N35      1.0000 0.81430  0.24320  0.23720  Biso   1.000  N
  N36      1.0000 0.18570  0.75680  0.76280  Biso   1.000  N
  C97      1.0000 0.40950  0.77480  0.36660  Biso   1.000  C
  C98      1.0000 0.59050  0.22520  0.63340  Biso   1.000  C
  C99      1.0000 0.58420  0.80650  0.32800  Biso   1.000  C
  C100     1.0000 0.41580  0.19350  0.67200  Biso   1.000  C
  C101     1.0000 0.49640  0.83290  0.35380  Biso   1.000  C
  C102     1.0000 0.50360  0.16710  0.64620  Biso   1.000  C
  C103     1.0000 0.30330  0.96400  0.22120  Biso   1.000  C
  C104     1.0000 0.69670  0.03600  0.77880  Biso   1.000  C
  C105     1.0000 0.24220  0.01100  0.26860  Biso   1.000  C
  C106     1.0000 0.75780  0.98900  0.73140  Biso   1.000  C
  H89      1.0000 0.19190  0.98400  0.29140  Biso   1.000  H
  H90      1.0000 0.80810  0.01600  0.70860  Biso   1.000  H
  C107     1.0000 0.25610  0.09380  0.28080  Biso   1.000  C
  C108     1.0000 0.74390  0.90620  0.71920  Biso   1.000  C
  H91      1.0000 0.21650  0.12480  0.31330  Biso   1.000  H
  H92      1.0000 0.78350  0.87520  0.68670  Biso   1.000  H
  C109     1.0000 0.33070  0.13570  0.24490  Biso   1.000  C
  C110     1.0000 0.66930  0.86430  0.75510  Biso   1.000  C
  C111     1.0000 0.39060  0.08920  0.19840  Biso   1.000  C
  C112     1.0000 0.60940  0.91080  0.80160  Biso   1.000  C
  H93      1.0000 0.44010  0.11600  0.17500  Biso   1.000  H
  H94      1.0000 0.55990  0.88400  0.82500  Biso   1.000  H
  C113     1.0000 0.37830  0.00610  0.18660  Biso   1.000  C
  C114     1.0000 0.62170  0.99390  0.81340  Biso   1.000  C
  H95      1.0000 0.41950  0.97600  0.15540  Biso   1.000  H
  H96      1.0000 0.58050  0.02400  0.84460  Biso   1.000  H
  C115     1.0000 0.80380  0.70840  0.40070  Biso   1.000  C
  C116     1.0000 0.19620  0.29160  0.59930  Biso   1.000  C
  H97      1.0000 0.74090  0.66130  0.39640  Biso   1.000  H
  H98      1.0000 0.25910  0.33870  0.60360  Biso   1.000  H
  H99      1.0000 0.78150  0.72960  0.36000  Biso   1.000  H
  H100     1.0000 0.21850  0.27040  0.64000  Biso   1.000  H
  H101     1.0000 0.82680  0.75530  0.45580  Biso   1.000  H
  H102     1.0000 0.17320  0.24470  0.54420  Biso   1.000  H
  C117     1.0000 0.28990  0.87870  0.20770  Biso   1.000  C
  C118     1.0000 0.71010  0.12130  0.79230  Biso   1.000  C
  C119     1.0000 0.34760  0.83000  0.16000  Biso   1.000  C
  C120     1.0000 0.65240  0.17000  0.84000  Biso   1.000  C
  C121     1.0000 0.83190  0.18880  0.27990  Biso   1.000  C
  C122     1.0000 0.16810  0.81120  0.72010  Biso   1.000  C
  C123     1.0000 0.84500  0.14930  0.31450  Biso   1.000  C
  C124     1.0000 0.15500  0.85070  0.68550  Biso   1.000  C
  H103     1.0000 0.86110  0.18460  0.37340  Biso   1.000  H
  H104     1.0000 0.13890  0.81540  0.62660  Biso   1.000  H
  H105     1.0000 0.90770  0.12910  0.30350  Biso   1.000  H
  H106     1.0000 0.09230  0.87090  0.69650  Biso   1.000  H
  H107     1.0000 0.77750  0.09970  0.29670  Biso   1.000  H
  H108     1.0000 0.22250  0.90030  0.70330  Biso   1.000  H
  C125     1.0000 0.71210  0.41640  0.33410  Biso   1.000  C
  C126     1.0000 0.28790  0.58360  0.66590  Biso   1.000  C
  H109     1.0000 0.72590  0.40960  0.28110  Biso   1.000  H
  H110     1.0000 0.27410  0.59040  0.71890  Biso   1.000  H
  H111     1.0000 0.67800  0.35960  0.33240  Biso   1.000  H
  H112     1.0000 0.32200  0.64040  0.66760  Biso   1.000  H
  H113     1.0000 0.78270  0.44620  0.37740  Biso   1.000  H
  H114     1.0000 0.21730  0.55380  0.62260  Biso   1.000  H
  C127     1.0000 0.56980  0.14870  0.04600  Biso   1.000  C
  C128     1.0000 0.43020  0.85130  0.95400  Biso   1.000  C
  H115     1.0000 0.56380  0.19610  0.09250  Biso   1.000  H
  H116     1.0000 0.43620  0.80390  0.90750  Biso   1.000  H
  H117     1.0000 0.49860  0.12060  0.00330  Biso   1.000  H
  H118     1.0000 0.50140  0.87940  0.99670  Biso   1.000  H
  H119     1.0000 0.62820  0.17120  0.02370  Biso   1.000  H
  H120     1.0000 0.37180  0.82880  0.97630  Biso   1.000  H
  C129     1.0000 0.59740  0.08690  0.07300  Biso   1.000  C
  C130     1.0000 0.40260  0.91310  0.92700  Biso   1.000  C
  C131     1.0000 0.34330  0.22080  0.25540  Biso   1.000  C
  C132     1.0000 0.65670  0.77920  0.74460  Biso   1.000  C
  C133     1.0000 0.29310  0.27230  0.30670  Biso   1.000  C
  C134     1.0000 0.70690  0.72770  0.69330  Biso   1.000  C
  C135     1.0000 0.41030  0.25840  0.21280  Biso   1.000  C
  C136     1.0000 0.58970  0.74160  0.78720  Biso   1.000  C
  C137     1.0000 0.49310  0.91620  0.36610  Biso   1.000  C
  C138     1.0000 0.50690  0.08380  0.63390  Biso   1.000  C
  C139     1.0000 0.57100  0.97200  0.34440  Biso   1.000  C
  C140     1.0000 0.42900  0.02800  0.65560  Biso   1.000  C
  H121     1.0000 0.62550  0.95220  0.32110  Biso   1.000  H
  H122     1.0000 0.37450  0.04780  0.67890  Biso   1.000  H
  C141     1.0000 0.49070  0.16820  0.41000  Biso   1.000  C
  C142     1.0000 0.50930  0.83180  0.59000  Biso   1.000  C
  C143     1.0000 0.42240  0.20450  0.45720  Biso   1.000  C
  C144     1.0000 0.57760  0.79550  0.54280  Biso   1.000  C
  C145     1.0000 0.56410  0.22320  0.38510  Biso   1.000  C
  C146     1.0000 0.43590  0.77680  0.61490  Biso   1.000  C
  C147     1.0000 0.14480  0.27210  0.12410  Biso   1.000  C
  C148     1.0000 0.85520  0.72790  0.87590  Biso   1.000  C
  C149     1.0000 0.09550  0.32310  0.17970  Biso   1.000  C
  C150     1.0000 0.90450  0.67690  0.82030  Biso   1.000  C
  C151     1.0000 0.21750  0.31730  0.09050  Biso   1.000  C
  C152     1.0000 0.78250  0.68270  0.90950  Biso   1.000  C
  C153     1.0000 0.08070  0.92340  0.06030  Biso   1.000  C
  C154     1.0000 0.91930  0.07660  0.93970  Biso   1.000  C
  C155     1.0000 0.01400  0.88000  0.09870  Biso   1.000  C
  C156     1.0000 0.98600  0.12000  0.90130  Biso   1.000  C
  C157     1.0000 0.13440  0.87250  0.00850  Biso   1.000  C
  C158     1.0000 0.86560  0.12750  0.99150  Biso   1.000  C
