data_image0
_cell_length_a       3.5521
_cell_length_b       15.8665
_cell_length_c       12.9977
_cell_angle_alpha    90
_cell_angle_beta     95.285
_cell_angle_gamma    90

_symmetry_space_group_name_H-M    "P 1"
_symmetry_int_tables_number       1

loop_
  _symmetry_equiv_pos_as_xyz
  'x, y, z'

loop_
  _atom_site_label
  _atom_site_occupancy
  _atom_site_fract_x
  _atom_site_fract_y
  _atom_site_fract_z
  _atom_site_thermal_displace_type
  _atom_site_B_iso_or_equiv
  _atom_site_type_symbol
  Cu1      1.0000 0.26556  0.57746  0.49570  Biso   1.000  Cu
  Cu2      1.0000 0.23444  0.07746  0.00430  Biso   1.000  Cu
  Cu3      1.0000 0.73444  0.42254  0.50430  Biso   1.000  Cu
  Cu4      1.0000 0.76556  0.92254  0.99570  Biso   1.000  Cu
  O1       1.0000 0.30640  0.47158  0.56988  Biso   1.000  O
  O2       1.0000 0.19360  0.97158  0.93012  Biso   1.000  O
  O3       1.0000 0.69360  0.52842  0.43012  Biso   1.000  O
  O4       1.0000 0.80640  0.02842  0.06988  Biso   1.000  O
  H1       1.0000 0.31000  0.48500  0.63250  Biso   1.000  H
  H2       1.0000 0.19000  0.98500  0.86750  Biso   1.000  H
  H3       1.0000 0.69000  0.51500  0.36750  Biso   1.000  H
  H4       1.0000 0.81000  0.01500  0.13250  Biso   1.000  H
  O5       1.0000 0.03590  0.64127  0.60734  Biso   1.000  O
  O6       1.0000 0.46410  0.14127  0.89266  Biso   1.000  O
  O7       1.0000 0.96410  0.35873  0.39266  Biso   1.000  O
  O8       1.0000 0.53590  0.85873  0.10734  Biso   1.000  O
  O9       1.0000 0.16310  0.55460  0.74215  Biso   1.000  O
  O10      1.0000 0.33690  0.05460  0.75785  Biso   1.000  O
  O11      1.0000 0.83690  0.44540  0.25785  Biso   1.000  O
  O12      1.0000 0.66310  0.94540  0.24215  Biso   1.000  O
  C1       1.0000 0.05360  0.62216  0.70236  Biso   1.000  C
  C2       1.0000 0.44640  0.12216  0.79764  Biso   1.000  C
  C3       1.0000 0.94640  0.37784  0.29764  Biso   1.000  C
  C4       1.0000 0.55360  0.87784  0.20236  Biso   1.000  C
  C5       1.0000 0.93310  0.69154  0.77283  Biso   1.000  C
  C6       1.0000 0.56690  0.19154  0.72717  Biso   1.000  C
  C7       1.0000 0.06690  0.30846  0.22717  Biso   1.000  C
  C8       1.0000 0.43310  0.80846  0.27283  Biso   1.000  C
  C9       1.0000 0.92610  0.67750  0.87796  Biso   1.000  C
  C10      1.0000 0.57390  0.17750  0.62204  Biso   1.000  C
  C11      1.0000 0.07390  0.32250  0.12204  Biso   1.000  C
  C12      1.0000 0.42610  0.82250  0.37796  Biso   1.000  C
  H5       1.0000 0.97730  0.62430  0.90570  Biso   1.000  H
  H6       1.0000 0.52270  0.12430  0.59430  Biso   1.000  H
  H7       1.0000 0.02270  0.37570  0.09430  Biso   1.000  H
  H8       1.0000 0.47730  0.87570  0.40570  Biso   1.000  H
  C13      1.0000 0.84240  0.77078  0.73527  Biso   1.000  C
  C14      1.0000 0.65760  0.27078  0.76473  Biso   1.000  C
  C15      1.0000 0.15760  0.22922  0.26473  Biso   1.000  C
  C16      1.0000 0.34240  0.72922  0.23527  Biso   1.000  C
  H9       1.0000 0.83630  0.78190  0.66490  Biso   1.000  H
  H10      1.0000 0.66370  0.28190  0.83510  Biso   1.000  H
  H11      1.0000 0.16370  0.21810  0.33510  Biso   1.000  H
  H12      1.0000 0.33630  0.71810  0.16490  Biso   1.000  H
  C17      1.0000 0.84210  0.74367  0.94069  Biso   1.000  C
  C18      1.0000 0.65790  0.24367  0.55931  Biso   1.000  C
  C19      1.0000 0.15790  0.25633  0.05931  Biso   1.000  C
  C20      1.0000 0.34210  0.75633  0.44069  Biso   1.000  C
  H13      1.0000 0.83850  0.73370  0.01110  Biso   1.000  H
  H14      1.0000 0.66150  0.23370  0.48890  Biso   1.000  H
  H15      1.0000 0.16150  0.26630  0.98890  Biso   1.000  H
  H16      1.0000 0.33850  0.76630  0.51110  Biso   1.000  H
  C21      1.0000 0.76100  0.83337  0.80288  Biso   1.000  C
  C22      1.0000 0.73900  0.33337  0.69712  Biso   1.000  C
  C23      1.0000 0.23900  0.16663  0.19712  Biso   1.000  C
  C24      1.0000 0.26100  0.66663  0.30288  Biso   1.000  C
  H17      1.0000 0.69980  0.88660  0.77660  Biso   1.000  H
  H18      1.0000 0.80020  0.38660  0.72340  Biso   1.000  H
  H19      1.0000 0.30020  0.11340  0.22340  Biso   1.000  H
  H20      1.0000 0.19980  0.61340  0.27660  Biso   1.000  H
  N1       1.0000 0.76590  0.82114  0.90521  Biso   1.000  N
  N2       1.0000 0.73410  0.32114  0.59479  Biso   1.000  N
  N3       1.0000 0.23410  0.17886  0.09479  Biso   1.000  N
  N4       1.0000 0.26590  0.67886  0.40521  Biso   1.000  N
  O13      1.0000 0.29100  0.44480  0.90860  Biso   1.000  O
  O14      1.0000 0.20900  0.94480  0.59140  Biso   1.000  O
  O15      1.0000 0.70900  0.55520  0.09140  Biso   1.000  O
  O16      1.0000 0.79100  0.05520  0.40860  Biso   1.000  O
  H21      1.0000 0.41400  0.47900  0.95100  Biso   1.000  H
  H22      1.0000 0.08600  0.97900  0.54900  Biso   1.000  H
  H23      1.0000 0.58600  0.52100  0.04900  Biso   1.000  H
  H24      1.0000 0.91400  0.02100  0.45100  Biso   1.000  H
  H25      1.0000 0.06400  0.46300  0.90200  Biso   1.000  H
  H26      1.0000 0.43600  0.96300  0.59800  Biso   1.000  H
  H27      1.0000 0.93600  0.53700  0.09800  Biso   1.000  H
  H28      1.0000 0.56400  0.03700  0.40200  Biso   1.000  H
  O17      1.0000 0.50300  0.45670  0.91400  Biso   1.000  O
  O18      1.0000 0.99700  0.95670  0.58600  Biso   1.000  O
  O19      1.0000 0.49700  0.54330  0.08600  Biso   1.000  O
  O20      1.0000 0.00300  0.04330  0.41400  Biso   1.000  O
  H29      1.0000 0.36700  0.48400  0.86800  Biso   1.000  H
  H30      1.0000 0.13300  0.98400  0.63200  Biso   1.000  H
  H31      1.0000 0.63300  0.51600  0.13200  Biso   1.000  H
  H32      1.0000 0.86700  0.01600  0.36800  Biso   1.000  H
  H33      1.0000 0.73100  0.47300  0.91600  Biso   1.000  H
  H34      1.0000 0.76900  0.97300  0.58400  Biso   1.000  H
  H35      1.0000 0.26900  0.52700  0.08400  Biso   1.000  H
  H36      1.0000 0.23100  0.02700  0.41600  Biso   1.000  H
