data_image0
_cell_length_a       3.534
_cell_length_b       15.768
_cell_length_c       13.0052
_cell_angle_alpha    90
_cell_angle_beta     96.885
_cell_angle_gamma    90

_symmetry_space_group_name_H-M    "P 1"
_symmetry_int_tables_number       1

loop_
  _symmetry_equiv_pos_as_xyz
  'x, y, z'

loop_
  _atom_site_label
  _atom_site_occupancy
  _atom_site_fract_x
  _atom_site_fract_y
  _atom_site_fract_z
  _atom_site_thermal_displace_type
  _atom_site_B_iso_or_equiv
  _atom_site_type_symbol
  Cu1      1.0000 0.26242  0.07802  0.49492  Biso   1.000  Cu
  Cu2      1.0000 0.76242  0.42198  0.99492  Biso   1.000  Cu
  Cu3      1.0000 0.73758  0.92198  0.50508  Biso   1.000  Cu
  Cu4      1.0000 0.23758  0.57802  0.00508  Biso   1.000  Cu
  O1       1.0000 0.31310  0.97162  0.57051  Biso   1.000  O
  O2       1.0000 0.81310  0.52838  0.07051  Biso   1.000  O
  O3       1.0000 0.68690  0.02838  0.42949  Biso   1.000  O
  O4       1.0000 0.18690  0.47162  0.92949  Biso   1.000  O
  H1       1.0000 0.35020  0.97605  0.63608  Biso   1.000  H
  H2       1.0000 0.85020  0.52395  0.13608  Biso   1.000  H
  H3       1.0000 0.64980  0.02395  0.36392  Biso   1.000  H
  H4       1.0000 0.14980  0.47605  0.86392  Biso   1.000  H
  N1       1.0000 0.25710  0.17961  0.40350  Biso   1.000  N
  N2       1.0000 0.75710  0.32039  0.90350  Biso   1.000  N
  N3       1.0000 0.74290  0.82039  0.59650  Biso   1.000  N
  N4       1.0000 0.24290  0.67961  0.09650  Biso   1.000  N
  C1       1.0000 0.25480  0.16540  0.30110  Biso   1.000  C
  C2       1.0000 0.75480  0.33460  0.80110  Biso   1.000  C
  C3       1.0000 0.74520  0.83460  0.69890  Biso   1.000  C
  C4       1.0000 0.24520  0.66540  0.19890  Biso   1.000  C
  H5       1.0000 0.19280  0.11150  0.27530  Biso   1.000  H
  H6       1.0000 0.69280  0.38850  0.77530  Biso   1.000  H
  H7       1.0000 0.80720  0.88850  0.72470  Biso   1.000  H
  H8       1.0000 0.30720  0.61150  0.22470  Biso   1.000  H
  C5       1.0000 0.34140  0.22810  0.23320  Biso   1.000  C
  C6       1.0000 0.84140  0.27190  0.73320  Biso   1.000  C
  C7       1.0000 0.65860  0.77190  0.76680  Biso   1.000  C
  C8       1.0000 0.15860  0.72810  0.26680  Biso   1.000  C
  H9       1.0000 0.33700  0.21640  0.16300  Biso   1.000  H
  H10      1.0000 0.83700  0.28360  0.66300  Biso   1.000  H
  H11      1.0000 0.66300  0.78360  0.83700  Biso   1.000  H
  H12      1.0000 0.16300  0.71640  0.33700  Biso   1.000  H
  C9       1.0000 0.43500  0.30860  0.27120  Biso   1.000  C
  C10      1.0000 0.93500  0.19140  0.77120  Biso   1.000  C
  C11      1.0000 0.56500  0.69140  0.72880  Biso   1.000  C
  C12      1.0000 0.06500  0.80860  0.22880  Biso   1.000  C
  C13      1.0000 0.42600  0.32380  0.37630  Biso   1.000  C
  C14      1.0000 0.92600  0.17620  0.87630  Biso   1.000  C
  C15      1.0000 0.57400  0.67620  0.62370  Biso   1.000  C
  C16      1.0000 0.07400  0.82380  0.12370  Biso   1.000  C
  H13      1.0000 0.48000  0.37760  0.40370  Biso   1.000  H
  H14      1.0000 0.98000  0.12240  0.90370  Biso   1.000  H
  H15      1.0000 0.52000  0.62240  0.59630  Biso   1.000  H
  H16      1.0000 0.02000  0.87760  0.09630  Biso   1.000  H
  C17      1.0000 0.33550  0.25800  0.43970  Biso   1.000  C
  C18      1.0000 0.83550  0.24200  0.93970  Biso   1.000  C
  C19      1.0000 0.66450  0.74200  0.56030  Biso   1.000  C
  C20      1.0000 0.16450  0.75800  0.06030  Biso   1.000  C
  H17      1.0000 0.32900  0.26860  0.50980  Biso   1.000  H
  H18      1.0000 0.82900  0.23140  0.00980  Biso   1.000  H
  H19      1.0000 0.67100  0.73140  0.49020  Biso   1.000  H
  H20      1.0000 0.17100  0.76860  0.99020  Biso   1.000  H
  C21      1.0000 0.56020  0.37740  0.20100  Biso   1.000  C
  C22      1.0000 0.06020  0.12260  0.70100  Biso   1.000  C
  C23      1.0000 0.43980  0.62260  0.79900  Biso   1.000  C
  C24      1.0000 0.93980  0.87740  0.29900  Biso   1.000  C
  O5       1.0000 0.53700  0.35786  0.10595  Biso   1.000  O
  O6       1.0000 0.03700  0.14214  0.60595  Biso   1.000  O
  O7       1.0000 0.46300  0.64214  0.89405  Biso   1.000  O
  O8       1.0000 0.96300  0.85786  0.39405  Biso   1.000  O
  O9       1.0000 0.68110  0.44504  0.24160  Biso   1.000  O
  O10      1.0000 0.18110  0.05496  0.74160  Biso   1.000  O
  O11      1.0000 0.31890  0.55496  0.75840  Biso   1.000  O
  O12      1.0000 0.81890  0.94504  0.25840  Biso   1.000  O
  O13      1.0000 0.92450  0.54640  0.41300  Biso   1.000  O
  O14      1.0000 0.42450  0.95360  0.91300  Biso   1.000  O
  O15      1.0000 0.07550  0.45360  0.58700  Biso   1.000  O
  O16      1.0000 0.57550  0.04640  0.08700  Biso   1.000  O
  H21      1.0000 0.90690  0.51300  0.46350  Biso   1.000  H
  H22      1.0000 0.40690  0.98700  0.96350  Biso   1.000  H
  H23      1.0000 0.09310  0.48700  0.53650  Biso   1.000  H
  H24      1.0000 0.59310  0.01300  0.03650  Biso   1.000  H
  H25      1.0000 0.15050  0.56560  0.41690  Biso   1.000  H
  H26      1.0000 0.65050  0.93440  0.91690  Biso   1.000  H
  H27      1.0000 0.84950  0.43440  0.58310  Biso   1.000  H
  H28      1.0000 0.34950  0.06560  0.08310  Biso   1.000  H
  H29      1.0000 0.76910  0.58760  0.41270  Biso   1.000  H
  H30      1.0000 0.26910  0.91240  0.91270  Biso   1.000  H
  H31      1.0000 0.23090  0.41240  0.58730  Biso   1.000  H
  H32      1.0000 0.73090  0.08760  0.08730  Biso   1.000  H
  H33      1.0000 0.87970  0.51910  0.35650  Biso   1.000  H
  H34      1.0000 0.37970  0.98090  0.85650  Biso   1.000  H
  H35      1.0000 0.12030  0.48090  0.64350  Biso   1.000  H
  H36      1.0000 0.62030  0.01910  0.14350  Biso   1.000  H
