data_image0
_cell_length_a       20.945
_cell_length_b       14.358
_cell_length_c       12.976
_cell_angle_alpha    90
_cell_angle_beta     113.356
_cell_angle_gamma    90

_symmetry_space_group_name_H-M    "P 1"
_symmetry_int_tables_number       1

loop_
  _symmetry_equiv_pos_as_xyz
  'x, y, z'

loop_
  _atom_site_label
  _atom_site_occupancy
  _atom_site_fract_x
  _atom_site_fract_y
  _atom_site_fract_z
  _atom_site_thermal_displace_type
  _atom_site_B_iso_or_equiv
  _atom_site_type_symbol
  Cu1      1.0000 0.50000  0.81210  0.75000  Biso   1.000  Cu
  Cu2      1.0000 0.00000  0.31210  0.75000  Biso   1.000  Cu
  Cu3      1.0000 0.50000  0.18790  0.25000  Biso   1.000  Cu
  Cu4      1.0000 0.00000  0.68790  0.25000  Biso   1.000  Cu
  Cu5      1.0000 0.66659  0.68786  0.58321  Biso   1.000  Cu
  Cu6      1.0000 0.33341  0.68786  0.91679  Biso   1.000  Cu
  Cu7      1.0000 0.16659  0.18786  0.58321  Biso   1.000  Cu
  Cu8      1.0000 0.83341  0.18786  0.91679  Biso   1.000  Cu
  Cu9      1.0000 0.33341  0.31214  0.41679  Biso   1.000  Cu
  Cu10     1.0000 0.66659  0.31214  0.08321  Biso   1.000  Cu
  Cu11     1.0000 0.83341  0.81214  0.41679  Biso   1.000  Cu
  Cu12     1.0000 0.16659  0.81214  0.08321  Biso   1.000  Cu
  O1       1.0000 0.76890  0.70920  0.62240  Biso   1.000  O
  O2       1.0000 0.23110  0.70920  0.87760  Biso   1.000  O
  O3       1.0000 0.26890  0.20920  0.62240  Biso   1.000  O
  O4       1.0000 0.73110  0.20920  0.87760  Biso   1.000  O
  O5       1.0000 0.23110  0.29080  0.37760  Biso   1.000  O
  O6       1.0000 0.76890  0.29080  0.12240  Biso   1.000  O
  O7       1.0000 0.73110  0.79080  0.37760  Biso   1.000  O
  O8       1.0000 0.26890  0.79080  0.12240  Biso   1.000  O
  C1       1.0000 0.50000  0.49220  0.75000  Biso   1.000  C
  C2       1.0000 0.00000  0.99220  0.75000  Biso   1.000  C
  C3       1.0000 0.50000  0.50780  0.25000  Biso   1.000  C
  C4       1.0000 0.00000  0.00780  0.25000  Biso   1.000  C
  H1       1.0000 0.50000  0.42740  0.75000  Biso   1.000  H
  H2       1.0000 0.00000  0.92740  0.75000  Biso   1.000  H
  H3       1.0000 0.50000  0.57260  0.25000  Biso   1.000  H
  H4       1.0000 0.00000  0.07260  0.25000  Biso   1.000  H
  O9       1.0000 0.56460  0.70950  0.54400  Biso   1.000  O
  O10      1.0000 0.43540  0.70950  0.95600  Biso   1.000  O
  O11      1.0000 0.06460  0.20950  0.54400  Biso   1.000  O
  O12      1.0000 0.93540  0.20950  0.95600  Biso   1.000  O
  O13      1.0000 0.43540  0.29050  0.45600  Biso   1.000  O
  O14      1.0000 0.56460  0.29050  0.04400  Biso   1.000  O
  O15      1.0000 0.93540  0.79050  0.45600  Biso   1.000  O
  O16      1.0000 0.06460  0.79050  0.04400  Biso   1.000  O
  O17      1.0000 0.49210  0.82760  0.54030  Biso   1.000  O
  O18      1.0000 0.50790  0.82760  0.95970  Biso   1.000  O
  O19      1.0000 0.99210  0.32760  0.54030  Biso   1.000  O
  O20      1.0000 0.00790  0.32760  0.95970  Biso   1.000  O
  O21      1.0000 0.50790  0.17240  0.45970  Biso   1.000  O
  O22      1.0000 0.49210  0.17240  0.04030  Biso   1.000  O
  O23      1.0000 0.00790  0.67240  0.45970  Biso   1.000  O
  O24      1.0000 0.99210  0.67240  0.04030  Biso   1.000  O
  C5       1.0000 0.66620  0.00750  0.58180  Biso   1.000  C
  C6       1.0000 0.33380  0.00750  0.91820  Biso   1.000  C
  C7       1.0000 0.16620  0.50750  0.58180  Biso   1.000  C
  C8       1.0000 0.83380  0.50750  0.91820  Biso   1.000  C
  C9       1.0000 0.33380  0.99250  0.41820  Biso   1.000  C
  C10      1.0000 0.66620  0.99250  0.08180  Biso   1.000  C
  C11      1.0000 0.83380  0.49250  0.41820  Biso   1.000  C
  C12      1.0000 0.16620  0.49250  0.08180  Biso   1.000  C
  H5       1.0000 0.66640  0.07220  0.58170  Biso   1.000  H
  H6       1.0000 0.33360  0.07220  0.91830  Biso   1.000  H
  H7       1.0000 0.16640  0.57220  0.58170  Biso   1.000  H
  H8       1.0000 0.83360  0.57220  0.91830  Biso   1.000  H
  H9       1.0000 0.33360  0.92780  0.41830  Biso   1.000  H
  H10      1.0000 0.66640  0.92780  0.08170  Biso   1.000  H
  H11      1.0000 0.83360  0.42780  0.41830  Biso   1.000  H
  H12      1.0000 0.16640  0.42780  0.08170  Biso   1.000  H
  N1       1.0000 0.50000  0.68250  0.75000  Biso   1.000  N
  N2       1.0000 0.00000  0.18250  0.75000  Biso   1.000  N
  N3       1.0000 0.50000  0.31750  0.25000  Biso   1.000  N
  N4       1.0000 0.00000  0.81750  0.25000  Biso   1.000  N
  N5       1.0000 0.66650  0.81840  0.58420  Biso   1.000  N
  N6       1.0000 0.33350  0.81840  0.91580  Biso   1.000  N
  N7       1.0000 0.16650  0.31840  0.58420  Biso   1.000  N
  N8       1.0000 0.83350  0.31840  0.91580  Biso   1.000  N
  N9       1.0000 0.33350  0.18160  0.41580  Biso   1.000  N
  N10      1.0000 0.66650  0.18160  0.08420  Biso   1.000  N
  N11      1.0000 0.83350  0.68160  0.41580  Biso   1.000  N
  N12      1.0000 0.16650  0.68160  0.08420  Biso   1.000  N
  N13      1.0000 0.50000  0.94580  0.75000  Biso   1.000  N
  N14      1.0000 0.00000  0.44580  0.75000  Biso   1.000  N
  N15      1.0000 0.50000  0.05420  0.25000  Biso   1.000  N
  N16      1.0000 0.00000  0.55420  0.25000  Biso   1.000  N
  C13      1.0000 0.72650  0.86100  0.60220  Biso   1.000  C
  C14      1.0000 0.27350  0.86100  0.89780  Biso   1.000  C
  C15      1.0000 0.22650  0.36100  0.60220  Biso   1.000  C
  C16      1.0000 0.77350  0.36100  0.89780  Biso   1.000  C
  C17      1.0000 0.27350  0.13900  0.39780  Biso   1.000  C
  C18      1.0000 0.72650  0.13900  0.10220  Biso   1.000  C
  C19      1.0000 0.77350  0.63900  0.39780  Biso   1.000  C
  C20      1.0000 0.22650  0.63900  0.10220  Biso   1.000  C
  C21      1.0000 0.44150  0.99910  0.72020  Biso   1.000  C
  C22      1.0000 0.55850  0.99910  0.77980  Biso   1.000  C
  C23      1.0000 0.94150  0.49910  0.72020  Biso   1.000  C
  C24      1.0000 0.05850  0.49910  0.77980  Biso   1.000  C
  C25      1.0000 0.55850  0.00090  0.27980  Biso   1.000  C
  C26      1.0000 0.44150  0.00090  0.22020  Biso   1.000  C
  C27      1.0000 0.05850  0.50090  0.27980  Biso   1.000  C
  C28      1.0000 0.94150  0.50090  0.22020  Biso   1.000  C
  H13      1.0000 0.39930  0.96790  0.69940  Biso   1.000  H
  H14      1.0000 0.60070  0.96790  0.80060  Biso   1.000  H
  H15      1.0000 0.89930  0.46790  0.69940  Biso   1.000  H
  H16      1.0000 0.10070  0.46790  0.80060  Biso   1.000  H
  H17      1.0000 0.60070  0.03210  0.30060  Biso   1.000  H
  H18      1.0000 0.39930  0.03210  0.19940  Biso   1.000  H
  H19      1.0000 0.10070  0.53210  0.30060  Biso   1.000  H
  H20      1.0000 0.89930  0.53210  0.19940  Biso   1.000  H
  C29      1.0000 0.43930  0.09450  0.71820  Biso   1.000  C
  C30      1.0000 0.56070  0.09450  0.78180  Biso   1.000  C
  C31      1.0000 0.93930  0.59450  0.71820  Biso   1.000  C
  C32      1.0000 0.06070  0.59450  0.78180  Biso   1.000  C
  C33      1.0000 0.56070  0.90550  0.28180  Biso   1.000  C
  C34      1.0000 0.43930  0.90550  0.21820  Biso   1.000  C
  C35      1.0000 0.06070  0.40550  0.28180  Biso   1.000  C
  C36      1.0000 0.93930  0.40550  0.21820  Biso   1.000  C
  H21      1.0000 0.39670  0.12500  0.69520  Biso   1.000  H
  H22      1.0000 0.60330  0.12500  0.80480  Biso   1.000  H
  H23      1.0000 0.89670  0.62500  0.69520  Biso   1.000  H
  H24      1.0000 0.10330  0.62500  0.80480  Biso   1.000  H
  H25      1.0000 0.60330  0.87500  0.30480  Biso   1.000  H
  H26      1.0000 0.39670  0.87500  0.19520  Biso   1.000  H
  H27      1.0000 0.10330  0.37500  0.30480  Biso   1.000  H
  H28      1.0000 0.89670  0.37500  0.19520  Biso   1.000  H
  C37      1.0000 0.50000  0.14550  0.75000  Biso   1.000  C
  C38      1.0000 0.00000  0.64550  0.75000  Biso   1.000  C
  C39      1.0000 0.50000  0.85450  0.25000  Biso   1.000  C
  C40      1.0000 0.00000  0.35450  0.25000  Biso   1.000  C
  C41      1.0000 0.60670  0.86290  0.56290  Biso   1.000  C
  C42      1.0000 0.39330  0.86290  0.93710  Biso   1.000  C
  C43      1.0000 0.10670  0.36290  0.56290  Biso   1.000  C
  C44      1.0000 0.89330  0.36290  0.93710  Biso   1.000  C
  C45      1.0000 0.39330  0.13710  0.43710  Biso   1.000  C
  C46      1.0000 0.60670  0.13710  0.06290  Biso   1.000  C
  C47      1.0000 0.89330  0.63710  0.43710  Biso   1.000  C
  C48      1.0000 0.10670  0.63710  0.06290  Biso   1.000  C
  N17      1.0000 0.66730  0.55620  0.58490  Biso   1.000  N
  N18      1.0000 0.33270  0.55620  0.91510  Biso   1.000  N
  N19      1.0000 0.16730  0.05620  0.58490  Biso   1.000  N
  N20      1.0000 0.83270  0.05620  0.91510  Biso   1.000  N
  N21      1.0000 0.33270  0.44380  0.41510  Biso   1.000  N
  N22      1.0000 0.66730  0.44380  0.08490  Biso   1.000  N
  N23      1.0000 0.83270  0.94380  0.41510  Biso   1.000  N
  N24      1.0000 0.16730  0.94380  0.08490  Biso   1.000  N
  C49      1.0000 0.60720  0.40730  0.55330  Biso   1.000  C
  C50      1.0000 0.39280  0.40730  0.94670  Biso   1.000  C
  C51      1.0000 0.10720  0.90730  0.55330  Biso   1.000  C
  C52      1.0000 0.89280  0.90730  0.94670  Biso   1.000  C
  C53      1.0000 0.39280  0.59270  0.44670  Biso   1.000  C
  C54      1.0000 0.60720  0.59270  0.05330  Biso   1.000  C
  C55      1.0000 0.89280  0.09270  0.44670  Biso   1.000  C
  C56      1.0000 0.10720  0.09270  0.05330  Biso   1.000  C
  H29      1.0000 0.56520  0.37550  0.53230  Biso   1.000  H
  H30      1.0000 0.43480  0.37550  0.96770  Biso   1.000  H
  H31      1.0000 0.06520  0.87550  0.53230  Biso   1.000  H
  H32      1.0000 0.93480  0.87550  0.96770  Biso   1.000  H
  H33      1.0000 0.43480  0.62450  0.46770  Biso   1.000  H
  H34      1.0000 0.56520  0.62450  0.03230  Biso   1.000  H
  H35      1.0000 0.93480  0.12450  0.46770  Biso   1.000  H
  H36      1.0000 0.06520  0.12450  0.03230  Biso   1.000  H
  C57      1.0000 0.56130  0.54090  0.77030  Biso   1.000  C
  C58      1.0000 0.43870  0.54090  0.72970  Biso   1.000  C
  C59      1.0000 0.06130  0.04090  0.77030  Biso   1.000  C
  C60      1.0000 0.93870  0.04090  0.72970  Biso   1.000  C
  C61      1.0000 0.43870  0.45910  0.22970  Biso   1.000  C
  C62      1.0000 0.56130  0.45910  0.27030  Biso   1.000  C
  C63      1.0000 0.93870  0.95910  0.22970  Biso   1.000  C
  C64      1.0000 0.06130  0.95910  0.27030  Biso   1.000  C
  H37      1.0000 0.60270  0.50940  0.78450  Biso   1.000  H
  H38      1.0000 0.39730  0.50940  0.71550  Biso   1.000  H
  H39      1.0000 0.10270  0.00940  0.78450  Biso   1.000  H
  H40      1.0000 0.89730  0.00940  0.71550  Biso   1.000  H
  H41      1.0000 0.39730  0.49060  0.21550  Biso   1.000  H
  H42      1.0000 0.60270  0.49060  0.28450  Biso   1.000  H
  H43      1.0000 0.89730  0.99060  0.21550  Biso   1.000  H
  H44      1.0000 0.10270  0.99060  0.28450  Biso   1.000  H
  C65      1.0000 0.66710  0.35760  0.58370  Biso   1.000  C
  C66      1.0000 0.33290  0.35760  0.91630  Biso   1.000  C
  C67      1.0000 0.16710  0.85760  0.58370  Biso   1.000  C
  C68      1.0000 0.83290  0.85760  0.91630  Biso   1.000  C
  C69      1.0000 0.33290  0.64240  0.41630  Biso   1.000  C
  C70      1.0000 0.66710  0.64240  0.08370  Biso   1.000  C
  C71      1.0000 0.83290  0.14240  0.41630  Biso   1.000  C
  C72      1.0000 0.16710  0.14240  0.08370  Biso   1.000  C
  C73      1.0000 0.66550  0.25460  0.58370  Biso   1.000  C
  C74      1.0000 0.33450  0.25460  0.91630  Biso   1.000  C
  C75      1.0000 0.16550  0.75460  0.58370  Biso   1.000  C
  C76      1.0000 0.83450  0.75460  0.91630  Biso   1.000  C
  C77      1.0000 0.33450  0.74540  0.41630  Biso   1.000  C
  C78      1.0000 0.66550  0.74540  0.08370  Biso   1.000  C
  C79      1.0000 0.83450  0.24540  0.41630  Biso   1.000  C
  C80      1.0000 0.16550  0.24540  0.08370  Biso   1.000  C
  H45      1.0000 0.61850  0.23360  0.56220  Biso   1.000  H
  H46      1.0000 0.38150  0.23360  0.93780  Biso   1.000  H
  H47      1.0000 0.11850  0.73360  0.56220  Biso   1.000  H
  H48      1.0000 0.88150  0.73360  0.93780  Biso   1.000  H
  H49      1.0000 0.38150  0.76640  0.43780  Biso   1.000  H
  H50      1.0000 0.61850  0.76640  0.06220  Biso   1.000  H
  H51      1.0000 0.88150  0.26640  0.43780  Biso   1.000  H
  H52      1.0000 0.11850  0.26640  0.06220  Biso   1.000  H
  H53      1.0000 0.69340  0.23200  0.65760  Biso   1.000  H
  H54      1.0000 0.30660  0.23200  0.84240  Biso   1.000  H
  H55      1.0000 0.19340  0.73200  0.65760  Biso   1.000  H
  H56      1.0000 0.80660  0.73200  0.84240  Biso   1.000  H
  H57      1.0000 0.30660  0.76800  0.34240  Biso   1.000  H
  H58      1.0000 0.69340  0.76800  0.15760  Biso   1.000  H
  H59      1.0000 0.80660  0.26800  0.34240  Biso   1.000  H
  H60      1.0000 0.19340  0.26800  0.15760  Biso   1.000  H
  H61      1.0000 0.68370  0.23120  0.53140  Biso   1.000  H
  H62      1.0000 0.31630  0.23120  0.96860  Biso   1.000  H
  H63      1.0000 0.18370  0.73120  0.53140  Biso   1.000  H
  H64      1.0000 0.81630  0.73120  0.96860  Biso   1.000  H
  H65      1.0000 0.31630  0.76880  0.46860  Biso   1.000  H
  H66      1.0000 0.68370  0.76880  0.03140  Biso   1.000  H
  H67      1.0000 0.81630  0.26880  0.46860  Biso   1.000  H
  H68      1.0000 0.18370  0.26880  0.03140  Biso   1.000  H
  C81      1.0000 0.50000  0.24710  0.75000  Biso   1.000  C
  C82      1.0000 0.00000  0.74710  0.75000  Biso   1.000  C
  C83      1.0000 0.50000  0.75290  0.25000  Biso   1.000  C
  C84      1.0000 0.00000  0.25290  0.25000  Biso   1.000  C
  H69      1.0000 0.45330  0.26940  0.72890  Biso   1.000  H
  H70      1.0000 0.54670  0.26940  0.77110  Biso   1.000  H
  H71      1.0000 0.95330  0.76940  0.72890  Biso   1.000  H
  H72      1.0000 0.04670  0.76940  0.77110  Biso   1.000  H
  H73      1.0000 0.54670  0.73060  0.27110  Biso   1.000  H
  H74      1.0000 0.45330  0.73060  0.22890  Biso   1.000  H
  H75      1.0000 0.04670  0.23060  0.27110  Biso   1.000  H
  H76      1.0000 0.95330  0.23060  0.22890  Biso   1.000  H
  H77      1.0000 0.51820  0.26940  0.69740  Biso   1.000  H
  H78      1.0000 0.48180  0.26940  0.80260  Biso   1.000  H
  H79      1.0000 0.01820  0.76940  0.69740  Biso   1.000  H
  H80      1.0000 0.98180  0.76940  0.80260  Biso   1.000  H
  H81      1.0000 0.48180  0.73060  0.30260  Biso   1.000  H
  H82      1.0000 0.51820  0.73060  0.19740  Biso   1.000  H
  H83      1.0000 0.98180  0.23060  0.30260  Biso   1.000  H
  H84      1.0000 0.01820  0.23060  0.19740  Biso   1.000  H
  H85      1.0000 0.52850  0.26940  0.82380  Biso   1.000  H
  H86      1.0000 0.47150  0.26940  0.67620  Biso   1.000  H
  H87      1.0000 0.02850  0.76940  0.82380  Biso   1.000  H
  H88      1.0000 0.97150  0.76940  0.67620  Biso   1.000  H
  H89      1.0000 0.47150  0.73060  0.17620  Biso   1.000  H
  H90      1.0000 0.52850  0.73060  0.32380  Biso   1.000  H
  H91      1.0000 0.97150  0.23060  0.17620  Biso   1.000  H
  H92      1.0000 0.02850  0.23060  0.32380  Biso   1.000  H
  C85      1.0000 0.55940  0.63590  0.76900  Biso   1.000  C
  C86      1.0000 0.44060  0.63590  0.73100  Biso   1.000  C
  C87      1.0000 0.05940  0.13590  0.76900  Biso   1.000  C
  C88      1.0000 0.94060  0.13590  0.73100  Biso   1.000  C
  C89      1.0000 0.44060  0.36410  0.23100  Biso   1.000  C
  C90      1.0000 0.55940  0.36410  0.26900  Biso   1.000  C
  C91      1.0000 0.94060  0.86410  0.23100  Biso   1.000  C
  C92      1.0000 0.05940  0.86410  0.26900  Biso   1.000  C
  C93      1.0000 0.60500  0.95650  0.56240  Biso   1.000  C
  C94      1.0000 0.39500  0.95650  0.93760  Biso   1.000  C
  C95      1.0000 0.10500  0.45650  0.56240  Biso   1.000  C
  C96      1.0000 0.89500  0.45650  0.93760  Biso   1.000  C
  C97      1.0000 0.39500  0.04350  0.43760  Biso   1.000  C
  C98      1.0000 0.60500  0.04350  0.06240  Biso   1.000  C
  C99      1.0000 0.89500  0.54350  0.43760  Biso   1.000  C
  C100     1.0000 0.10500  0.54350  0.06240  Biso   1.000  C
  H93      1.0000 0.56350  0.98760  0.54930  Biso   1.000  H
  H94      1.0000 0.43650  0.98760  0.95070  Biso   1.000  H
  H95      1.0000 0.06350  0.48760  0.54930  Biso   1.000  H
  H96      1.0000 0.93650  0.48760  0.95070  Biso   1.000  H
  H97      1.0000 0.43650  0.01240  0.45070  Biso   1.000  H
  H98      1.0000 0.56350  0.01240  0.04930  Biso   1.000  H
  H99      1.0000 0.93650  0.51240  0.45070  Biso   1.000  H
  H100     1.0000 0.06350  0.51240  0.04930  Biso   1.000  H
  C101     1.0000 0.72450  0.50630  0.61330  Biso   1.000  C
  C102     1.0000 0.27550  0.50630  0.88670  Biso   1.000  C
  C103     1.0000 0.22450  0.00630  0.61330  Biso   1.000  C
  C104     1.0000 0.77550  0.00630  0.88670  Biso   1.000  C
  C105     1.0000 0.27550  0.49370  0.38670  Biso   1.000  C
  C106     1.0000 0.72450  0.49370  0.11330  Biso   1.000  C
  C107     1.0000 0.77550  0.99370  0.38670  Biso   1.000  C
  C108     1.0000 0.22450  0.99370  0.11330  Biso   1.000  C
  H101     1.0000 0.76610  0.53880  0.63380  Biso   1.000  H
  H102     1.0000 0.23390  0.53880  0.86620  Biso   1.000  H
  H103     1.0000 0.26610  0.03880  0.63380  Biso   1.000  H
  H104     1.0000 0.73390  0.03880  0.86620  Biso   1.000  H
  H105     1.0000 0.23390  0.46120  0.36620  Biso   1.000  H
  H106     1.0000 0.76610  0.46120  0.13380  Biso   1.000  H
  H107     1.0000 0.73390  0.96120  0.36620  Biso   1.000  H
  H108     1.0000 0.26610  0.96120  0.13380  Biso   1.000  H
  C109     1.0000 0.72850  0.41200  0.61560  Biso   1.000  C
  C110     1.0000 0.27150  0.41200  0.88440  Biso   1.000  C
  C111     1.0000 0.22850  0.91200  0.61560  Biso   1.000  C
  C112     1.0000 0.77150  0.91200  0.88440  Biso   1.000  C
  C113     1.0000 0.27150  0.58800  0.38440  Biso   1.000  C
  C114     1.0000 0.72850  0.58800  0.11560  Biso   1.000  C
  C115     1.0000 0.77150  0.08800  0.38440  Biso   1.000  C
  C116     1.0000 0.22850  0.08800  0.11560  Biso   1.000  C
  H109     1.0000 0.77160  0.38290  0.63810  Biso   1.000  H
  H110     1.0000 0.22840  0.38290  0.86190  Biso   1.000  H
  H111     1.0000 0.27160  0.88290  0.63810  Biso   1.000  H
  H112     1.0000 0.72840  0.88290  0.86190  Biso   1.000  H
  H113     1.0000 0.22840  0.61710  0.36190  Biso   1.000  H
  H114     1.0000 0.77160  0.61710  0.13810  Biso   1.000  H
  H115     1.0000 0.72840  0.11710  0.36190  Biso   1.000  H
  H116     1.0000 0.27160  0.11710  0.13810  Biso   1.000  H
  C117     1.0000 0.72730  0.95570  0.60130  Biso   1.000  C
  C118     1.0000 0.27270  0.95570  0.89870  Biso   1.000  C
  C119     1.0000 0.22730  0.45570  0.60130  Biso   1.000  C
  C120     1.0000 0.77270  0.45570  0.89870  Biso   1.000  C
  C121     1.0000 0.27270  0.04430  0.39870  Biso   1.000  C
  C122     1.0000 0.72730  0.04430  0.10130  Biso   1.000  C
  C123     1.0000 0.77270  0.54430  0.39870  Biso   1.000  C
  C124     1.0000 0.22730  0.54430  0.10130  Biso   1.000  C
  H117     1.0000 0.76860  0.98680  0.61370  Biso   1.000  H
  H118     1.0000 0.23140  0.98680  0.88630  Biso   1.000  H
  H119     1.0000 0.26860  0.48680  0.61370  Biso   1.000  H
  H120     1.0000 0.73140  0.48680  0.88630  Biso   1.000  H
  H121     1.0000 0.23140  0.01320  0.38630  Biso   1.000  H
  H122     1.0000 0.76860  0.01320  0.11370  Biso   1.000  H
  H123     1.0000 0.73140  0.51320  0.38630  Biso   1.000  H
  H124     1.0000 0.26860  0.51320  0.11370  Biso   1.000  H
  C125     1.0000 0.60650  0.50320  0.55250  Biso   1.000  C
  C126     1.0000 0.39350  0.50320  0.94750  Biso   1.000  C
  C127     1.0000 0.10650  0.00320  0.55250  Biso   1.000  C
  C128     1.0000 0.89350  0.00320  0.94750  Biso   1.000  C
  C129     1.0000 0.39350  0.49680  0.44750  Biso   1.000  C
  C130     1.0000 0.60650  0.49680  0.05250  Biso   1.000  C
  C131     1.0000 0.89350  0.99680  0.44750  Biso   1.000  C
  C132     1.0000 0.10650  0.99680  0.05250  Biso   1.000  C
  H125     1.0000 0.56400  0.53380  0.52960  Biso   1.000  H
  H126     1.0000 0.43600  0.53380  0.97040  Biso   1.000  H
  H127     1.0000 0.06400  0.03380  0.52960  Biso   1.000  H
  H128     1.0000 0.93600  0.03380  0.97040  Biso   1.000  H
  H129     1.0000 0.43600  0.46620  0.47040  Biso   1.000  H
  H130     1.0000 0.56400  0.46620  0.02960  Biso   1.000  H
  H131     1.0000 0.93600  0.96620  0.47040  Biso   1.000  H
  H132     1.0000 0.06400  0.96620  0.02960  Biso   1.000  H
  O25      1.0000 0.84130  0.82750  0.62530  Biso   1.000  O
  O26      1.0000 0.15870  0.82750  0.87470  Biso   1.000  O
  O27      1.0000 0.34130  0.32750  0.62530  Biso   1.000  O
  O28      1.0000 0.65870  0.32750  0.87470  Biso   1.000  O
  O29      1.0000 0.15870  0.17250  0.37470  Biso   1.000  O
  O30      1.0000 0.84130  0.17250  0.12530  Biso   1.000  O
  O31      1.0000 0.65870  0.67250  0.37470  Biso   1.000  O
  O32      1.0000 0.34130  0.67250  0.12530  Biso   1.000  O
  C133     1.0000 0.78650  0.79730  0.61980  Biso   1.000  C
  C134     1.0000 0.21350  0.79730  0.88020  Biso   1.000  C
  C135     1.0000 0.28650  0.29730  0.61980  Biso   1.000  C
  C136     1.0000 0.71350  0.29730  0.88020  Biso   1.000  C
  C137     1.0000 0.21350  0.20270  0.38020  Biso   1.000  C
  C138     1.0000 0.78650  0.20270  0.11980  Biso   1.000  C
  C139     1.0000 0.71350  0.70270  0.38020  Biso   1.000  C
  C140     1.0000 0.28650  0.70270  0.11980  Biso   1.000  C
  C141     1.0000 0.54780  0.79360  0.54760  Biso   1.000  C
  C142     1.0000 0.45220  0.79360  0.95240  Biso   1.000  C
  C143     1.0000 0.04780  0.29360  0.54760  Biso   1.000  C
  C144     1.0000 0.95220  0.29360  0.95240  Biso   1.000  C
  C145     1.0000 0.45220  0.20640  0.45240  Biso   1.000  C
  C146     1.0000 0.54780  0.20640  0.04760  Biso   1.000  C
  C147     1.0000 0.95220  0.70640  0.45240  Biso   1.000  C
  C148     1.0000 0.04780  0.70640  0.04760  Biso   1.000  C
  O33      1.0000 0.67480  0.67230  0.79250  Biso   1.000  O
  O34      1.0000 0.32520  0.67230  0.70750  Biso   1.000  O
  O35      1.0000 0.17480  0.17230  0.79250  Biso   1.000  O
  O36      1.0000 0.82520  0.17230  0.70750  Biso   1.000  O
  O37      1.0000 0.32520  0.32770  0.20750  Biso   1.000  O
  O38      1.0000 0.67480  0.32770  0.29250  Biso   1.000  O
  O39      1.0000 0.82520  0.82770  0.20750  Biso   1.000  O
  O40      1.0000 0.17480  0.82770  0.29250  Biso   1.000  O
  O41      1.0000 0.60230  0.79150  0.78950  Biso   1.000  O
  O42      1.0000 0.39770  0.79150  0.71050  Biso   1.000  O
  O43      1.0000 0.10230  0.29150  0.78950  Biso   1.000  O
  O44      1.0000 0.89770  0.29150  0.71050  Biso   1.000  O
  O45      1.0000 0.39770  0.20850  0.21050  Biso   1.000  O
  O46      1.0000 0.60230  0.20850  0.28950  Biso   1.000  O
  O47      1.0000 0.89770  0.70850  0.21050  Biso   1.000  O
  O48      1.0000 0.10230  0.70850  0.28950  Biso   1.000  O
  C149     1.0000 0.61870  0.70650  0.78720  Biso   1.000  C
  C150     1.0000 0.38130  0.70650  0.71280  Biso   1.000  C
  C151     1.0000 0.11870  0.20650  0.78720  Biso   1.000  C
  C152     1.0000 0.88130  0.20650  0.71280  Biso   1.000  C
  C153     1.0000 0.38130  0.29350  0.21280  Biso   1.000  C
  C154     1.0000 0.61870  0.29350  0.28720  Biso   1.000  C
  C155     1.0000 0.88130  0.79350  0.21280  Biso   1.000  C
  C156     1.0000 0.11870  0.79350  0.28720  Biso   1.000  C
