data_image0
_cell_length_a       6.5762
_cell_length_b       16.1888
_cell_length_c       11.653
_cell_angle_alpha    90
_cell_angle_beta     91.337
_cell_angle_gamma    90

_symmetry_space_group_name_H-M    "P 1"
_symmetry_int_tables_number       1

loop_
  _symmetry_equiv_pos_as_xyz
  'x, y, z'

loop_
  _atom_site_label
  _atom_site_occupancy
  _atom_site_fract_x
  _atom_site_fract_y
  _atom_site_fract_z
  _atom_site_thermal_displace_type
  _atom_site_B_iso_or_equiv
  _atom_site_type_symbol
  Cu1      1.0000 0.50000  0.50000  0.50000  Biso   1.000  Cu
  Cu2      1.0000 0.50000  0.00000  0.00000  Biso   1.000  Cu
  C1       1.0000 0.42920  0.49444  0.24870  Biso   1.000  C
  C2       1.0000 0.42920  0.00556  0.74870  Biso   1.000  C
  C3       1.0000 0.57080  0.50556  0.75130  Biso   1.000  C
  C4       1.0000 0.57080  0.99444  0.25130  Biso   1.000  C
  H1       1.0000 0.56460  0.51100  0.25050  Biso   1.000  H
  H2       1.0000 0.56460  0.98900  0.75050  Biso   1.000  H
  H3       1.0000 0.43540  0.48900  0.74950  Biso   1.000  H
  H4       1.0000 0.43540  0.01100  0.24950  Biso   1.000  H
  C5       1.0000 0.33540  0.48060  0.14290  Biso   1.000  C
  C6       1.0000 0.33540  0.01940  0.64290  Biso   1.000  C
  C7       1.0000 0.66460  0.51940  0.85710  Biso   1.000  C
  C8       1.0000 0.66460  0.98060  0.35710  Biso   1.000  C
  C9       1.0000 0.13440  0.45460  0.14020  Biso   1.000  C
  C10      1.0000 0.13440  0.04540  0.64020  Biso   1.000  C
  C11      1.0000 0.86560  0.54540  0.85980  Biso   1.000  C
  C12      1.0000 0.86560  0.95460  0.35980  Biso   1.000  C
  H5       1.0000 0.06680  0.44390  0.07080  Biso   1.000  H
  H6       1.0000 0.06680  0.05610  0.57080  Biso   1.000  H
  H7       1.0000 0.93320  0.55610  0.92920  Biso   1.000  H
  H8       1.0000 0.93320  0.94390  0.42920  Biso   1.000  H
  C13      1.0000 0.03650  0.44510  0.24350  Biso   1.000  C
  C14      1.0000 0.03650  0.05490  0.74350  Biso   1.000  C
  C15      1.0000 0.96350  0.55490  0.75650  Biso   1.000  C
  C16      1.0000 0.96350  0.94510  0.25650  Biso   1.000  C
  H9       1.0000 0.90150  0.42790  0.24400  Biso   1.000  H
  H10      1.0000 0.90150  0.07210  0.74400  Biso   1.000  H
  H11      1.0000 0.09850  0.57210  0.75600  Biso   1.000  H
  H12      1.0000 0.09850  0.92790  0.25600  Biso   1.000  H
  C17      1.0000 0.13890  0.46090  0.34450  Biso   1.000  C
  C18      1.0000 0.13890  0.03910  0.84450  Biso   1.000  C
  C19      1.0000 0.86110  0.53910  0.65550  Biso   1.000  C
  C20      1.0000 0.86110  0.96090  0.15550  Biso   1.000  C
  H13      1.0000 0.07060  0.45460  0.41290  Biso   1.000  H
  H14      1.0000 0.07060  0.04540  0.91290  Biso   1.000  H
  H15      1.0000 0.92940  0.54540  0.58710  Biso   1.000  H
  H16      1.0000 0.92940  0.95460  0.08710  Biso   1.000  H
  C21      1.0000 0.44920  0.49371  0.04100  Biso   1.000  C
  C22      1.0000 0.44920  0.00629  0.54100  Biso   1.000  C
  C23      1.0000 0.55080  0.50629  0.95900  Biso   1.000  C
  C24      1.0000 0.55080  0.99371  0.45900  Biso   1.000  C
  C25      1.0000 0.34120  0.34741  0.59580  Biso   1.000  C
  C26      1.0000 0.34120  0.15259  0.09580  Biso   1.000  C
  C27      1.0000 0.65880  0.65259  0.40420  Biso   1.000  C
  C28      1.0000 0.65880  0.84741  0.90420  Biso   1.000  C
  C29      1.0000 0.47890  0.29360  0.55050  Biso   1.000  C
  C30      1.0000 0.47890  0.20640  0.05050  Biso   1.000  C
  C31      1.0000 0.52110  0.70640  0.44950  Biso   1.000  C
  C32      1.0000 0.52110  0.79360  0.94950  Biso   1.000  C
  H17      1.0000 0.46870  0.23810  0.56990  Biso   1.000  H
  H18      1.0000 0.46870  0.26190  0.06990  Biso   1.000  H
  H19      1.0000 0.53130  0.76190  0.43010  Biso   1.000  H
  H20      1.0000 0.53130  0.73810  0.93010  Biso   1.000  H
  C33      1.0000 0.63500  0.31721  0.47630  Biso   1.000  C
  C34      1.0000 0.63500  0.18279  0.97630  Biso   1.000  C
  C35      1.0000 0.36500  0.68279  0.52370  Biso   1.000  C
  C36      1.0000 0.36500  0.81721  0.02370  Biso   1.000  C
  C37      1.0000 0.19030  0.31460  0.68240  Biso   1.000  C
  C38      1.0000 0.19030  0.18540  0.18240  Biso   1.000  C
  C39      1.0000 0.80970  0.68540  0.31760  Biso   1.000  C
  C40      1.0000 0.80970  0.81460  0.81760  Biso   1.000  C
  C41      1.0000 0.76250  0.24750  0.42520  Biso   1.000  C
  C42      1.0000 0.76250  0.25250  0.92520  Biso   1.000  C
  C43      1.0000 0.23750  0.75250  0.57480  Biso   1.000  C
  C44      1.0000 0.23750  0.74750  0.07480  Biso   1.000  C
  N1       1.0000 0.33480  0.48516  0.34890  Biso   1.000  N
  N2       1.0000 0.33480  0.01484  0.84890  Biso   1.000  N
  N3       1.0000 0.66520  0.51484  0.65110  Biso   1.000  N
  N4       1.0000 0.66520  0.98516  0.15110  Biso   1.000  N
  O1       1.0000 0.31770  0.42371  0.57908  Biso   1.000  O
  O2       1.0000 0.31770  0.07629  0.07908  Biso   1.000  O
  O3       1.0000 0.68230  0.57629  0.42092  Biso   1.000  O
  O4       1.0000 0.68230  0.92371  0.92092  Biso   1.000  O
  O5       1.0000 0.68000  0.38696  0.44449  Biso   1.000  O
  O6       1.0000 0.68000  0.11304  0.94449  Biso   1.000  O
  O7       1.0000 0.32000  0.61304  0.55551  Biso   1.000  O
  O8       1.0000 0.32000  0.88696  0.05551  Biso   1.000  O
  F1       1.0000 0.00210  0.33520  0.65510  Biso   1.000  F
  F2       1.0000 0.00210  0.16480  0.15510  Biso   1.000  F
  F3       1.0000 0.99790  0.66480  0.34490  Biso   1.000  F
  F4       1.0000 0.99790  0.83520  0.84490  Biso   1.000  F
  F5       1.0000 0.22390  0.34842  0.78365  Biso   1.000  F
  F6       1.0000 0.22390  0.15158  0.28365  Biso   1.000  F
  F7       1.0000 0.77610  0.65158  0.21635  Biso   1.000  F
  F8       1.0000 0.77610  0.84842  0.71635  Biso   1.000  F
  F9       1.0000 0.19680  0.23503  0.69720  Biso   1.000  F
  F10      1.0000 0.19680  0.26497  0.19720  Biso   1.000  F
  F11      1.0000 0.80320  0.76497  0.30280  Biso   1.000  F
  F12      1.0000 0.80320  0.73503  0.80280  Biso   1.000  F
  F13      1.0000 0.77670  0.18239  0.49290  Biso   1.000  F
  F14      1.0000 0.77670  0.31761  0.99290  Biso   1.000  F
  F15      1.0000 0.22330  0.81761  0.50710  Biso   1.000  F
  F16      1.0000 0.22330  0.68239  0.00710  Biso   1.000  F
  F17      1.0000 0.95000  0.26967  0.41140  Biso   1.000  F
  F18      1.0000 0.95000  0.23033  0.91140  Biso   1.000  F
  F19      1.0000 0.05000  0.73033  0.58860  Biso   1.000  F
  F20      1.0000 0.05000  0.76967  0.08860  Biso   1.000  F
  F21      1.0000 0.69210  0.22350  0.33140  Biso   1.000  F
  F22      1.0000 0.69210  0.27650  0.83140  Biso   1.000  F
  F23      1.0000 0.30790  0.77650  0.66860  Biso   1.000  F
  F24      1.0000 0.30790  0.72350  0.16860  Biso   1.000  F
