data_image0
_cell_length_a       18.315
_cell_length_b       8.5166
_cell_length_c       20.494
_cell_angle_alpha    90
_cell_angle_beta     104.042
_cell_angle_gamma    90

_symmetry_space_group_name_H-M    "P 1"
_symmetry_int_tables_number       1

loop_
  _symmetry_equiv_pos_as_xyz
  'x, y, z'

loop_
  _atom_site_label
  _atom_site_occupancy
  _atom_site_fract_x
  _atom_site_fract_y
  _atom_site_fract_z
  _atom_site_thermal_displace_type
  _atom_site_B_iso_or_equiv
  _atom_site_type_symbol
  Cu1      1.0000 0.14956  0.54843  0.37318  Biso   1.000  Cu
  Cu2      1.0000 0.64956  0.04843  0.87318  Biso   1.000  Cu
  Cu3      1.0000 0.64956  0.45157  0.37318  Biso   1.000  Cu
  Cu4      1.0000 0.14956  0.95157  0.87318  Biso   1.000  Cu
  Cu5      1.0000 0.85044  0.45157  0.62682  Biso   1.000  Cu
  Cu6      1.0000 0.35044  0.95157  0.12682  Biso   1.000  Cu
  Cu7      1.0000 0.35044  0.54843  0.62682  Biso   1.000  Cu
  Cu8      1.0000 0.85044  0.04843  0.12682  Biso   1.000  Cu
  C1       1.0000 0.24517  0.28410  0.35629  Biso   1.000  C
  C2       1.0000 0.74517  0.78410  0.85629  Biso   1.000  C
  C3       1.0000 0.74517  0.71590  0.35629  Biso   1.000  C
  C4       1.0000 0.24517  0.21590  0.85629  Biso   1.000  C
  C5       1.0000 0.75483  0.71590  0.64371  Biso   1.000  C
  C6       1.0000 0.25483  0.21590  0.14371  Biso   1.000  C
  C7       1.0000 0.25483  0.28410  0.64371  Biso   1.000  C
  C8       1.0000 0.75483  0.78410  0.14371  Biso   1.000  C
  H1       1.0000 0.28260  0.34870  0.38380  Biso   1.000  H
  H2       1.0000 0.78260  0.84870  0.88380  Biso   1.000  H
  H3       1.0000 0.78260  0.65130  0.38380  Biso   1.000  H
  H4       1.0000 0.28260  0.15130  0.88380  Biso   1.000  H
  H5       1.0000 0.71740  0.65130  0.61620  Biso   1.000  H
  H6       1.0000 0.21740  0.15130  0.11620  Biso   1.000  H
  H7       1.0000 0.21740  0.34870  0.61620  Biso   1.000  H
  H8       1.0000 0.71740  0.84870  0.11620  Biso   1.000  H
  C9       1.0000 0.26743  0.14170  0.33448  Biso   1.000  C
  C10      1.0000 0.76743  0.64170  0.83448  Biso   1.000  C
  C11      1.0000 0.76743  0.85830  0.33448  Biso   1.000  C
  C12      1.0000 0.26743  0.35830  0.83448  Biso   1.000  C
  C13      1.0000 0.73257  0.85830  0.66552  Biso   1.000  C
  C14      1.0000 0.23257  0.35830  0.16552  Biso   1.000  C
  C15      1.0000 0.23257  0.14170  0.66552  Biso   1.000  C
  C16      1.0000 0.73257  0.64170  0.16552  Biso   1.000  C
  C17      1.0000 0.21251  0.04640  0.29487  Biso   1.000  C
  C18      1.0000 0.71251  0.54640  0.79487  Biso   1.000  C
  C19      1.0000 0.71251  0.95360  0.29487  Biso   1.000  C
  C20      1.0000 0.21251  0.45360  0.79487  Biso   1.000  C
  C21      1.0000 0.78749  0.95360  0.70513  Biso   1.000  C
  C22      1.0000 0.28749  0.45360  0.20513  Biso   1.000  C
  C23      1.0000 0.28749  0.04640  0.70513  Biso   1.000  C
  C24      1.0000 0.78749  0.54640  0.20513  Biso   1.000  C
  H9       1.0000 0.22540  0.94850  0.27840  Biso   1.000  H
  H10      1.0000 0.72540  0.44850  0.77840  Biso   1.000  H
  H11      1.0000 0.72540  0.05150  0.27840  Biso   1.000  H
  H12      1.0000 0.22540  0.55150  0.77840  Biso   1.000  H
  H13      1.0000 0.77460  0.05150  0.72160  Biso   1.000  H
  H14      1.0000 0.27460  0.55150  0.22160  Biso   1.000  H
  H15      1.0000 0.27460  0.94850  0.72160  Biso   1.000  H
  H16      1.0000 0.77460  0.44850  0.22160  Biso   1.000  H
  C25      1.0000 0.13919  0.09720  0.28010  Biso   1.000  C
  C26      1.0000 0.63919  0.59720  0.78010  Biso   1.000  C
  C27      1.0000 0.63919  0.90280  0.28010  Biso   1.000  C
  C28      1.0000 0.13919  0.40280  0.78010  Biso   1.000  C
  C29      1.0000 0.86081  0.90280  0.71990  Biso   1.000  C
  C30      1.0000 0.36081  0.40280  0.21990  Biso   1.000  C
  C31      1.0000 0.36081  0.09720  0.71990  Biso   1.000  C
  C32      1.0000 0.86081  0.59720  0.21990  Biso   1.000  C
  H17      1.0000 0.10050  0.03330  0.25390  Biso   1.000  H
  H18      1.0000 0.60050  0.53330  0.75390  Biso   1.000  H
  H19      1.0000 0.60050  0.96670  0.25390  Biso   1.000  H
  H20      1.0000 0.10050  0.46670  0.75390  Biso   1.000  H
  H21      1.0000 0.89950  0.96670  0.74610  Biso   1.000  H
  H22      1.0000 0.39950  0.46670  0.24610  Biso   1.000  H
  H23      1.0000 0.39950  0.03330  0.74610  Biso   1.000  H
  H24      1.0000 0.89950  0.53330  0.24610  Biso   1.000  H
  C33      1.0000 0.12177  0.24130  0.30327  Biso   1.000  C
  C34      1.0000 0.62177  0.74130  0.80327  Biso   1.000  C
  C35      1.0000 0.62177  0.75870  0.30327  Biso   1.000  C
  C36      1.0000 0.12177  0.25870  0.80327  Biso   1.000  C
  C37      1.0000 0.87823  0.75870  0.69673  Biso   1.000  C
  C38      1.0000 0.37823  0.25870  0.19673  Biso   1.000  C
  C39      1.0000 0.37823  0.24130  0.69673  Biso   1.000  C
  C40      1.0000 0.87823  0.74130  0.19673  Biso   1.000  C
  H25      1.0000 0.07080  0.27490  0.29220  Biso   1.000  H
  H26      1.0000 0.57080  0.77490  0.79220  Biso   1.000  H
  H27      1.0000 0.57080  0.72510  0.29220  Biso   1.000  H
  H28      1.0000 0.07080  0.22510  0.79220  Biso   1.000  H
  H29      1.0000 0.92920  0.72510  0.70780  Biso   1.000  H
  H30      1.0000 0.42920  0.22510  0.20780  Biso   1.000  H
  H31      1.0000 0.42920  0.27490  0.70780  Biso   1.000  H
  H32      1.0000 0.92920  0.77490  0.20780  Biso   1.000  H
  C41      1.0000 0.34621  0.10450  0.35331  Biso   1.000  C
  C42      1.0000 0.84621  0.60450  0.85331  Biso   1.000  C
  C43      1.0000 0.84621  0.89550  0.35331  Biso   1.000  C
  C44      1.0000 0.34621  0.39550  0.85331  Biso   1.000  C
  C45      1.0000 0.65379  0.89550  0.64669  Biso   1.000  C
  C46      1.0000 0.15379  0.39550  0.14669  Biso   1.000  C
  C47      1.0000 0.15379  0.10450  0.64669  Biso   1.000  C
  C48      1.0000 0.65379  0.60450  0.14669  Biso   1.000  C
  C49      1.0000 0.52904  0.23370  0.38254  Biso   1.000  C
  C50      1.0000 0.02904  0.73370  0.88254  Biso   1.000  C
  C51      1.0000 0.02904  0.76630  0.38254  Biso   1.000  C
  C52      1.0000 0.52904  0.26630  0.88254  Biso   1.000  C
  C53      1.0000 0.47096  0.76630  0.61746  Biso   1.000  C
  C54      1.0000 0.97096  0.26630  0.11746  Biso   1.000  C
  C55      1.0000 0.97096  0.23370  0.61746  Biso   1.000  C
  C56      1.0000 0.47096  0.73370  0.11746  Biso   1.000  C
  H33      1.0000 0.49910  0.31920  0.36150  Biso   1.000  H
  H34      1.0000 0.99910  0.81920  0.86150  Biso   1.000  H
  H35      1.0000 0.99910  0.68080  0.36150  Biso   1.000  H
  H36      1.0000 0.49910  0.18080  0.86150  Biso   1.000  H
  H37      1.0000 0.50090  0.68080  0.63850  Biso   1.000  H
  H38      1.0000 0.00090  0.18080  0.13850  Biso   1.000  H
  H39      1.0000 0.00090  0.31920  0.63850  Biso   1.000  H
  H40      1.0000 0.50090  0.81920  0.13850  Biso   1.000  H
  C57      1.0000 0.49293  0.09650  0.39413  Biso   1.000  C
  C58      1.0000 0.99293  0.59650  0.89413  Biso   1.000  C
  C59      1.0000 0.99293  0.90350  0.39413  Biso   1.000  C
  C60      1.0000 0.49293  0.40350  0.89413  Biso   1.000  C
  C61      1.0000 0.50707  0.90350  0.60587  Biso   1.000  C
  C62      1.0000 0.00707  0.40350  0.10587  Biso   1.000  C
  C63      1.0000 0.00707  0.09650  0.60587  Biso   1.000  C
  C64      1.0000 0.50707  0.59650  0.10587  Biso   1.000  C
  C65      1.0000 0.53670  0.97470  0.42718  Biso   1.000  C
  C66      1.0000 0.03670  0.47470  0.92718  Biso   1.000  C
  C67      1.0000 0.03670  0.02530  0.42718  Biso   1.000  C
  C68      1.0000 0.53670  0.52530  0.92718  Biso   1.000  C
  C69      1.0000 0.46330  0.02530  0.57282  Biso   1.000  C
  C70      1.0000 0.96330  0.52530  0.07282  Biso   1.000  C
  C71      1.0000 0.96330  0.97470  0.57282  Biso   1.000  C
  C72      1.0000 0.46330  0.47470  0.07282  Biso   1.000  C
  H41      1.0000 0.51410  0.87980  0.43670  Biso   1.000  H
  H42      1.0000 0.01410  0.37980  0.93670  Biso   1.000  H
  H43      1.0000 0.01410  0.12020  0.43670  Biso   1.000  H
  H44      1.0000 0.51410  0.62020  0.93670  Biso   1.000  H
  H45      1.0000 0.48590  0.12020  0.56330  Biso   1.000  H
  H46      1.0000 0.98590  0.62020  0.06330  Biso   1.000  H
  H47      1.0000 0.98590  0.87980  0.56330  Biso   1.000  H
  H48      1.0000 0.48590  0.37980  0.06330  Biso   1.000  H
  C73      1.0000 0.61410  0.99360  0.44610  Biso   1.000  C
  C74      1.0000 0.11410  0.49360  0.94610  Biso   1.000  C
  C75      1.0000 0.11410  0.00640  0.44610  Biso   1.000  C
  C76      1.0000 0.61410  0.50640  0.94610  Biso   1.000  C
  C77      1.0000 0.38590  0.00640  0.55390  Biso   1.000  C
  C78      1.0000 0.88590  0.50640  0.05390  Biso   1.000  C
  C79      1.0000 0.88590  0.99360  0.55390  Biso   1.000  C
  C80      1.0000 0.38590  0.49360  0.05390  Biso   1.000  C
  H49      1.0000 0.64530  0.91190  0.46910  Biso   1.000  H
  H50      1.0000 0.14530  0.41190  0.96910  Biso   1.000  H
  H51      1.0000 0.14530  0.08810  0.46910  Biso   1.000  H
  H52      1.0000 0.64530  0.58810  0.96910  Biso   1.000  H
  H53      1.0000 0.35470  0.08810  0.53090  Biso   1.000  H
  H54      1.0000 0.85470  0.58810  0.03090  Biso   1.000  H
  H55      1.0000 0.85470  0.91190  0.53090  Biso   1.000  H
  H56      1.0000 0.35470  0.41190  0.03090  Biso   1.000  H
  C81      1.0000 0.64526  0.13150  0.43130  Biso   1.000  C
  C82      1.0000 0.14526  0.63150  0.93130  Biso   1.000  C
  C83      1.0000 0.14526  0.86850  0.43130  Biso   1.000  C
  C84      1.0000 0.64526  0.36850  0.93130  Biso   1.000  C
  C85      1.0000 0.35474  0.86850  0.56870  Biso   1.000  C
  C86      1.0000 0.85474  0.36850  0.06870  Biso   1.000  C
  C87      1.0000 0.85474  0.13150  0.56870  Biso   1.000  C
  C88      1.0000 0.35474  0.63150  0.06870  Biso   1.000  C
  H57      1.0000 0.69840  0.14290  0.44410  Biso   1.000  H
  H58      1.0000 0.19840  0.64290  0.94410  Biso   1.000  H
  H59      1.0000 0.19840  0.85710  0.44410  Biso   1.000  H
  H60      1.0000 0.69840  0.35710  0.94410  Biso   1.000  H
  H61      1.0000 0.30160  0.85710  0.55590  Biso   1.000  H
  H62      1.0000 0.80160  0.35710  0.05590  Biso   1.000  H
  H63      1.0000 0.80160  0.14290  0.55590  Biso   1.000  H
  H64      1.0000 0.30160  0.64290  0.05590  Biso   1.000  H
  C89      1.0000 0.41248  0.09210  0.37269  Biso   1.000  C
  C90      1.0000 0.91248  0.59210  0.87269  Biso   1.000  C
  C91      1.0000 0.91248  0.90790  0.37269  Biso   1.000  C
  C92      1.0000 0.41248  0.40790  0.87269  Biso   1.000  C
  C93      1.0000 0.58752  0.90790  0.62731  Biso   1.000  C
  C94      1.0000 0.08752  0.40790  0.12731  Biso   1.000  C
  C95      1.0000 0.08752  0.09210  0.62731  Biso   1.000  C
  C96      1.0000 0.58752  0.59210  0.12731  Biso   1.000  C
  N1       1.0000 0.17418  0.33590  0.34093  Biso   1.000  N
  N2       1.0000 0.67418  0.83590  0.84093  Biso   1.000  N
  N3       1.0000 0.67418  0.66410  0.34093  Biso   1.000  N
  N4       1.0000 0.17418  0.16410  0.84093  Biso   1.000  N
  N5       1.0000 0.82582  0.66410  0.65907  Biso   1.000  N
  N6       1.0000 0.32582  0.16410  0.15907  Biso   1.000  N
  N7       1.0000 0.32582  0.33590  0.65907  Biso   1.000  N
  N8       1.0000 0.82582  0.83590  0.15907  Biso   1.000  N
  N9       1.0000 0.60355  0.25130  0.39941  Biso   1.000  N
  N10      1.0000 0.10355  0.75130  0.89941  Biso   1.000  N
  N11      1.0000 0.10355  0.74870  0.39941  Biso   1.000  N
  N12      1.0000 0.60355  0.24870  0.89941  Biso   1.000  N
  N13      1.0000 0.39645  0.74870  0.60059  Biso   1.000  N
  N14      1.0000 0.89645  0.24870  0.10059  Biso   1.000  N
  N15      1.0000 0.89645  0.25130  0.60059  Biso   1.000  N
  N16      1.0000 0.39645  0.75130  0.10059  Biso   1.000  N
  N17      1.0000 0.08877  0.40910  0.46839  Biso   1.000  N
  N18      1.0000 0.58877  0.90910  0.96839  Biso   1.000  N
  N19      1.0000 0.58877  0.59090  0.46839  Biso   1.000  N
  N20      1.0000 0.08877  0.09090  0.96839  Biso   1.000  N
  N21      1.0000 0.91123  0.59090  0.53161  Biso   1.000  N
  N22      1.0000 0.41123  0.09090  0.03161  Biso   1.000  N
  N23      1.0000 0.41123  0.40910  0.53161  Biso   1.000  N
  N24      1.0000 0.91123  0.90910  0.03161  Biso   1.000  N
  N25      1.0000 0.08926  0.65470  0.24928  Biso   1.000  N
  N26      1.0000 0.58926  0.15470  0.74928  Biso   1.000  N
  N27      1.0000 0.58926  0.34530  0.24928  Biso   1.000  N
  N28      1.0000 0.08926  0.84530  0.74928  Biso   1.000  N
  N29      1.0000 0.91074  0.34530  0.75072  Biso   1.000  N
  N30      1.0000 0.41074  0.84530  0.25072  Biso   1.000  N
  N31      1.0000 0.41074  0.65470  0.75072  Biso   1.000  N
  N32      1.0000 0.91074  0.15470  0.25072  Biso   1.000  N
  O1       1.0000 0.15455  0.46320  0.46507  Biso   1.000  O
  O2       1.0000 0.65455  0.96320  0.96507  Biso   1.000  O
  O3       1.0000 0.65455  0.53680  0.46507  Biso   1.000  O
  O4       1.0000 0.15455  0.03680  0.96507  Biso   1.000  O
  O5       1.0000 0.84545  0.53680  0.53493  Biso   1.000  O
  O6       1.0000 0.34545  0.03680  0.03493  Biso   1.000  O
  O7       1.0000 0.34545  0.46320  0.53493  Biso   1.000  O
  O8       1.0000 0.84545  0.96320  0.03493  Biso   1.000  O
  O9       1.0000 0.03827  0.40680  0.41616  Biso   1.000  O
  O10      1.0000 0.53827  0.90680  0.91616  Biso   1.000  O
  O11      1.0000 0.53827  0.59320  0.41616  Biso   1.000  O
  O12      1.0000 0.03827  0.09320  0.91616  Biso   1.000  O
  O13      1.0000 0.96173  0.59320  0.58384  Biso   1.000  O
  O14      1.0000 0.46173  0.09320  0.08384  Biso   1.000  O
  O15      1.0000 0.46173  0.40680  0.58384  Biso   1.000  O
  O16      1.0000 0.96173  0.90680  0.08384  Biso   1.000  O
  O17      1.0000 0.08191  0.36150  0.52291  Biso   1.000  O
  O18      1.0000 0.58191  0.86150  0.02291  Biso   1.000  O
  O19      1.0000 0.58191  0.63850  0.52291  Biso   1.000  O
  O20      1.0000 0.08191  0.13850  0.02291  Biso   1.000  O
  O21      1.0000 0.91809  0.63850  0.47709  Biso   1.000  O
  O22      1.0000 0.41809  0.13850  0.97709  Biso   1.000  O
  O23      1.0000 0.41809  0.36150  0.47709  Biso   1.000  O
  O24      1.0000 0.91809  0.86150  0.97709  Biso   1.000  O
  O25      1.0000 0.04228  0.56580  0.26487  Biso   1.000  O
  O26      1.0000 0.54228  0.06580  0.76487  Biso   1.000  O
  O27      1.0000 0.54228  0.43420  0.26487  Biso   1.000  O
  O28      1.0000 0.04228  0.93420  0.76487  Biso   1.000  O
  O29      1.0000 0.95772  0.43420  0.73513  Biso   1.000  O
  O30      1.0000 0.45772  0.93420  0.23513  Biso   1.000  O
  O31      1.0000 0.45772  0.56580  0.73513  Biso   1.000  O
  O32      1.0000 0.95772  0.06580  0.23513  Biso   1.000  O
  O33      1.0000 0.15682  0.65490  0.28763  Biso   1.000  O
  O34      1.0000 0.65682  0.15490  0.78763  Biso   1.000  O
  O35      1.0000 0.65682  0.34510  0.28763  Biso   1.000  O
  O36      1.0000 0.15682  0.84510  0.78763  Biso   1.000  O
  O37      1.0000 0.84318  0.34510  0.71237  Biso   1.000  O
  O38      1.0000 0.34318  0.84510  0.21237  Biso   1.000  O
  O39      1.0000 0.34318  0.65490  0.71237  Biso   1.000  O
  O40      1.0000 0.84318  0.15490  0.21237  Biso   1.000  O
  O41      1.0000 0.07426  0.74160  0.20042  Biso   1.000  O
  O42      1.0000 0.57426  0.24160  0.70042  Biso   1.000  O
  O43      1.0000 0.57426  0.25840  0.20042  Biso   1.000  O
  O44      1.0000 0.07426  0.75840  0.70042  Biso   1.000  O
  O45      1.0000 0.92574  0.25840  0.79958  Biso   1.000  O
  O46      1.0000 0.42574  0.75840  0.29958  Biso   1.000  O
  O47      1.0000 0.42574  0.74160  0.79958  Biso   1.000  O
  O48      1.0000 0.92574  0.24160  0.29958  Biso   1.000  O
  C97      1.0000 0.32509  0.67870  0.38865  Biso   1.000  C
  C98      1.0000 0.82509  0.17870  0.88865  Biso   1.000  C
  C99      1.0000 0.82509  0.32130  0.38865  Biso   1.000  C
  C100     1.0000 0.32509  0.82130  0.88865  Biso   1.000  C
  C101     1.0000 0.67491  0.32130  0.61135  Biso   1.000  C
  C102     1.0000 0.17491  0.82130  0.11135  Biso   1.000  C
  C103     1.0000 0.17491  0.67870  0.61135  Biso   1.000  C
  C104     1.0000 0.67491  0.17870  0.11135  Biso   1.000  C
  H65      1.0000 0.35480  0.59000  0.37890  Biso   1.000  H
  H66      1.0000 0.85480  0.09000  0.87890  Biso   1.000  H
  H67      1.0000 0.85480  0.41000  0.37890  Biso   1.000  H
  H68      1.0000 0.35480  0.91000  0.87890  Biso   1.000  H
  H69      1.0000 0.64520  0.41000  0.62110  Biso   1.000  H
  H70      1.0000 0.14520  0.91000  0.12110  Biso   1.000  H
  H71      1.0000 0.14520  0.59000  0.62110  Biso   1.000  H
  H72      1.0000 0.64520  0.09000  0.12110  Biso   1.000  H
  H73      1.0000 0.35840  0.75390  0.41770  Biso   1.000  H
  H74      1.0000 0.85840  0.25390  0.91770  Biso   1.000  H
  H75      1.0000 0.85840  0.24610  0.41770  Biso   1.000  H
  H76      1.0000 0.35840  0.74610  0.91770  Biso   1.000  H
  H77      1.0000 0.64160  0.24610  0.58230  Biso   1.000  H
  H78      1.0000 0.14160  0.74610  0.08230  Biso   1.000  H
  H79      1.0000 0.14160  0.75390  0.58230  Biso   1.000  H
  H80      1.0000 0.64160  0.25390  0.08230  Biso   1.000  H
  H81      1.0000 0.29990  0.73040  0.34650  Biso   1.000  H
  H82      1.0000 0.79990  0.23040  0.84650  Biso   1.000  H
  H83      1.0000 0.79990  0.26960  0.34650  Biso   1.000  H
  H84      1.0000 0.29990  0.76960  0.84650  Biso   1.000  H
  H85      1.0000 0.70010  0.26960  0.65350  Biso   1.000  H
  H86      1.0000 0.20010  0.76960  0.15350  Biso   1.000  H
  H87      1.0000 0.20010  0.73040  0.65350  Biso   1.000  H
  H88      1.0000 0.70010  0.23040  0.15350  Biso   1.000  H
  O49      1.0000 0.26996  0.62310  0.42198  Biso   1.000  O
  O50      1.0000 0.76996  0.12310  0.92198  Biso   1.000  O
  O51      1.0000 0.76996  0.37690  0.42198  Biso   1.000  O
  O52      1.0000 0.26996  0.87690  0.92198  Biso   1.000  O
  O53      1.0000 0.73004  0.37690  0.57802  Biso   1.000  O
  O54      1.0000 0.23004  0.87690  0.07802  Biso   1.000  O
  O55      1.0000 0.23004  0.62310  0.57802  Biso   1.000  O
  O56      1.0000 0.73004  0.12310  0.07802  Biso   1.000  O
  H89      1.0000 0.29300  0.58200  0.45890  Biso   1.000  H
  H90      1.0000 0.79300  0.08200  0.95890  Biso   1.000  H
  H91      1.0000 0.79300  0.41800  0.45890  Biso   1.000  H
  H92      1.0000 0.29300  0.91800  0.95890  Biso   1.000  H
  H93      1.0000 0.70700  0.41800  0.54110  Biso   1.000  H
  H94      1.0000 0.20700  0.91800  0.04110  Biso   1.000  H
  H95      1.0000 0.20700  0.58200  0.54110  Biso   1.000  H
  H96      1.0000 0.70700  0.08200  0.04110  Biso   1.000  H
