data_image0
_cell_length_a       13.475
_cell_length_b       14.578
_cell_length_c       16.099
_cell_angle_alpha    97.934
_cell_angle_beta     113.562
_cell_angle_gamma    106.287

_symmetry_space_group_name_H-M    "P 1"
_symmetry_int_tables_number       1

loop_
  _symmetry_equiv_pos_as_xyz
  'x, y, z'

loop_
  _atom_site_label
  _atom_site_occupancy
  _atom_site_fract_x
  _atom_site_fract_y
  _atom_site_fract_z
  _atom_site_thermal_displace_type
  _atom_site_B_iso_or_equiv
  _atom_site_type_symbol
  Cu1      1.0000 0.50000  0.50000  0.50000  Biso   1.000  Cu
  Cu2      1.0000 0.10304  0.00972  0.06557  Biso   1.000  Cu
  Cu3      1.0000 0.89696  0.99028  0.93443  Biso   1.000  Cu
  Cu4      1.0000 0.50000  0.00000  0.00000  Biso   1.000  Cu
  S1       1.0000 0.94430  0.65613  0.98857  Biso   1.000  S
  S2       1.0000 0.05570  0.34387  0.01143  Biso   1.000  S
  S3       1.0000 0.94147  0.94649  0.60925  Biso   1.000  S
  S4       1.0000 0.05853  0.05351  0.39075  Biso   1.000  S
  N1       1.0000 0.60000  0.51500  0.63700  Biso   1.000  N
  N2       1.0000 0.40000  0.48500  0.36300  Biso   1.000  N
  N3       1.0000 0.82150  0.47730  0.96180  Biso   1.000  N
  N4       1.0000 0.17850  0.52270  0.03820  Biso   1.000  N
  N5       1.0000 0.90720  0.50810  0.05440  Biso   1.000  N
  N6       1.0000 0.09280  0.49190  0.94560  Biso   1.000  N
  N7       1.0000 0.25070  0.75400  0.35640  Biso   1.000  N
  N8       1.0000 0.74930  0.24600  0.64360  Biso   1.000  N
  N9       1.0000 0.36470  0.97980  0.87750  Biso   1.000  N
  N10      1.0000 0.63530  0.02020  0.12250  Biso   1.000  N
  N11      1.0000 0.03480  0.85000  0.54210  Biso   1.000  N
  N12      1.0000 0.96520  0.15000  0.45790  Biso   1.000  N
  N13      1.0000 0.92840  0.83380  0.46890  Biso   1.000  N
  N14      1.0000 0.07160  0.16620  0.53110  Biso   1.000  N
  N15      1.0000 0.53610  0.85820  0.29310  Biso   1.000  N
  N16      1.0000 0.46390  0.14180  0.70690  Biso   1.000  N
  O1       1.0000 0.35670  0.45430  0.52050  Biso   1.000  O
  O2       1.0000 0.64330  0.54570  0.47950  Biso   1.000  O
  O3       1.0000 0.42420  0.61810  0.55200  Biso   1.000  O
  O4       1.0000 0.57580  0.38190  0.44800  Biso   1.000  O
  O5       1.0000 0.99310  0.54380  0.64010  Biso   1.000  O
  O6       1.0000 0.00690  0.45620  0.35990  Biso   1.000  O
  O7       1.0000 0.08770  0.90190  0.96920  Biso   1.000  O
  O8       1.0000 0.91230  0.09810  0.03080  Biso   1.000  O
  O9       1.0000 0.91430  0.88750  0.85700  Biso   1.000  O
  O10      1.0000 0.08570  0.11250  0.14300  Biso   1.000  O
  O11      1.0000 0.28230  0.03160  0.15470  Biso   1.000  O
  O12      1.0000 0.71770  0.96840  0.84530  Biso   1.000  O
  H1       1.0000 0.34420  0.07520  0.16510  Biso   1.000  H
  H2       1.0000 0.65580  0.92480  0.83490  Biso   1.000  H
  H3       1.0000 0.30250  0.98550  0.14840  Biso   1.000  H
  H4       1.0000 0.69750  0.01450  0.85160  Biso   1.000  H
  O13      1.0000 0.15330  0.10640  0.00260  Biso   1.000  O
  O14      1.0000 0.84670  0.89360  0.99740  Biso   1.000  O
  O15      1.0000 0.97930  0.08760  0.88770  Biso   1.000  O
  O16      1.0000 0.02070  0.91240  0.11230  Biso   1.000  O
  O17      1.0000 0.32260  0.40220  0.79540  Biso   1.000  O
  O18      1.0000 0.67740  0.59780  0.20460  Biso   1.000  O
  O19      1.0000 0.43520  0.85480  0.98590  Biso   1.000  O
  O20      1.0000 0.56480  0.14520  0.01410  Biso   1.000  O
  O21      1.0000 0.54620  0.87240  0.91650  Biso   1.000  O
  O22      1.0000 0.45380  0.12760  0.08350  Biso   1.000  O
  C1       1.0000 0.60770  0.43790  0.66420  Biso   1.000  C
  C2       1.0000 0.39230  0.56210  0.33580  Biso   1.000  C
  H5       1.0000 0.56320  0.37510  0.62100  Biso   1.000  H
  H6       1.0000 0.43680  0.62490  0.37900  Biso   1.000  H
  C3       1.0000 0.65490  0.60010  0.69660  Biso   1.000  C
  C4       1.0000 0.34510  0.39990  0.30340  Biso   1.000  C
  H7       1.0000 0.64570  0.65540  0.67640  Biso   1.000  H
  H8       1.0000 0.35430  0.34460  0.32360  Biso   1.000  H
  C5       1.0000 0.72860  0.61440  0.79120  Biso   1.000  C
  C6       1.0000 0.27140  0.38560  0.20880  Biso   1.000  C
  H9       1.0000 0.76600  0.67800  0.83330  Biso   1.000  H
  H10      1.0000 0.23400  0.32200  0.16670  Biso   1.000  H
  C7       1.0000 0.74570  0.53560  0.82160  Biso   1.000  C
  C8       1.0000 0.25430  0.46440  0.17840  Biso   1.000  C
  C9       1.0000 0.68310  0.44600  0.75960  Biso   1.000  C
  C10      1.0000 0.31690  0.55400  0.24040  Biso   1.000  C
  H11      1.0000 0.68840  0.38910  0.77810  Biso   1.000  H
  H12      1.0000 0.31160  0.61090  0.22190  Biso   1.000  H
  C11      1.0000 0.82840  0.54700  0.91920  Biso   1.000  C
  C12      1.0000 0.17160  0.45300  0.08080  Biso   1.000  C
  C13      1.0000 0.97750  0.59950  0.07820  Biso   1.000  C
  C14      1.0000 0.02250  0.40050  0.92180  Biso   1.000  C
  C15      1.0000 0.07510  0.65260  0.17210  Biso   1.000  C
  C16      1.0000 0.92490  0.34740  0.82790  Biso   1.000  C
  C17      1.0000 0.08230  0.61120  0.24640  Biso   1.000  C
  C18      1.0000 0.91770  0.38880  0.75360  Biso   1.000  C
  H13      1.0000 0.02970  0.54840  0.23570  Biso   1.000  H
  H14      1.0000 0.97030  0.45160  0.76430  Biso   1.000  H
  C19      1.0000 0.16910  0.66540  0.33560  Biso   1.000  C
  C20      1.0000 0.83090  0.33460  0.66440  Biso   1.000  C
  H15      1.0000 0.17110  0.63850  0.38510  Biso   1.000  H
  H16      1.0000 0.82890  0.36150  0.61490  Biso   1.000  H
  C21      1.0000 0.24340  0.79100  0.28360  Biso   1.000  C
  C22      1.0000 0.75660  0.20900  0.71640  Biso   1.000  C
  H17      1.0000 0.29980  0.85230  0.29600  Biso   1.000  H
  H18      1.0000 0.70020  0.14770  0.70400  Biso   1.000  H
  C23      1.0000 0.15920  0.74540  0.19280  Biso   1.000  C
  C24      1.0000 0.84080  0.25460  0.80720  Biso   1.000  C
  H19      1.0000 0.15790  0.77570  0.14530  Biso   1.000  H
  H20      1.0000 0.84210  0.22430  0.85470  Biso   1.000  H
  C25      1.0000 0.35440  0.53850  0.54820  Biso   1.000  C
  C26      1.0000 0.64560  0.46150  0.45180  Biso   1.000  C
  C27      1.0000 0.26030  0.54180  0.57490  Biso   1.000  C
  C28      1.0000 0.73970  0.45820  0.42510  Biso   1.000  C
  C29      1.0000 0.24650  0.63080  0.59590  Biso   1.000  C
  C30      1.0000 0.75350  0.36920  0.40410  Biso   1.000  C
  H21      1.0000 0.29610  0.68890  0.59460  Biso   1.000  H
  H22      1.0000 0.70390  0.31110  0.40540  Biso   1.000  H
  C31      1.0000 0.15950  0.63350  0.61870  Biso   1.000  C
  C32      1.0000 0.84050  0.36650  0.38130  Biso   1.000  C
  H23      1.0000 0.14920  0.69330  0.63160  Biso   1.000  H
  H24      1.0000 0.85080  0.30670  0.36840  Biso   1.000  H
  C33      1.0000 0.08690  0.54740  0.62240  Biso   1.000  C
  C34      1.0000 0.91310  0.45260  0.37760  Biso   1.000  C
  C35      1.0000 0.10190  0.45890  0.60480  Biso   1.000  C
  C36      1.0000 0.89810  0.54110  0.39520  Biso   1.000  C
  H25      1.0000 0.05430  0.40130  0.60880  Biso   1.000  H
  H26      1.0000 0.94570  0.59870  0.39120  Biso   1.000  H
  C37      1.0000 0.19010  0.45710  0.58090  Biso   1.000  C
  C38      1.0000 0.80990  0.54290  0.41910  Biso   1.000  C
  H27      1.0000 0.20150  0.39760  0.56880  Biso   1.000  H
  H28      1.0000 0.79850  0.60240  0.43120  Biso   1.000  H
  C39      1.0000 0.00250  0.62720  0.70000  Biso   1.000  C
  C40      1.0000 0.99750  0.37280  0.30000  Biso   1.000  C
  C41      1.0000 0.91580  0.66420  0.66820  Biso   1.000  C
  C42      1.0000 0.08420  0.33580  0.33180  Biso   1.000  C
  H29      1.0000 0.85720  0.63820  0.60600  Biso   1.000  H
  H30      1.0000 0.14280  0.36180  0.39400  Biso   1.000  H
  C43      1.0000 0.91650  0.74250  0.73110  Biso   1.000  C
  C44      1.0000 0.08350  0.25750  0.26890  Biso   1.000  C
  H31      1.0000 0.85700  0.76710  0.71070  Biso   1.000  H
  H32      1.0000 0.14300  0.23290  0.28930  Biso   1.000  H
  C45      1.0000 0.00510  0.78250  0.82250  Biso   1.000  C
  C46      1.0000 0.99490  0.21750  0.17750  Biso   1.000  C
  C47      1.0000 0.09250  0.74500  0.85160  Biso   1.000  C
  C48      1.0000 0.90750  0.25500  0.14840  Biso   1.000  C
  H33      1.0000 0.15240  0.77150  0.91330  Biso   1.000  H
  H34      1.0000 0.84760  0.22850  0.08670  Biso   1.000  H
  C49      1.0000 0.09260  0.66810  0.79020  Biso   1.000  C
  C50      1.0000 0.90740  0.33190  0.20980  Biso   1.000  C
  H35      1.0000 0.15310  0.64460  0.81000  Biso   1.000  H
  H36      1.0000 0.84690  0.35540  0.19000  Biso   1.000  H
  C51      1.0000 0.00240  0.86330  0.88720  Biso   1.000  C
  C52      1.0000 0.99760  0.13670  0.11280  Biso   1.000  C
  C53      1.0000 0.08880  0.12530  0.93080  Biso   1.000  C
  C54      1.0000 0.91120  0.87470  0.06920  Biso   1.000  C
  C55      1.0000 0.14950  0.19870  0.89500  Biso   1.000  C
  C56      1.0000 0.85050  0.80130  0.10500  Biso   1.000  C
  C57      1.0000 0.26570  0.25510  0.95120  Biso   1.000  C
  C58      1.0000 0.73430  0.74490  0.04880  Biso   1.000  C
  H37      1.0000 0.30520  0.24720  0.01050  Biso   1.000  H
  H38      1.0000 0.69480  0.75280  0.98950  Biso   1.000  H
  C59      1.0000 0.32330  0.32410  0.91830  Biso   1.000  C
  C60      1.0000 0.67670  0.67590  0.08170  Biso   1.000  C
  H39      1.0000 0.40210  0.36230  0.95570  Biso   1.000  H
  H40      1.0000 0.59790  0.63770  0.04430  Biso   1.000  H
  C61      1.0000 0.26520  0.33630  0.83120  Biso   1.000  C
  C62      1.0000 0.73480  0.66370  0.16880  Biso   1.000  C
  C63      1.0000 0.14780  0.28010  0.77500  Biso   1.000  C
  C64      1.0000 0.85220  0.71990  0.22500  Biso   1.000  C
  H41      1.0000 0.10790  0.28860  0.71620  Biso   1.000  H
  H42      1.0000 0.89210  0.71140  0.28380  Biso   1.000  H
  C65      1.0000 0.09000  0.21020  0.80800  Biso   1.000  C
  C66      1.0000 0.91000  0.78980  0.19200  Biso   1.000  C
  H43      1.0000 0.01120  0.17170  0.77080  Biso   1.000  H
  H44      1.0000 0.98880  0.82830  0.22920  Biso   1.000  H
  C67      1.0000 0.36000  0.50220  0.83610  Biso   1.000  C
  C68      1.0000 0.64000  0.49780  0.16390  Biso   1.000  C
  C69      1.0000 0.43120  0.56150  0.80800  Biso   1.000  C
  C70      1.0000 0.56880  0.43850  0.19200  Biso   1.000  C
  H45      1.0000 0.45460  0.53300  0.76730  Biso   1.000  H
  H46      1.0000 0.54540  0.46700  0.23270  Biso   1.000  H
  C71      1.0000 0.46840  0.66400  0.84020  Biso   1.000  C
  C72      1.0000 0.53160  0.33600  0.15980  Biso   1.000  C
  H47      1.0000 0.51550  0.70430  0.81980  Biso   1.000  H
  H48      1.0000 0.48450  0.29570  0.18020  Biso   1.000  H
  C73      1.0000 0.43580  0.70720  0.90290  Biso   1.000  C
  C74      1.0000 0.56420  0.29280  0.09710  Biso   1.000  C
  C75      1.0000 0.36570  0.64670  0.93260  Biso   1.000  C
  C76      1.0000 0.63430  0.35330  0.06740  Biso   1.000  C
  H49      1.0000 0.34360  0.67510  0.97440  Biso   1.000  H
  H50      1.0000 0.65640  0.32490  0.02560  Biso   1.000  H
  C77      1.0000 0.32780  0.54310  0.90030  Biso   1.000  C
  C78      1.0000 0.67220  0.45690  0.09970  Biso   1.000  C
  H51      1.0000 0.28200  0.50210  0.92120  Biso   1.000  H
  H52      1.0000 0.71800  0.49790  0.07880  Biso   1.000  H
  C79      1.0000 0.47540  0.81930  0.93950  Biso   1.000  C
  C80      1.0000 0.52460  0.18070  0.06050  Biso   1.000  C
  C81      1.0000 0.35140  0.93660  0.79340  Biso   1.000  C
  C82      1.0000 0.64860  0.06340  0.20660  Biso   1.000  C
  H53      1.0000 0.41280  0.92050  0.79170  Biso   1.000  H
  H54      1.0000 0.58720  0.07950  0.20830  Biso   1.000  H
  C83      1.0000 0.25390  0.91390  0.70840  Biso   1.000  C
  C84      1.0000 0.74610  0.08610  0.29160  Biso   1.000  C
  H55      1.0000 0.25200  0.88470  0.65240  Biso   1.000  H
  H56      1.0000 0.74800  0.11530  0.34760  Biso   1.000  H
  C85      1.0000 0.15950  0.93430  0.70640  Biso   1.000  C
  C86      1.0000 0.84050  0.06570  0.29360  Biso   1.000  C
  C87      1.0000 0.17240  0.97970  0.79250  Biso   1.000  C
  C88      1.0000 0.82760  0.02030  0.20750  Biso   1.000  C
  H57      1.0000 0.11240  0.99690  0.79590  Biso   1.000  H
  H58      1.0000 0.88760  0.00310  0.20410  Biso   1.000  H
  C89      1.0000 0.27350  0.00010  0.87390  Biso   1.000  C
  C90      1.0000 0.72650  0.99990  0.12610  Biso   1.000  C
  H59      1.0000 0.27800  0.03040  0.93080  Biso   1.000  H
  H60      1.0000 0.72200  0.96960  0.06920  Biso   1.000  H
  C91      1.0000 0.05400  0.90950  0.61970  Biso   1.000  C
  C92      1.0000 0.94600  0.09050  0.38030  Biso   1.000  C
  C93      1.0000 0.86950  0.87850  0.49320  Biso   1.000  C
  C94      1.0000 0.13050  0.12150  0.50680  Biso   1.000  C
  C95      1.0000 0.75390  0.87080  0.42530  Biso   1.000  C
  C96      1.0000 0.24610  0.12920  0.57470  Biso   1.000  C
  C97      1.0000 0.69980  0.81050  0.33760  Biso   1.000  C
  C98      1.0000 0.30020  0.18950  0.66240  Biso   1.000  C
  H61      1.0000 0.73540  0.77120  0.31930  Biso   1.000  H
  H62      1.0000 0.26460  0.22880  0.68070  Biso   1.000  H
  C99      1.0000 0.59170  0.80530  0.27320  Biso   1.000  C
  C100     1.0000 0.40830  0.19470  0.72680  Biso   1.000  C
  H63      1.0000 0.55690  0.76210  0.21270  Biso   1.000  H
  H64      1.0000 0.44310  0.23790  0.78730  Biso   1.000  H
  C101     1.0000 0.58610  0.91870  0.37920  Biso   1.000  C
  C102     1.0000 0.41390  0.08130  0.62080  Biso   1.000  C
  H65      1.0000 0.54710  0.95610  0.39480  Biso   1.000  H
  H66      1.0000 0.45290  0.04390  0.60520  Biso   1.000  H
  C103     1.0000 0.69570  0.92870  0.44810  Biso   1.000  C
  C104     1.0000 0.30430  0.07130  0.55190  Biso   1.000  C
  H67      1.0000 0.72950  0.97290  0.50790  Biso   1.000  H
  H68      1.0000 0.27050  0.02710  0.49210  Biso   1.000  H
  O23      1.0000 0.35180  0.87370  0.13040  Biso   1.000  O
  O24      1.0000 0.64820  0.12630  0.86960  Biso   1.000  O
  H69      1.0000 0.40080  0.87210  0.17650  Biso   1.000  H
  H70      1.0000 0.59920  0.12790  0.82350  Biso   1.000  H
  H71      1.0000 0.37210  0.87140  0.09210  Biso   1.000  H
  H72      1.0000 0.62790  0.12860  0.90790  Biso   1.000  H
  O25      1.0000 0.43590  0.83590  0.54110  Biso   1.000  O
  O26      1.0000 0.56410  0.16410  0.45890  Biso   1.000  O
  H73      1.0000 0.50370  0.86120  0.57370  Biso   1.000  H
  H74      1.0000 0.49630  0.13880  0.42630  Biso   1.000  H
  H75      1.0000 0.38200  0.81370  0.48990  Biso   1.000  H
  H76      1.0000 0.61800  0.18630  0.51010  Biso   1.000  H
  O27      1.0000 0.67820  0.92460  0.64690  Biso   1.000  O
  O28      1.0000 0.32180  0.07540  0.35310  Biso   1.000  O
  H77      1.0000 0.66160  0.87010  0.61780  Biso   1.000  H
  H78      1.0000 0.33840  0.12990  0.38220  Biso   1.000  H
  H79      1.0000 0.68360  0.93730  0.70160  Biso   1.000  H
  H80      1.0000 0.31640  0.06270  0.29840  Biso   1.000  H
  O29      1.0000 0.36200  0.25930  0.45060  Biso   1.000  O
  O30      1.0000 0.63800  0.74070  0.54940  Biso   1.000  O
  H81      1.0000 0.41700  0.25100  0.49200  Biso   1.000  H
  H82      1.0000 0.58300  0.74900  0.50800  Biso   1.000  H
  H83      1.0000 0.31800  0.27070  0.47200  Biso   1.000  H
  H84      1.0000 0.68200  0.72930  0.52800  Biso   1.000  H
  Cu5      1.0000 0.47790  0.44310  0.49280  Biso   1.000  Cu
  Cu6      1.0000 0.52210  0.55690  0.50720  Biso   1.000  Cu
