data_image0
_cell_length_a       14.0403
_cell_length_b       9.0493
_cell_length_c       17.2277
_cell_angle_alpha    90
_cell_angle_beta     106.962
_cell_angle_gamma    90

_symmetry_space_group_name_H-M    "P 1"
_symmetry_int_tables_number       1

loop_
  _symmetry_equiv_pos_as_xyz
  'x, y, z'

loop_
  _atom_site_label
  _atom_site_occupancy
  _atom_site_fract_x
  _atom_site_fract_y
  _atom_site_fract_z
  _atom_site_thermal_displace_type
  _atom_site_B_iso_or_equiv
  _atom_site_type_symbol
  Cu1      1.0000 0.90443  0.87562  0.23684  Biso   1.000  Cu
  Cu2      1.0000 0.09557  0.37562  0.26316  Biso   1.000  Cu
  Cu3      1.0000 0.09557  0.12438  0.76316  Biso   1.000  Cu
  Cu4      1.0000 0.90443  0.62438  0.73684  Biso   1.000  Cu
  N1       1.0000 0.81847  0.69537  0.20147  Biso   1.000  N
  N2       1.0000 0.18153  0.19537  0.29853  Biso   1.000  N
  N3       1.0000 0.18153  0.30463  0.79853  Biso   1.000  N
  N4       1.0000 0.81847  0.80463  0.70147  Biso   1.000  N
  N5       1.0000 0.94547  0.81998  0.13859  Biso   1.000  N
  N6       1.0000 0.05453  0.31998  0.36141  Biso   1.000  N
  N7       1.0000 0.05453  0.18002  0.86141  Biso   1.000  N
  N8       1.0000 0.94547  0.68002  0.63859  Biso   1.000  N
  C1       1.0000 0.75611  0.63860  0.23942  Biso   1.000  C
  C2       1.0000 0.24389  0.13860  0.26058  Biso   1.000  C
  C3       1.0000 0.24389  0.36140  0.76058  Biso   1.000  C
  C4       1.0000 0.75611  0.86140  0.73942  Biso   1.000  C
  H1       1.0000 0.75940  0.67210  0.29120  Biso   1.000  H
  H2       1.0000 0.24060  0.17210  0.20880  Biso   1.000  H
  H3       1.0000 0.24060  0.32790  0.70880  Biso   1.000  H
  H4       1.0000 0.75940  0.82790  0.79120  Biso   1.000  H
  C5       1.0000 0.81525  0.64560  0.12704  Biso   1.000  C
  C6       1.0000 0.18475  0.14560  0.37296  Biso   1.000  C
  C7       1.0000 0.18475  0.35440  0.87296  Biso   1.000  C
  C8       1.0000 0.81525  0.85440  0.62704  Biso   1.000  C
  C9       1.0000 0.02260  0.87750  0.11789  Biso   1.000  C
  C10      1.0000 0.97740  0.37750  0.38211  Biso   1.000  C
  C11      1.0000 0.97740  0.12250  0.88211  Biso   1.000  C
  C12      1.0000 0.02260  0.62250  0.61789  Biso   1.000  C
  H5       1.0000 0.06000  0.95220  0.14960  Biso   1.000  H
  H6       1.0000 0.94000  0.45220  0.35040  Biso   1.000  H
  H7       1.0000 0.94000  0.04780  0.85040  Biso   1.000  H
  H8       1.0000 0.06000  0.54780  0.64960  Biso   1.000  H
  C13      1.0000 0.89209  0.70980  0.09368  Biso   1.000  C
  C14      1.0000 0.10791  0.20980  0.40632  Biso   1.000  C
  C15      1.0000 0.10791  0.29020  0.90632  Biso   1.000  C
  C16      1.0000 0.89209  0.79020  0.59368  Biso   1.000  C
  C17      1.0000 0.68717  0.53190  0.20400  Biso   1.000  C
  C18      1.0000 0.31283  0.03190  0.29600  Biso   1.000  C
  C19      1.0000 0.31283  0.46810  0.79600  Biso   1.000  C
  C20      1.0000 0.68717  0.96810  0.70400  Biso   1.000  C
  H9       1.0000 0.64590  0.49150  0.23200  Biso   1.000  H
  H10      1.0000 0.35410  0.99150  0.26800  Biso   1.000  H
  H11      1.0000 0.35410  0.50850  0.76800  Biso   1.000  H
  H12      1.0000 0.64590  0.00850  0.73200  Biso   1.000  H
  C21      1.0000 0.74578  0.54210  0.08706  Biso   1.000  C
  C22      1.0000 0.25422  0.04210  0.41294  Biso   1.000  C
  C23      1.0000 0.25422  0.45790  0.91294  Biso   1.000  C
  C24      1.0000 0.74578  0.95790  0.58706  Biso   1.000  C
  H13      1.0000 0.74290  0.51070  0.03500  Biso   1.000  H
  H14      1.0000 0.25710  0.01070  0.46500  Biso   1.000  H
  H15      1.0000 0.25710  0.48930  0.96500  Biso   1.000  H
  H16      1.0000 0.74290  0.98930  0.53500  Biso   1.000  H
  C25      1.0000 0.04780  0.82850  0.05050  Biso   1.000  C
  C26      1.0000 0.95220  0.32850  0.44950  Biso   1.000  C
  C27      1.0000 0.95220  0.17150  0.94950  Biso   1.000  C
  C28      1.0000 0.04780  0.67150  0.55050  Biso   1.000  C
  H17      1.0000 0.10270  0.86780  0.03790  Biso   1.000  H
  H18      1.0000 0.89730  0.36780  0.46210  Biso   1.000  H
  H19      1.0000 0.89730  0.13220  0.96210  Biso   1.000  H
  H20      1.0000 0.10270  0.63220  0.53790  Biso   1.000  H
  C29      1.0000 0.68054  0.48620  0.12651  Biso   1.000  C
  C30      1.0000 0.31946  0.98620  0.37349  Biso   1.000  C
  C31      1.0000 0.31946  0.51380  0.87349  Biso   1.000  C
  C32      1.0000 0.68054  0.01380  0.62651  Biso   1.000  C
  H21      1.0000 0.63230  0.41790  0.10060  Biso   1.000  H
  H22      1.0000 0.36770  0.91790  0.39940  Biso   1.000  H
  H23      1.0000 0.36770  0.58210  0.89940  Biso   1.000  H
  H24      1.0000 0.63230  0.08210  0.60060  Biso   1.000  H
  C33      1.0000 0.99094  0.72110  0.00227  Biso   1.000  C
  C34      1.0000 0.00906  0.22110  0.49773  Biso   1.000  C
  C35      1.0000 0.00906  0.27890  0.99773  Biso   1.000  C
  C36      1.0000 0.99094  0.77890  0.50227  Biso   1.000  C
  H25      1.0000 0.00550  0.68950  0.95560  Biso   1.000  H
  H26      1.0000 0.99450  0.18950  0.54440  Biso   1.000  H
  H27      1.0000 0.99450  0.31050  0.04440  Biso   1.000  H
  H28      1.0000 0.00550  0.81050  0.45560  Biso   1.000  H
  C37      1.0000 0.91172  0.66040  0.02386  Biso   1.000  C
  C38      1.0000 0.08828  0.16040  0.47614  Biso   1.000  C
  C39      1.0000 0.08828  0.33960  0.97614  Biso   1.000  C
  C40      1.0000 0.91172  0.83960  0.52386  Biso   1.000  C
  H29      1.0000 0.87230  0.58770  0.99190  Biso   1.000  H
  H30      1.0000 0.12770  0.08770  0.50810  Biso   1.000  H
  H31      1.0000 0.12770  0.41230  0.00810  Biso   1.000  H
  H32      1.0000 0.87230  0.91230  0.49190  Biso   1.000  H
  O1       1.0000 0.95885  0.29437  0.17777  Biso   1.000  O
  O2       1.0000 0.04115  0.79437  0.32223  Biso   1.000  O
  O3       1.0000 0.04115  0.70563  0.82223  Biso   1.000  O
  O4       1.0000 0.95885  0.20563  0.67777  Biso   1.000  O
  N9       1.0000 0.75786  0.05464  0.16986  Biso   1.000  N
  N10      1.0000 0.24214  0.55464  0.33014  Biso   1.000  N
  N11      1.0000 0.24214  0.94536  0.83014  Biso   1.000  N
  N12      1.0000 0.75786  0.44536  0.66986  Biso   1.000  N
  O5       1.0000 0.51953  0.73662  0.86859  Biso   1.000  O
  O6       1.0000 0.48047  0.23662  0.63141  Biso   1.000  O
  O7       1.0000 0.48047  0.26338  0.13141  Biso   1.000  O
  O8       1.0000 0.51953  0.76338  0.36859  Biso   1.000  O
  O9       1.0000 0.45580  0.77287  0.20996  Biso   1.000  O
  O10      1.0000 0.54420  0.27287  0.29004  Biso   1.000  O
  O11      1.0000 0.54420  0.22713  0.79004  Biso   1.000  O
  O12      1.0000 0.45580  0.72713  0.70996  Biso   1.000  O
  C41      1.0000 0.66934  0.94550  0.03880  Biso   1.000  C
  C42      1.0000 0.33066  0.44550  0.46120  Biso   1.000  C
  C43      1.0000 0.33066  0.05450  0.96120  Biso   1.000  C
  C44      1.0000 0.66934  0.55450  0.53880  Biso   1.000  C
  H33      1.0000 0.71580  0.98620  0.01600  Biso   1.000  H
  H34      1.0000 0.28420  0.48620  0.48400  Biso   1.000  H
  H35      1.0000 0.28420  0.01380  0.98400  Biso   1.000  H
  H36      1.0000 0.71580  0.51380  0.51600  Biso   1.000  H
  O13      1.0000 0.37484  0.70856  0.08322  Biso   1.000  O
  O14      1.0000 0.62516  0.20856  0.41678  Biso   1.000  O
  O15      1.0000 0.62516  0.29144  0.91678  Biso   1.000  O
  O16      1.0000 0.37484  0.79144  0.58322  Biso   1.000  O
  C45      1.0000 0.74629  0.11954  0.24435  Biso   1.000  C
  C46      1.0000 0.25371  0.61954  0.25565  Biso   1.000  C
  C47      1.0000 0.25371  0.88046  0.75565  Biso   1.000  C
  C48      1.0000 0.74629  0.38046  0.74435  Biso   1.000  C
  H37      1.0000 0.67610  0.13890  0.23630  Biso   1.000  H
  H38      1.0000 0.32390  0.63890  0.26370  Biso   1.000  H
  H39      1.0000 0.32390  0.86110  0.76370  Biso   1.000  H
  H40      1.0000 0.67610  0.36110  0.73630  Biso   1.000  H
  H41      1.0000 0.78060  0.21390  0.25330  Biso   1.000  H
  H42      1.0000 0.21940  0.71390  0.24670  Biso   1.000  H
  H43      1.0000 0.21940  0.78610  0.74670  Biso   1.000  H
  H44      1.0000 0.78060  0.28610  0.75330  Biso   1.000  H
  O17      1.0000 0.64464  0.89170  0.87247  Biso   1.000  O
  O18      1.0000 0.35536  0.39170  0.62753  Biso   1.000  O
  O19      1.0000 0.35536  0.10830  0.12753  Biso   1.000  O
  O20      1.0000 0.64464  0.60830  0.37247  Biso   1.000  O
  C49      1.0000 0.60448  0.91290  0.15195  Biso   1.000  C
  C50      1.0000 0.39552  0.41290  0.34805  Biso   1.000  C
  C51      1.0000 0.39552  0.08710  0.84805  Biso   1.000  C
  C52      1.0000 0.60448  0.58710  0.65195  Biso   1.000  C
  H45      1.0000 0.60830  0.92880  0.20610  Biso   1.000  H
  H46      1.0000 0.39170  0.42880  0.29390  Biso   1.000  H
  H47      1.0000 0.39170  0.07120  0.79390  Biso   1.000  H
  H48      1.0000 0.60830  0.57120  0.70610  Biso   1.000  H
  C53      1.0000 0.81828  0.14170  0.13066  Biso   1.000  C
  C54      1.0000 0.18172  0.64170  0.36934  Biso   1.000  C
  C55      1.0000 0.18172  0.85830  0.86934  Biso   1.000  C
  C56      1.0000 0.81828  0.35830  0.63066  Biso   1.000  C
  H49      1.0000 0.78460  0.23410  0.11160  Biso   1.000  H
  H50      1.0000 0.21540  0.73410  0.38840  Biso   1.000  H
  H51      1.0000 0.21540  0.76590  0.88840  Biso   1.000  H
  H52      1.0000 0.78460  0.26590  0.61160  Biso   1.000  H
  H53      1.0000 0.82530  0.08820  0.08390  Biso   1.000  H
  H54      1.0000 0.17470  0.58820  0.41610  Biso   1.000  H
  H55      1.0000 0.17470  0.91180  0.91610  Biso   1.000  H
  H56      1.0000 0.82530  0.41180  0.58390  Biso   1.000  H
  C57      1.0000 0.92141  0.17440  0.18822  Biso   1.000  C
  C58      1.0000 0.07859  0.67440  0.31178  Biso   1.000  C
  C59      1.0000 0.07859  0.82560  0.81178  Biso   1.000  C
  C60      1.0000 0.92141  0.32560  0.68822  Biso   1.000  C
  C61      1.0000 0.44958  0.76780  0.13802  Biso   1.000  C
  C62      1.0000 0.55042  0.26780  0.36198  Biso   1.000  C
  C63      1.0000 0.55042  0.23220  0.86198  Biso   1.000  C
  C64      1.0000 0.44958  0.73220  0.63802  Biso   1.000  C
  C65      1.0000 0.59362  0.85800  0.99147  Biso   1.000  C
  C66      1.0000 0.40638  0.35800  0.50853  Biso   1.000  C
  C67      1.0000 0.40638  0.14200  0.00853  Biso   1.000  C
  C68      1.0000 0.59362  0.64200  0.49147  Biso   1.000  C
  C69      1.0000 0.52721  0.82950  0.10343  Biso   1.000  C
  C70      1.0000 0.47279  0.32950  0.39657  Biso   1.000  C
  C71      1.0000 0.47279  0.17050  0.89657  Biso   1.000  C
  C72      1.0000 0.52721  0.67050  0.60343  Biso   1.000  C
  C73      1.0000 0.67730  0.97381  0.12014  Biso   1.000  C
  C74      1.0000 0.32270  0.47381  0.37986  Biso   1.000  C
  C75      1.0000 0.32270  0.02619  0.87986  Biso   1.000  C
  C76      1.0000 0.67730  0.52619  0.62014  Biso   1.000  C
  C77      1.0000 0.52115  0.80020  0.02318  Biso   1.000  C
  C78      1.0000 0.47885  0.30020  0.47682  Biso   1.000  C
  C79      1.0000 0.47885  0.19980  0.97682  Biso   1.000  C
  C80      1.0000 0.52115  0.69980  0.52318  Biso   1.000  C
  H57      1.0000 0.46950  0.74300  0.99110  Biso   1.000  H
  H58      1.0000 0.53050  0.24300  0.50890  Biso   1.000  H
  H59      1.0000 0.53050  0.25700  0.00890  Biso   1.000  H
  H60      1.0000 0.46950  0.75700  0.49110  Biso   1.000  H
  C81      1.0000 0.58999  0.83240  0.90512  Biso   1.000  C
  C82      1.0000 0.41001  0.33240  0.59488  Biso   1.000  C
  C83      1.0000 0.41001  0.16760  0.09488  Biso   1.000  C
  C84      1.0000 0.58999  0.66760  0.40512  Biso   1.000  C
  O21      1.0000 0.75743  0.06146  0.38124  Biso   1.000  O
  O22      1.0000 0.24257  0.56146  0.11876  Biso   1.000  O
  O23      1.0000 0.24257  0.93854  0.61876  Biso   1.000  O
  O24      1.0000 0.75743  0.43854  0.88124  Biso   1.000  O
  O25      1.0000 0.96248  0.07755  0.23980  Biso   1.000  O
  O26      1.0000 0.03752  0.57755  0.26020  Biso   1.000  O
  O27      1.0000 0.03752  0.92245  0.76020  Biso   1.000  O
  O28      1.0000 0.96248  0.42245  0.73980  Biso   1.000  O
  C85      1.0000 0.78527  0.02560  0.32128  Biso   1.000  C
  C86      1.0000 0.21473  0.52560  0.17872  Biso   1.000  C
  C87      1.0000 0.21473  0.97440  0.67872  Biso   1.000  C
  C88      1.0000 0.78527  0.47440  0.82128  Biso   1.000  C
  O29      1.0000 0.84484  0.92100  0.32303  Biso   1.000  O
  O30      1.0000 0.15516  0.42100  0.17697  Biso   1.000  O
  O31      1.0000 0.15516  0.07900  0.67697  Biso   1.000  O
  O32      1.0000 0.84484  0.57900  0.82303  Biso   1.000  O
  H61      1.0000 0.33430  0.67400  0.10040  Biso   1.000  H
  H62      1.0000 0.66570  0.17400  0.39960  Biso   1.000  H
  H63      1.0000 0.66570  0.32600  0.89960  Biso   1.000  H
  H64      1.0000 0.33430  0.82600  0.60040  Biso   1.000  H
  H65      1.0000 0.51530  0.73700  0.82420  Biso   1.000  H
  H66      1.0000 0.48470  0.23700  0.67580  Biso   1.000  H
  H67      1.0000 0.48470  0.26300  0.17580  Biso   1.000  H
  H68      1.0000 0.51530  0.76300  0.32420  Biso   1.000  H
