data_image0
_cell_length_a       14.5745
_cell_length_b       17.292
_cell_length_c       15.456
_cell_angle_alpha    90
_cell_angle_beta     90
_cell_angle_gamma    90

_symmetry_space_group_name_H-M    "P 1"
_symmetry_int_tables_number       1

loop_
  _symmetry_equiv_pos_as_xyz
  'x, y, z'

loop_
  _atom_site_label
  _atom_site_occupancy
  _atom_site_fract_x
  _atom_site_fract_y
  _atom_site_fract_z
  _atom_site_thermal_displace_type
  _atom_site_B_iso_or_equiv
  _atom_site_type_symbol
  Cu1      1.0000 0.15520  0.13989  0.54303  Biso   1.000  Cu
  Cu2      1.0000 0.34480  0.63989  0.54303  Biso   1.000  Cu
  Cu3      1.0000 0.15520  0.36011  0.04303  Biso   1.000  Cu
  Cu4      1.0000 0.65520  0.13989  0.95697  Biso   1.000  Cu
  Cu5      1.0000 0.84480  0.86011  0.45697  Biso   1.000  Cu
  Cu6      1.0000 0.65520  0.36011  0.45697  Biso   1.000  Cu
  Cu7      1.0000 0.84480  0.63989  0.95697  Biso   1.000  Cu
  Cu8      1.0000 0.34480  0.86011  0.04303  Biso   1.000  Cu
  N1       1.0000 0.13610  0.15847  0.41510  Biso   1.000  N
  N2       1.0000 0.36390  0.65847  0.41510  Biso   1.000  N
  N3       1.0000 0.13610  0.34153  0.91510  Biso   1.000  N
  N4       1.0000 0.63610  0.15847  0.08490  Biso   1.000  N
  N5       1.0000 0.86390  0.84153  0.58490  Biso   1.000  N
  N6       1.0000 0.63610  0.34153  0.58490  Biso   1.000  N
  N7       1.0000 0.86390  0.65847  0.08490  Biso   1.000  N
  N8       1.0000 0.36390  0.84153  0.91510  Biso   1.000  N
  C1       1.0000 0.14210  0.23060  0.38310  Biso   1.000  C
  C2       1.0000 0.35790  0.73060  0.38310  Biso   1.000  C
  C3       1.0000 0.14210  0.26940  0.88310  Biso   1.000  C
  C4       1.0000 0.64210  0.23060  0.11690  Biso   1.000  C
  C5       1.0000 0.85790  0.76940  0.61690  Biso   1.000  C
  C6       1.0000 0.64210  0.26940  0.61690  Biso   1.000  C
  C7       1.0000 0.85790  0.73060  0.11690  Biso   1.000  C
  C8       1.0000 0.35790  0.76940  0.88310  Biso   1.000  C
  C9       1.0000 0.15900  0.24290  0.29590  Biso   1.000  C
  C10      1.0000 0.34100  0.74290  0.29590  Biso   1.000  C
  C11      1.0000 0.15900  0.25710  0.79590  Biso   1.000  C
  C12      1.0000 0.65900  0.24290  0.20410  Biso   1.000  C
  C13      1.0000 0.84100  0.75710  0.70410  Biso   1.000  C
  C14      1.0000 0.65900  0.25710  0.70410  Biso   1.000  C
  C15      1.0000 0.84100  0.74290  0.20410  Biso   1.000  C
  C16      1.0000 0.34100  0.75710  0.79590  Biso   1.000  C
  H1       1.0000 0.16890  0.29460  0.27320  Biso   1.000  H
  H2       1.0000 0.33110  0.79460  0.27320  Biso   1.000  H
  H3       1.0000 0.16890  0.20540  0.77320  Biso   1.000  H
  H4       1.0000 0.66890  0.29460  0.22680  Biso   1.000  H
  H5       1.0000 0.83110  0.70540  0.72680  Biso   1.000  H
  H6       1.0000 0.66890  0.20540  0.72680  Biso   1.000  H
  H7       1.0000 0.83110  0.79460  0.22680  Biso   1.000  H
  H8       1.0000 0.33110  0.70540  0.77320  Biso   1.000  H
  C17      1.0000 0.16270  0.18010  0.24140  Biso   1.000  C
  C18      1.0000 0.33730  0.68010  0.24140  Biso   1.000  C
  C19      1.0000 0.16270  0.31990  0.74140  Biso   1.000  C
  C20      1.0000 0.66270  0.18010  0.25860  Biso   1.000  C
  C21      1.0000 0.83730  0.81990  0.75860  Biso   1.000  C
  C22      1.0000 0.66270  0.31990  0.75860  Biso   1.000  C
  C23      1.0000 0.83730  0.68010  0.25860  Biso   1.000  C
  C24      1.0000 0.33730  0.81990  0.74140  Biso   1.000  C
  H9       1.0000 0.17010  0.19030  0.18780  Biso   1.000  H
  H10      1.0000 0.32990  0.69030  0.18780  Biso   1.000  H
  H11      1.0000 0.17010  0.30970  0.68780  Biso   1.000  H
  H12      1.0000 0.67010  0.19030  0.31220  Biso   1.000  H
  H13      1.0000 0.82990  0.80970  0.81220  Biso   1.000  H
  H14      1.0000 0.67010  0.30970  0.81220  Biso   1.000  H
  H15      1.0000 0.82990  0.69030  0.31220  Biso   1.000  H
  H16      1.0000 0.32990  0.80970  0.68780  Biso   1.000  H
  C25      1.0000 0.15050  0.10640  0.27290  Biso   1.000  C
  C26      1.0000 0.34950  0.60640  0.27290  Biso   1.000  C
  C27      1.0000 0.15050  0.39360  0.77290  Biso   1.000  C
  C28      1.0000 0.65050  0.10640  0.22710  Biso   1.000  C
  C29      1.0000 0.84950  0.89360  0.72710  Biso   1.000  C
  C30      1.0000 0.65050  0.39360  0.72710  Biso   1.000  C
  C31      1.0000 0.84950  0.60640  0.22710  Biso   1.000  C
  C32      1.0000 0.34950  0.89360  0.77290  Biso   1.000  C
  H17      1.0000 0.15150  0.06350  0.23690  Biso   1.000  H
  H18      1.0000 0.34850  0.56350  0.23690  Biso   1.000  H
  H19      1.0000 0.15150  0.43650  0.73690  Biso   1.000  H
  H20      1.0000 0.65150  0.06350  0.26310  Biso   1.000  H
  H21      1.0000 0.84850  0.93650  0.76310  Biso   1.000  H
  H22      1.0000 0.65150  0.43650  0.76310  Biso   1.000  H
  H23      1.0000 0.84850  0.56350  0.26310  Biso   1.000  H
  H24      1.0000 0.34850  0.93650  0.73690  Biso   1.000  H
  C33      1.0000 0.13800  0.09780  0.35970  Biso   1.000  C
  C34      1.0000 0.36200  0.59780  0.35970  Biso   1.000  C
  C35      1.0000 0.13800  0.40220  0.85970  Biso   1.000  C
  C36      1.0000 0.63800  0.09780  0.14030  Biso   1.000  C
  C37      1.0000 0.86200  0.90220  0.64030  Biso   1.000  C
  C38      1.0000 0.63800  0.40220  0.64030  Biso   1.000  C
  C39      1.0000 0.86200  0.59780  0.14030  Biso   1.000  C
  C40      1.0000 0.36200  0.90220  0.85970  Biso   1.000  C
  H25      1.0000 0.13320  0.04700  0.38640  Biso   1.000  H
  H26      1.0000 0.36680  0.54700  0.38640  Biso   1.000  H
  H27      1.0000 0.13320  0.45300  0.88640  Biso   1.000  H
  H28      1.0000 0.63320  0.04700  0.11360  Biso   1.000  H
  H29      1.0000 0.86680  0.95300  0.61360  Biso   1.000  H
  H30      1.0000 0.63320  0.45300  0.61360  Biso   1.000  H
  H31      1.0000 0.86680  0.54700  0.11360  Biso   1.000  H
  H32      1.0000 0.36680  0.95300  0.88640  Biso   1.000  H
  N9       1.0000 0.05630  0.21913  0.56060  Biso   1.000  N
  N10      1.0000 0.44370  0.71913  0.56060  Biso   1.000  N
  N11      1.0000 0.05630  0.28087  0.06060  Biso   1.000  N
  N12      1.0000 0.55630  0.21913  0.93940  Biso   1.000  N
  N13      1.0000 0.94370  0.78087  0.43940  Biso   1.000  N
  N14      1.0000 0.55630  0.28087  0.43940  Biso   1.000  N
  N15      1.0000 0.94370  0.71913  0.93940  Biso   1.000  N
  N16      1.0000 0.44370  0.78087  0.06060  Biso   1.000  N
  C41      1.0000 0.05880  0.28670  0.51630  Biso   1.000  C
  C42      1.0000 0.44120  0.78670  0.51630  Biso   1.000  C
  C43      1.0000 0.05880  0.21330  0.01630  Biso   1.000  C
  C44      1.0000 0.55880  0.28670  0.98370  Biso   1.000  C
  C45      1.0000 0.94120  0.71330  0.48370  Biso   1.000  C
  C46      1.0000 0.55880  0.21330  0.48370  Biso   1.000  C
  C47      1.0000 0.94120  0.78670  0.98370  Biso   1.000  C
  C48      1.0000 0.44120  0.71330  0.01630  Biso   1.000  C
  C49      1.0000 0.99540  0.34390  0.53320  Biso   1.000  C
  C50      1.0000 0.50460  0.84390  0.53320  Biso   1.000  C
  C51      1.0000 0.99540  0.15610  0.03320  Biso   1.000  C
  C52      1.0000 0.49540  0.34390  0.96680  Biso   1.000  C
  C53      1.0000 0.00460  0.65610  0.46680  Biso   1.000  C
  C54      1.0000 0.49540  0.15610  0.46680  Biso   1.000  C
  C55      1.0000 0.00460  0.84390  0.96680  Biso   1.000  C
  C56      1.0000 0.50460  0.65610  0.03320  Biso   1.000  C
  H33      1.0000 0.99870  0.39370  0.50760  Biso   1.000  H
  H34      1.0000 0.50130  0.89370  0.50760  Biso   1.000  H
  H35      1.0000 0.99870  0.10630  0.00760  Biso   1.000  H
  H36      1.0000 0.49870  0.39370  0.99240  Biso   1.000  H
  H37      1.0000 0.00130  0.60630  0.49240  Biso   1.000  H
  H38      1.0000 0.49870  0.10630  0.49240  Biso   1.000  H
  H39      1.0000 0.00130  0.89370  0.99240  Biso   1.000  H
  H40      1.0000 0.50130  0.60630  0.00760  Biso   1.000  H
  C57      1.0000 0.92600  0.33080  0.59330  Biso   1.000  C
  C58      1.0000 0.57400  0.83080  0.59330  Biso   1.000  C
  C59      1.0000 0.92600  0.16920  0.09330  Biso   1.000  C
  C60      1.0000 0.42600  0.33080  0.90670  Biso   1.000  C
  C61      1.0000 0.07400  0.66920  0.40670  Biso   1.000  C
  C62      1.0000 0.42600  0.16920  0.40670  Biso   1.000  C
  C63      1.0000 0.07400  0.83080  0.90670  Biso   1.000  C
  C64      1.0000 0.57400  0.66920  0.09330  Biso   1.000  C
  H41      1.0000 0.87820  0.36860  0.59710  Biso   1.000  H
  H42      1.0000 0.62180  0.86860  0.59710  Biso   1.000  H
  H43      1.0000 0.87820  0.13140  0.09710  Biso   1.000  H
  H44      1.0000 0.37820  0.36860  0.90290  Biso   1.000  H
  H45      1.0000 0.12180  0.63140  0.40290  Biso   1.000  H
  H46      1.0000 0.37820  0.13140  0.40290  Biso   1.000  H
  H47      1.0000 0.12180  0.86860  0.90290  Biso   1.000  H
  H48      1.0000 0.62180  0.63140  0.09710  Biso   1.000  H
  C65      1.0000 0.92340  0.26170  0.63690  Biso   1.000  C
  C66      1.0000 0.57660  0.76170  0.63690  Biso   1.000  C
  C67      1.0000 0.92340  0.23830  0.13690  Biso   1.000  C
  C68      1.0000 0.42340  0.26170  0.86310  Biso   1.000  C
  C69      1.0000 0.07660  0.73830  0.36310  Biso   1.000  C
  C70      1.0000 0.42340  0.23830  0.36310  Biso   1.000  C
  C71      1.0000 0.07660  0.76170  0.86310  Biso   1.000  C
  C72      1.0000 0.57660  0.73830  0.13690  Biso   1.000  C
  H49      1.0000 0.87350  0.25220  0.67200  Biso   1.000  H
  H50      1.0000 0.62650  0.75220  0.67200  Biso   1.000  H
  H51      1.0000 0.87350  0.24780  0.17200  Biso   1.000  H
  H52      1.0000 0.37350  0.25220  0.82800  Biso   1.000  H
  H53      1.0000 0.12650  0.74780  0.32800  Biso   1.000  H
  H54      1.0000 0.37350  0.24780  0.32800  Biso   1.000  H
  H55      1.0000 0.12650  0.75220  0.82800  Biso   1.000  H
  H56      1.0000 0.62650  0.74780  0.17200  Biso   1.000  H
  C73      1.0000 0.99030  0.20780  0.61910  Biso   1.000  C
  C74      1.0000 0.50970  0.70780  0.61910  Biso   1.000  C
  C75      1.0000 0.99030  0.29220  0.11910  Biso   1.000  C
  C76      1.0000 0.49030  0.20780  0.88090  Biso   1.000  C
  C77      1.0000 0.00970  0.79220  0.38090  Biso   1.000  C
  C78      1.0000 0.49030  0.29220  0.38090  Biso   1.000  C
  C79      1.0000 0.00970  0.70780  0.88090  Biso   1.000  C
  C80      1.0000 0.50970  0.79220  0.11910  Biso   1.000  C
  H57      1.0000 0.98840  0.15510  0.64920  Biso   1.000  H
  H58      1.0000 0.51160  0.65510  0.64920  Biso   1.000  H
  H59      1.0000 0.98840  0.34490  0.14920  Biso   1.000  H
  H60      1.0000 0.48840  0.15510  0.85080  Biso   1.000  H
  H61      1.0000 0.01160  0.84490  0.35080  Biso   1.000  H
  H62      1.0000 0.48840  0.34490  0.35080  Biso   1.000  H
  H63      1.0000 0.01160  0.65510  0.85080  Biso   1.000  H
  H64      1.0000 0.51160  0.84490  0.14920  Biso   1.000  H
  N17      1.0000 0.24900  0.24100  0.54580  Biso   1.000  N
  N18      1.0000 0.25100  0.74100  0.54580  Biso   1.000  N
  N19      1.0000 0.24900  0.25900  0.04580  Biso   1.000  N
  N20      1.0000 0.74900  0.24100  0.95420  Biso   1.000  N
  N21      1.0000 0.75100  0.75900  0.45420  Biso   1.000  N
  N22      1.0000 0.74900  0.25900  0.45420  Biso   1.000  N
  N23      1.0000 0.75100  0.74100  0.95420  Biso   1.000  N
  N24      1.0000 0.25100  0.75900  0.04580  Biso   1.000  N
  C81      1.0000 0.22890  0.30340  0.49690  Biso   1.000  C
  C82      1.0000 0.27110  0.80340  0.49690  Biso   1.000  C
  C83      1.0000 0.22890  0.19660  0.99690  Biso   1.000  C
  C84      1.0000 0.72890  0.30340  0.00310  Biso   1.000  C
  C85      1.0000 0.77110  0.69660  0.50310  Biso   1.000  C
  C86      1.0000 0.72890  0.19660  0.50310  Biso   1.000  C
  C87      1.0000 0.77110  0.80340  0.00310  Biso   1.000  C
  C88      1.0000 0.27110  0.69660  0.99690  Biso   1.000  C
  C89      1.0000 0.28730  0.36570  0.49160  Biso   1.000  C
  C90      1.0000 0.21270  0.86570  0.49160  Biso   1.000  C
  C91      1.0000 0.28730  0.13430  0.99160  Biso   1.000  C
  C92      1.0000 0.78730  0.36570  0.00840  Biso   1.000  C
  C93      1.0000 0.71270  0.63430  0.50840  Biso   1.000  C
  C94      1.0000 0.78730  0.13430  0.50840  Biso   1.000  C
  C95      1.0000 0.71270  0.86570  0.00840  Biso   1.000  C
  C96      1.0000 0.21270  0.63430  0.99160  Biso   1.000  C
  H65      1.0000 0.27680  0.40570  0.45330  Biso   1.000  H
  H66      1.0000 0.22320  0.90570  0.45330  Biso   1.000  H
  H67      1.0000 0.27680  0.09430  0.95330  Biso   1.000  H
  H68      1.0000 0.77680  0.40570  0.04670  Biso   1.000  H
  H69      1.0000 0.72320  0.59430  0.54670  Biso   1.000  H
  H70      1.0000 0.77680  0.09430  0.54670  Biso   1.000  H
  H71      1.0000 0.72320  0.90570  0.04670  Biso   1.000  H
  H72      1.0000 0.22320  0.59430  0.95330  Biso   1.000  H
  C97      1.0000 0.36640  0.36640  0.54200  Biso   1.000  C
  C98      1.0000 0.13360  0.86640  0.54200  Biso   1.000  C
  C99      1.0000 0.36640  0.13360  0.04200  Biso   1.000  C
  C100     1.0000 0.86640  0.36640  0.95800  Biso   1.000  C
  C101     1.0000 0.63360  0.63360  0.45800  Biso   1.000  C
  C102     1.0000 0.86640  0.13360  0.45800  Biso   1.000  C
  C103     1.0000 0.63360  0.86640  0.95800  Biso   1.000  C
  C104     1.0000 0.13360  0.63360  0.04200  Biso   1.000  C
  H73      1.0000 0.40590  0.40920  0.53710  Biso   1.000  H
  H74      1.0000 0.09410  0.90920  0.53710  Biso   1.000  H
  H75      1.0000 0.40590  0.09080  0.03710  Biso   1.000  H
  H76      1.0000 0.90590  0.40920  0.96290  Biso   1.000  H
  H77      1.0000 0.59410  0.59080  0.46290  Biso   1.000  H
  H78      1.0000 0.90590  0.09080  0.46290  Biso   1.000  H
  H79      1.0000 0.59410  0.90920  0.96290  Biso   1.000  H
  H80      1.0000 0.09410  0.59080  0.03710  Biso   1.000  H
  C105     1.0000 0.38540  0.30440  0.59420  Biso   1.000  C
  C106     1.0000 0.11460  0.80440  0.59420  Biso   1.000  C
  C107     1.0000 0.38540  0.19560  0.09420  Biso   1.000  C
  C108     1.0000 0.88540  0.30440  0.90580  Biso   1.000  C
  C109     1.0000 0.61460  0.69560  0.40580  Biso   1.000  C
  C110     1.0000 0.88540  0.19560  0.40580  Biso   1.000  C
  C111     1.0000 0.61460  0.80440  0.90580  Biso   1.000  C
  C112     1.0000 0.11460  0.69560  0.09420  Biso   1.000  C
  H81      1.0000 0.43810  0.30330  0.62770  Biso   1.000  H
  H82      1.0000 0.06190  0.80330  0.62770  Biso   1.000  H
  H83      1.0000 0.43810  0.19670  0.12770  Biso   1.000  H
  H84      1.0000 0.93810  0.30330  0.87230  Biso   1.000  H
  H85      1.0000 0.56190  0.69670  0.37230  Biso   1.000  H
  H86      1.0000 0.93810  0.19670  0.37230  Biso   1.000  H
  H87      1.0000 0.56190  0.80330  0.87230  Biso   1.000  H
  H88      1.0000 0.06190  0.69670  0.12770  Biso   1.000  H
  C113     1.0000 0.32600  0.24210  0.59230  Biso   1.000  C
  C114     1.0000 0.17400  0.74210  0.59230  Biso   1.000  C
  C115     1.0000 0.32600  0.25790  0.09230  Biso   1.000  C
  C116     1.0000 0.82600  0.24210  0.90770  Biso   1.000  C
  C117     1.0000 0.67400  0.75790  0.40770  Biso   1.000  C
  C118     1.0000 0.82600  0.25790  0.40770  Biso   1.000  C
  C119     1.0000 0.67400  0.74210  0.90770  Biso   1.000  C
  C120     1.0000 0.17400  0.75790  0.09230  Biso   1.000  C
  H89      1.0000 0.33490  0.19760  0.62380  Biso   1.000  H
  H90      1.0000 0.16510  0.69760  0.62380  Biso   1.000  H
  H91      1.0000 0.33490  0.30240  0.12380  Biso   1.000  H
  H92      1.0000 0.83490  0.19760  0.87620  Biso   1.000  H
  H93      1.0000 0.66510  0.80240  0.37620  Biso   1.000  H
  H94      1.0000 0.83490  0.30240  0.37620  Biso   1.000  H
  H95      1.0000 0.66510  0.69760  0.87620  Biso   1.000  H
  H96      1.0000 0.16510  0.80240  0.12380  Biso   1.000  H
  C121     1.0000 0.13570  0.29820  0.44820  Biso   1.000  C
  C122     1.0000 0.36430  0.79820  0.44820  Biso   1.000  C
  C123     1.0000 0.13570  0.20180  0.94820  Biso   1.000  C
  C124     1.0000 0.63570  0.29820  0.05180  Biso   1.000  C
  C125     1.0000 0.86430  0.70180  0.55180  Biso   1.000  C
  C126     1.0000 0.63570  0.20180  0.55180  Biso   1.000  C
  C127     1.0000 0.86430  0.79820  0.05180  Biso   1.000  C
  C128     1.0000 0.36430  0.70180  0.94820  Biso   1.000  C
  N25      1.0000 0.12160  0.37080  0.40260  Biso   1.000  N
  N26      1.0000 0.37840  0.87080  0.40260  Biso   1.000  N
  N27      1.0000 0.12160  0.12920  0.90260  Biso   1.000  N
  N28      1.0000 0.62160  0.37080  0.09740  Biso   1.000  N
  N29      1.0000 0.87840  0.62920  0.59740  Biso   1.000  N
  N30      1.0000 0.62160  0.12920  0.59740  Biso   1.000  N
  N31      1.0000 0.87840  0.87080  0.09740  Biso   1.000  N
  N32      1.0000 0.37840  0.62920  0.90260  Biso   1.000  N
  H97      1.0000 0.14230  0.40170  0.42180  Biso   1.000  H
  H98      1.0000 0.35770  0.90170  0.42180  Biso   1.000  H
  H99      1.0000 0.14230  0.09830  0.92180  Biso   1.000  H
  H100     1.0000 0.64230  0.40170  0.07820  Biso   1.000  H
  H101     1.0000 0.85770  0.59830  0.57820  Biso   1.000  H
  H102     1.0000 0.64230  0.09830  0.57820  Biso   1.000  H
  H103     1.0000 0.85770  0.90170  0.07820  Biso   1.000  H
  H104     1.0000 0.35770  0.59830  0.92180  Biso   1.000  H
  C129     1.0000 0.05010  0.38760  0.34940  Biso   1.000  C
  C130     1.0000 0.44990  0.88760  0.34940  Biso   1.000  C
  C131     1.0000 0.05010  0.11240  0.84940  Biso   1.000  C
  C132     1.0000 0.55010  0.38760  0.15060  Biso   1.000  C
  C133     1.0000 0.94990  0.61240  0.65060  Biso   1.000  C
  C134     1.0000 0.55010  0.11240  0.65060  Biso   1.000  C
  C135     1.0000 0.94990  0.88760  0.15060  Biso   1.000  C
  C136     1.0000 0.44990  0.61240  0.84940  Biso   1.000  C
  O1       1.0000 0.99630  0.34006  0.32350  Biso   1.000  O
  O2       1.0000 0.50370  0.84006  0.32350  Biso   1.000  O
  O3       1.0000 0.99630  0.15994  0.82350  Biso   1.000  O
  O4       1.0000 0.49630  0.34006  0.17650  Biso   1.000  O
  O5       1.0000 0.00370  0.65994  0.67650  Biso   1.000  O
  O6       1.0000 0.49630  0.15994  0.67650  Biso   1.000  O
  O7       1.0000 0.00370  0.84006  0.17650  Biso   1.000  O
  O8       1.0000 0.50370  0.65994  0.82350  Biso   1.000  O
  C137     1.0000 0.04430  0.47150  0.32270  Biso   1.000  C
  C138     1.0000 0.45570  0.97150  0.32270  Biso   1.000  C
  C139     1.0000 0.04430  0.02850  0.82270  Biso   1.000  C
  C140     1.0000 0.54430  0.47150  0.17730  Biso   1.000  C
  C141     1.0000 0.95570  0.52850  0.67730  Biso   1.000  C
  C142     1.0000 0.54430  0.02850  0.67730  Biso   1.000  C
  C143     1.0000 0.95570  0.97150  0.17730  Biso   1.000  C
  C144     1.0000 0.45570  0.52850  0.82270  Biso   1.000  C
  H105     1.0000 0.97790  0.47970  0.28240  Biso   1.000  H
  H106     1.0000 0.52210  0.97970  0.28240  Biso   1.000  H
  H107     1.0000 0.97790  0.02030  0.78240  Biso   1.000  H
  H108     1.0000 0.47790  0.47970  0.21760  Biso   1.000  H
  H109     1.0000 0.02210  0.52030  0.71760  Biso   1.000  H
  H110     1.0000 0.47790  0.02030  0.71760  Biso   1.000  H
  H111     1.0000 0.02210  0.97970  0.21760  Biso   1.000  H
  H112     1.0000 0.52210  0.52030  0.78240  Biso   1.000  H
  H113     1.0000 0.04460  0.50080  0.37140  Biso   1.000  H
  H114     1.0000 0.45540  0.00080  0.37140  Biso   1.000  H
  H115     1.0000 0.04460  0.99920  0.87140  Biso   1.000  H
  H116     1.0000 0.54460  0.50080  0.12860  Biso   1.000  H
  H117     1.0000 0.95540  0.49920  0.62860  Biso   1.000  H
  H118     1.0000 0.54460  0.99920  0.62860  Biso   1.000  H
  H119     1.0000 0.95540  0.00080  0.12860  Biso   1.000  H
  H120     1.0000 0.45540  0.49920  0.87140  Biso   1.000  H
  C145     1.0000 0.11560  0.49710  0.25920  Biso   1.000  C
  C146     1.0000 0.38440  0.99710  0.25920  Biso   1.000  C
  C147     1.0000 0.11560  0.00290  0.75920  Biso   1.000  C
  C148     1.0000 0.61560  0.49710  0.24080  Biso   1.000  C
  C149     1.0000 0.88440  0.50290  0.74080  Biso   1.000  C
  C150     1.0000 0.61560  0.00290  0.74080  Biso   1.000  C
  C151     1.0000 0.88440  0.99710  0.24080  Biso   1.000  C
  C152     1.0000 0.38440  0.50290  0.75920  Biso   1.000  C
  H121     1.0000 0.17620  0.48450  0.28230  Biso   1.000  H
  H122     1.0000 0.32380  0.98450  0.28230  Biso   1.000  H
  H123     1.0000 0.17620  0.01550  0.78230  Biso   1.000  H
  H124     1.0000 0.67620  0.48450  0.21770  Biso   1.000  H
  H125     1.0000 0.82380  0.51550  0.71770  Biso   1.000  H
  H126     1.0000 0.67620  0.01550  0.71770  Biso   1.000  H
  H127     1.0000 0.82380  0.98450  0.21770  Biso   1.000  H
  H128     1.0000 0.32380  0.51550  0.78230  Biso   1.000  H
  H129     1.0000 0.10160  0.55080  0.24630  Biso   1.000  H
  H130     1.0000 0.39840  0.05080  0.24630  Biso   1.000  H
  H131     1.0000 0.10160  0.94920  0.74630  Biso   1.000  H
  H132     1.0000 0.60160  0.55080  0.25370  Biso   1.000  H
  H133     1.0000 0.89840  0.44920  0.75370  Biso   1.000  H
  H134     1.0000 0.60160  0.94920  0.75370  Biso   1.000  H
  H135     1.0000 0.89840  0.05080  0.25370  Biso   1.000  H
  H136     1.0000 0.39840  0.44920  0.74630  Biso   1.000  H
  C153     1.0000 0.04450  0.49530  0.23450  Biso   1.000  C
  C154     1.0000 0.45550  0.99530  0.23450  Biso   1.000  C
  C155     1.0000 0.04450  0.00470  0.73450  Biso   1.000  C
  C156     1.0000 0.54450  0.49530  0.26550  Biso   1.000  C
  C157     1.0000 0.95550  0.50470  0.76550  Biso   1.000  C
  C158     1.0000 0.54450  0.00470  0.76550  Biso   1.000  C
  C159     1.0000 0.95550  0.99530  0.26550  Biso   1.000  C
  C160     1.0000 0.45550  0.50470  0.73450  Biso   1.000  C
  C161     1.0000 0.10640  0.45210  0.17260  Biso   1.000  C
  C162     1.0000 0.39360  0.95210  0.17260  Biso   1.000  C
  C163     1.0000 0.10640  0.04790  0.67260  Biso   1.000  C
  C164     1.0000 0.60640  0.45210  0.32740  Biso   1.000  C
  C165     1.0000 0.89360  0.54790  0.82740  Biso   1.000  C
  C166     1.0000 0.60640  0.04790  0.82740  Biso   1.000  C
  C167     1.0000 0.89360  0.95210  0.32740  Biso   1.000  C
  C168     1.0000 0.39360  0.54790  0.67260  Biso   1.000  C
  O9       1.0000 0.05160  0.47420  0.11750  Biso   1.000  O
  O10      1.0000 0.44840  0.97420  0.11750  Biso   1.000  O
  O11      1.0000 0.05160  0.02580  0.61750  Biso   1.000  O
  O12      1.0000 0.55160  0.47420  0.38250  Biso   1.000  O
  O13      1.0000 0.94840  0.52580  0.88250  Biso   1.000  O
  O14      1.0000 0.55160  0.02580  0.88250  Biso   1.000  O
  O15      1.0000 0.94840  0.97420  0.38250  Biso   1.000  O
  O16      1.0000 0.44840  0.52580  0.61750  Biso   1.000  O
  O17      1.0000 0.15800  0.39450  0.16370  Biso   1.000  O
  O18      1.0000 0.34200  0.89450  0.16370  Biso   1.000  O
  O19      1.0000 0.15800  0.10550  0.66370  Biso   1.000  O
  O20      1.0000 0.65800  0.39450  0.33630  Biso   1.000  O
  O21      1.0000 0.84200  0.60550  0.83630  Biso   1.000  O
  O22      1.0000 0.65800  0.10550  0.83630  Biso   1.000  O
  O23      1.0000 0.84200  0.89450  0.33630  Biso   1.000  O
  O24      1.0000 0.34200  0.60550  0.66370  Biso   1.000  O
  O25      1.0000 0.07500  0.44890  0.09270  Biso   1.000  O
  O26      1.0000 0.42500  0.94890  0.09270  Biso   1.000  O
  O27      1.0000 0.07500  0.05110  0.59270  Biso   1.000  O
  O28      1.0000 0.57500  0.44890  0.40730  Biso   1.000  O
  O29      1.0000 0.92500  0.55110  0.90730  Biso   1.000  O
  O30      1.0000 0.57500  0.05110  0.90730  Biso   1.000  O
  O31      1.0000 0.92500  0.94890  0.40730  Biso   1.000  O
  O32      1.0000 0.42500  0.55110  0.59270  Biso   1.000  O
  O33      1.0000 0.17100  0.40160  0.19550  Biso   1.000  O
  O34      1.0000 0.32900  0.90160  0.19550  Biso   1.000  O
  O35      1.0000 0.17100  0.09840  0.69550  Biso   1.000  O
  O36      1.0000 0.67100  0.40160  0.30450  Biso   1.000  O
  O37      1.0000 0.82900  0.59840  0.80450  Biso   1.000  O
  O38      1.0000 0.67100  0.09840  0.80450  Biso   1.000  O
  O39      1.0000 0.82900  0.90160  0.30450  Biso   1.000  O
  O40      1.0000 0.32900  0.59840  0.69550  Biso   1.000  O
  O41      1.0000 0.24650  0.06049  0.50870  Biso   1.000  O
  O42      1.0000 0.25350  0.56049  0.50870  Biso   1.000  O
  O43      1.0000 0.24650  0.43951  0.00870  Biso   1.000  O
  O44      1.0000 0.74650  0.06049  0.99130  Biso   1.000  O
  O45      1.0000 0.75350  0.93951  0.49130  Biso   1.000  O
  O46      1.0000 0.74650  0.43951  0.49130  Biso   1.000  O
  O47      1.0000 0.75350  0.56049  0.99130  Biso   1.000  O
  O48      1.0000 0.25350  0.93951  0.00870  Biso   1.000  O
  N33      1.0000 0.31070  0.04600  0.56090  Biso   1.000  N
  N34      1.0000 0.18930  0.54600  0.56090  Biso   1.000  N
  N35      1.0000 0.31070  0.45400  0.06090  Biso   1.000  N
  N36      1.0000 0.81070  0.04600  0.93910  Biso   1.000  N
  N37      1.0000 0.68930  0.95400  0.43910  Biso   1.000  N
  N38      1.0000 0.81070  0.45400  0.43910  Biso   1.000  N
  N39      1.0000 0.68930  0.54600  0.93910  Biso   1.000  N
  N40      1.0000 0.18930  0.95400  0.06090  Biso   1.000  N
  O49      1.0000 0.36750  0.99930  0.53420  Biso   1.000  O
  O50      1.0000 0.13250  0.49930  0.53420  Biso   1.000  O
  O51      1.0000 0.36750  0.50070  0.03420  Biso   1.000  O
  O52      1.0000 0.86750  0.99930  0.96580  Biso   1.000  O
  O53      1.0000 0.63250  0.00070  0.46580  Biso   1.000  O
  O54      1.0000 0.86750  0.50070  0.46580  Biso   1.000  O
  O55      1.0000 0.63250  0.49930  0.96580  Biso   1.000  O
  O56      1.0000 0.13250  0.00070  0.03420  Biso   1.000  O
  O57      1.0000 0.17120  0.60010  0.77030  Biso   1.000  O
  O58      1.0000 0.32880  0.10010  0.77030  Biso   1.000  O
  O59      1.0000 0.17120  0.89990  0.27030  Biso   1.000  O
  O60      1.0000 0.67120  0.60010  0.72970  Biso   1.000  O
  O61      1.0000 0.82880  0.39990  0.22970  Biso   1.000  O
  O62      1.0000 0.67120  0.89990  0.22970  Biso   1.000  O
  O63      1.0000 0.82880  0.10010  0.72970  Biso   1.000  O
  O64      1.0000 0.32880  0.39990  0.27030  Biso   1.000  O
  H137     1.0000 0.21800  0.59430  0.72960  Biso   1.000  H
  H138     1.0000 0.28200  0.09430  0.72960  Biso   1.000  H
  H139     1.0000 0.21800  0.90570  0.22960  Biso   1.000  H
  H140     1.0000 0.71800  0.59430  0.77040  Biso   1.000  H
  H141     1.0000 0.78200  0.40570  0.27040  Biso   1.000  H
  H142     1.0000 0.71800  0.90570  0.27040  Biso   1.000  H
  H143     1.0000 0.78200  0.09430  0.77040  Biso   1.000  H
  H144     1.0000 0.28200  0.40570  0.22960  Biso   1.000  H
  H145     1.0000 0.11390  0.62100  0.73040  Biso   1.000  H
  H146     1.0000 0.38610  0.12100  0.73040  Biso   1.000  H
  H147     1.0000 0.11390  0.87900  0.23040  Biso   1.000  H
  H148     1.0000 0.61390  0.62100  0.76960  Biso   1.000  H
  H149     1.0000 0.88610  0.37900  0.26960  Biso   1.000  H
  H150     1.0000 0.61390  0.87900  0.26960  Biso   1.000  H
  H151     1.0000 0.88610  0.12100  0.76960  Biso   1.000  H
  H152     1.0000 0.38610  0.37900  0.23040  Biso   1.000  H
