data_image0
_cell_length_a       10.1435
_cell_length_b       14.9724
_cell_length_c       20.3506
_cell_angle_alpha    90
_cell_angle_beta     101.111
_cell_angle_gamma    90

_symmetry_space_group_name_H-M    "P 1"
_symmetry_int_tables_number       1

loop_
  _symmetry_equiv_pos_as_xyz
  'x, y, z'

loop_
  _atom_site_label
  _atom_site_occupancy
  _atom_site_fract_x
  _atom_site_fract_y
  _atom_site_fract_z
  _atom_site_thermal_displace_type
  _atom_site_B_iso_or_equiv
  _atom_site_type_symbol
  Cu1      1.0000 0.50000  0.00000  0.00000  Biso   1.000  Cu
  Cu2      1.0000 0.00000  0.50000  0.50000  Biso   1.000  Cu
  S1       1.0000 0.58407  0.71838  0.10095  Biso   1.000  S
  S2       1.0000 0.91593  0.21838  0.39905  Biso   1.000  S
  S3       1.0000 0.41593  0.28162  0.89905  Biso   1.000  S
  S4       1.0000 0.08407  0.78162  0.60095  Biso   1.000  S
  N1       1.0000 0.53810  0.88972  0.05243  Biso   1.000  N
  N2       1.0000 0.96190  0.38972  0.44757  Biso   1.000  N
  N3       1.0000 0.46190  0.11028  0.94757  Biso   1.000  N
  N4       1.0000 0.03810  0.61028  0.55243  Biso   1.000  N
  C1       1.0000 0.55760  0.81904  0.07268  Biso   1.000  C
  C2       1.0000 0.94240  0.31904  0.42732  Biso   1.000  C
  C3       1.0000 0.44240  0.18096  0.92732  Biso   1.000  C
  C4       1.0000 0.05760  0.68096  0.57268  Biso   1.000  C
  N5       1.0000 0.68070  0.07552  0.08209  Biso   1.000  N
  N6       1.0000 0.81930  0.57552  0.41791  Biso   1.000  N
  N7       1.0000 0.31930  0.92448  0.91791  Biso   1.000  N
  N8       1.0000 0.18070  0.42448  0.58209  Biso   1.000  N
  C5       1.0000 0.81190  0.08585  0.19302  Biso   1.000  C
  C6       1.0000 0.68810  0.58585  0.30698  Biso   1.000  C
  C7       1.0000 0.18810  0.91415  0.80698  Biso   1.000  C
  C8       1.0000 0.31190  0.41415  0.69302  Biso   1.000  C
  C9       1.0000 0.72430  0.04181  0.14295  Biso   1.000  C
  C10      1.0000 0.77570  0.54181  0.35705  Biso   1.000  C
  C11      1.0000 0.27570  0.95819  0.85705  Biso   1.000  C
  C12      1.0000 0.22430  0.45819  0.64295  Biso   1.000  C
  H1       1.0000 0.69420  0.98540  0.15230  Biso   1.000  H
  H2       1.0000 0.80580  0.48540  0.34770  Biso   1.000  H
  H3       1.0000 0.30580  0.01460  0.84770  Biso   1.000  H
  H4       1.0000 0.19420  0.51460  0.65230  Biso   1.000  H
  C13      1.0000 0.73020  0.15448  0.06851  Biso   1.000  C
  C14      1.0000 0.76980  0.65448  0.43149  Biso   1.000  C
  C15      1.0000 0.26980  0.84552  0.93149  Biso   1.000  C
  C16      1.0000 0.23020  0.34552  0.56851  Biso   1.000  C
  H5       1.0000 0.69980  0.17980  0.02660  Biso   1.000  H
  H6       1.0000 0.80020  0.67980  0.47340  Biso   1.000  H
  H7       1.0000 0.30020  0.82020  0.97340  Biso   1.000  H
  H8       1.0000 0.19980  0.32020  0.52660  Biso   1.000  H
  C17      1.0000 0.82410  0.19981  0.11374  Biso   1.000  C
  C18      1.0000 0.67590  0.69981  0.38626  Biso   1.000  C
  C19      1.0000 0.17590  0.80019  0.88626  Biso   1.000  C
  C20      1.0000 0.32410  0.30019  0.61374  Biso   1.000  C
  H9       1.0000 0.86040  0.25290  0.10150  Biso   1.000  H
  H10      1.0000 0.63960  0.75290  0.39850  Biso   1.000  H
  H11      1.0000 0.13960  0.74710  0.89850  Biso   1.000  H
  H12      1.0000 0.36040  0.24710  0.60150  Biso   1.000  H
  C21      1.0000 0.86440  0.16603  0.17771  Biso   1.000  C
  C22      1.0000 0.63560  0.66603  0.32229  Biso   1.000  C
  C23      1.0000 0.13560  0.83397  0.82229  Biso   1.000  C
  C24      1.0000 0.36440  0.33397  0.67771  Biso   1.000  C
  H13      1.0000 0.92570  0.19690  0.20960  Biso   1.000  H
  H14      1.0000 0.57430  0.69690  0.29040  Biso   1.000  H
  H15      1.0000 0.07430  0.80310  0.79040  Biso   1.000  H
  H16      1.0000 0.42570  0.30310  0.70960  Biso   1.000  H
  N9       1.0000 0.84800  0.04966  0.25795  Biso   1.000  N
  N10      1.0000 0.65200  0.54966  0.24205  Biso   1.000  N
  N11      1.0000 0.15200  0.95034  0.74205  Biso   1.000  N
  N12      1.0000 0.34800  0.45034  0.75795  Biso   1.000  N
  H17      1.0000 0.93190  0.04850  0.27600  Biso   1.000  H
  H18      1.0000 0.56810  0.54850  0.22400  Biso   1.000  H
  H19      1.0000 0.06810  0.95150  0.72400  Biso   1.000  H
  H20      1.0000 0.43190  0.45150  0.77600  Biso   1.000  H
  N13      1.0000 0.66802  0.93796  0.76959  Biso   1.000  N
  N14      1.0000 0.83198  0.43796  0.73041  Biso   1.000  N
  N15      1.0000 0.33198  0.06204  0.23041  Biso   1.000  N
  N16      1.0000 0.16802  0.56204  0.26959  Biso   1.000  N
  H21      1.0000 0.58270  0.94010  0.75480  Biso   1.000  H
  H22      1.0000 0.91730  0.44010  0.74520  Biso   1.000  H
  H23      1.0000 0.41730  0.05990  0.24520  Biso   1.000  H
  H24      1.0000 0.08270  0.55990  0.25480  Biso   1.000  H
  O1       1.0000 0.63902  0.01265  0.27128  Biso   1.000  O
  O2       1.0000 0.86098  0.51265  0.22872  Biso   1.000  O
  O3       1.0000 0.36098  0.98735  0.72872  Biso   1.000  O
  O4       1.0000 0.13902  0.48735  0.77128  Biso   1.000  O
  O5       1.0000 0.86854  0.92542  0.73786  Biso   1.000  O
  O6       1.0000 0.63146  0.42542  0.76214  Biso   1.000  O
  O7       1.0000 0.13146  0.07458  0.26214  Biso   1.000  O
  O8       1.0000 0.36854  0.57458  0.23786  Biso   1.000  O
  C25      1.0000 0.75990  0.01668  0.29371  Biso   1.000  C
  C26      1.0000 0.74010  0.51668  0.20629  Biso   1.000  C
  C27      1.0000 0.24010  0.98332  0.70629  Biso   1.000  C
  C28      1.0000 0.25990  0.48332  0.79371  Biso   1.000  C
  C29      1.0000 0.82230  0.98651  0.36340  Biso   1.000  C
  C30      1.0000 0.67770  0.48651  0.13660  Biso   1.000  C
  C31      1.0000 0.17770  0.01349  0.63660  Biso   1.000  C
  C32      1.0000 0.32230  0.51349  0.86340  Biso   1.000  C
  H25      1.0000 0.86200  0.92800  0.36070  Biso   1.000  H
  H26      1.0000 0.63800  0.42800  0.13930  Biso   1.000  H
  H27      1.0000 0.13800  0.07200  0.63930  Biso   1.000  H
  H28      1.0000 0.36200  0.57200  0.86070  Biso   1.000  H
  H29      1.0000 0.89410  0.02740  0.38170  Biso   1.000  H
  H30      1.0000 0.60590  0.52740  0.11830  Biso   1.000  H
  H31      1.0000 0.10590  0.97260  0.61830  Biso   1.000  H
  H32      1.0000 0.39410  0.47260  0.88170  Biso   1.000  H
  C33      1.0000 0.72570  0.98149  0.41046  Biso   1.000  C
  C34      1.0000 0.77430  0.48149  0.08954  Biso   1.000  C
  C35      1.0000 0.27430  0.01851  0.58954  Biso   1.000  C
  C36      1.0000 0.22570  0.51851  0.91046  Biso   1.000  C
  H33      1.0000 0.65840  0.93640  0.39440  Biso   1.000  H
  H34      1.0000 0.84160  0.43640  0.10560  Biso   1.000  H
  H35      1.0000 0.34160  0.06360  0.60560  Biso   1.000  H
  H36      1.0000 0.15840  0.56360  0.89440  Biso   1.000  H
  H37      1.0000 0.67990  0.03840  0.41020  Biso   1.000  H
  H38      1.0000 0.82010  0.53840  0.08980  Biso   1.000  H
  H39      1.0000 0.32010  0.96160  0.58980  Biso   1.000  H
  H40      1.0000 0.17990  0.46160  0.91020  Biso   1.000  H
  C37      1.0000 0.79270  0.95910  0.48206  Biso   1.000  C
  C38      1.0000 0.70730  0.45910  0.01794  Biso   1.000  C
  C39      1.0000 0.20730  0.04090  0.51794  Biso   1.000  C
  C40      1.0000 0.29270  0.54090  0.98206  Biso   1.000  C
  H41      1.0000 0.84300  0.90400  0.48180  Biso   1.000  H
  H42      1.0000 0.65700  0.40400  0.01820  Biso   1.000  H
  H43      1.0000 0.15700  0.09600  0.51820  Biso   1.000  H
  H44      1.0000 0.34300  0.59600  0.98180  Biso   1.000  H
  H45      1.0000 0.85630  0.00600  0.49870  Biso   1.000  H
  H46      1.0000 0.64370  0.50600  0.00130  Biso   1.000  H
  H47      1.0000 0.14370  0.99400  0.50130  Biso   1.000  H
  H48      1.0000 0.35630  0.49400  0.99870  Biso   1.000  H
  C41      1.0000 0.69660  0.94847  0.52966  Biso   1.000  C
  C42      1.0000 0.80340  0.44847  0.97034  Biso   1.000  C
  C43      1.0000 0.30340  0.05153  0.47034  Biso   1.000  C
  C44      1.0000 0.19660  0.55153  0.02966  Biso   1.000  C
  H49      1.0000 0.64410  0.89460  0.51820  Biso   1.000  H
  H50      1.0000 0.85590  0.39460  0.98180  Biso   1.000  H
  H51      1.0000 0.35590  0.10540  0.48180  Biso   1.000  H
  H52      1.0000 0.14410  0.60540  0.01820  Biso   1.000  H
  H53      1.0000 0.63510  0.99870  0.52420  Biso   1.000  H
  H54      1.0000 0.86490  0.49870  0.97580  Biso   1.000  H
  H55      1.0000 0.36490  0.00130  0.47580  Biso   1.000  H
  H56      1.0000 0.13510  0.50130  0.02420  Biso   1.000  H
  C45      1.0000 0.76750  0.94311  0.60247  Biso   1.000  C
  C46      1.0000 0.73250  0.44311  0.89753  Biso   1.000  C
  C47      1.0000 0.23250  0.05689  0.39753  Biso   1.000  C
  C48      1.0000 0.26750  0.55689  0.10247  Biso   1.000  C
  H57      1.0000 0.82870  0.89270  0.60780  Biso   1.000  H
  H58      1.0000 0.67130  0.39270  0.89220  Biso   1.000  H
  H59      1.0000 0.17130  0.10730  0.39220  Biso   1.000  H
  H60      1.0000 0.32870  0.60730  0.10780  Biso   1.000  H
  H61      1.0000 0.82070  0.99680  0.61360  Biso   1.000  H
  H62      1.0000 0.67930  0.49680  0.88640  Biso   1.000  H
  H63      1.0000 0.17930  0.00320  0.38640  Biso   1.000  H
  H64      1.0000 0.32070  0.50320  0.11360  Biso   1.000  H
  C49      1.0000 0.67340  0.93313  0.65108  Biso   1.000  C
  C50      1.0000 0.82660  0.43313  0.84892  Biso   1.000  C
  C51      1.0000 0.32660  0.06687  0.34892  Biso   1.000  C
  C52      1.0000 0.17340  0.56687  0.15108  Biso   1.000  C
  H65      1.0000 0.62330  0.87790  0.64160  Biso   1.000  H
  H66      1.0000 0.87670  0.37790  0.85840  Biso   1.000  H
  H67      1.0000 0.37670  0.12210  0.35840  Biso   1.000  H
  H68      1.0000 0.12330  0.62210  0.14160  Biso   1.000  H
  H69      1.0000 0.60950  0.98210  0.64470  Biso   1.000  H
  H70      1.0000 0.89050  0.48210  0.85530  Biso   1.000  H
  H71      1.0000 0.39050  0.01790  0.35530  Biso   1.000  H
  H72      1.0000 0.10950  0.51790  0.14470  Biso   1.000  H
  C53      1.0000 0.74660  0.93235  0.72281  Biso   1.000  C
  C54      1.0000 0.75340  0.43235  0.77719  Biso   1.000  C
  C55      1.0000 0.25340  0.06765  0.27719  Biso   1.000  C
  C56      1.0000 0.24660  0.56765  0.22281  Biso   1.000  C
  N17      1.0000 0.64410  0.96461  0.94452  Biso   1.000  N
  N18      1.0000 0.85590  0.46461  0.55548  Biso   1.000  N
  N19      1.0000 0.35590  0.03539  0.05548  Biso   1.000  N
  N20      1.0000 0.14410  0.53539  0.44452  Biso   1.000  N
  C57      1.0000 0.71050  0.94064  0.83922  Biso   1.000  C
  C58      1.0000 0.78950  0.44064  0.66078  Biso   1.000  C
  C59      1.0000 0.28950  0.05936  0.16078  Biso   1.000  C
  C60      1.0000 0.21050  0.55936  0.33922  Biso   1.000  C
  C61      1.0000 0.61690  0.96171  0.87776  Biso   1.000  C
  C62      1.0000 0.88310  0.46171  0.62224  Biso   1.000  C
  C63      1.0000 0.38310  0.03829  0.12224  Biso   1.000  C
  C64      1.0000 0.11690  0.53829  0.37776  Biso   1.000  C
  H73      1.0000 0.52980  0.97470  0.85590  Biso   1.000  H
  H74      1.0000 0.97020  0.47470  0.64410  Biso   1.000  H
  H75      1.0000 0.47020  0.02530  0.14410  Biso   1.000  H
  H76      1.0000 0.02980  0.52530  0.35590  Biso   1.000  H
  C65      1.0000 0.76950  0.94614  0.97562  Biso   1.000  C
  C66      1.0000 0.73050  0.44614  0.52438  Biso   1.000  C
  C67      1.0000 0.23050  0.05386  0.02438  Biso   1.000  C
  C68      1.0000 0.26950  0.55386  0.47562  Biso   1.000  C
  H77      1.0000 0.78970  0.94620  0.02220  Biso   1.000  H
  H78      1.0000 0.71030  0.44620  0.47780  Biso   1.000  H
  H79      1.0000 0.21030  0.05380  0.97780  Biso   1.000  H
  H80      1.0000 0.28970  0.55380  0.52220  Biso   1.000  H
  C69      1.0000 0.86890  0.92720  0.94107  Biso   1.000  C
  C70      1.0000 0.63110  0.42720  0.55893  Biso   1.000  C
  C71      1.0000 0.13110  0.07280  0.05893  Biso   1.000  C
  C72      1.0000 0.36890  0.57280  0.44107  Biso   1.000  C
  H81      1.0000 0.95590  0.91660  0.96420  Biso   1.000  H
  H82      1.0000 0.54410  0.41660  0.53580  Biso   1.000  H
  H83      1.0000 0.04410  0.08340  0.03580  Biso   1.000  H
  H84      1.0000 0.45590  0.58340  0.46420  Biso   1.000  H
  C73      1.0000 0.84110  0.92371  0.87220  Biso   1.000  C
  C74      1.0000 0.65890  0.42371  0.62780  Biso   1.000  C
  C75      1.0000 0.15890  0.07629  0.12780  Biso   1.000  C
  C76      1.0000 0.34110  0.57629  0.37220  Biso   1.000  C
  H85      1.0000 0.90820  0.91040  0.84840  Biso   1.000  H
  H86      1.0000 0.59180  0.41040  0.65160  Biso   1.000  H
  H87      1.0000 0.09180  0.08960  0.15160  Biso   1.000  H
  H88      1.0000 0.40820  0.58960  0.34840  Biso   1.000  H
  C77      1.0000 0.41610  0.73410  0.73780  Biso   1.000  C
  C78      1.0000 0.08390  0.23410  0.76220  Biso   1.000  C
  C79      1.0000 0.58390  0.26590  0.26220  Biso   1.000  C
  C80      1.0000 0.91610  0.76590  0.23780  Biso   1.000  C
  H89      1.0000 0.32670  0.74530  0.71870  Biso   1.000  H
  H90      1.0000 0.17330  0.24530  0.78130  Biso   1.000  H
  H91      1.0000 0.67330  0.25470  0.28130  Biso   1.000  H
  H92      1.0000 0.82670  0.75470  0.21870  Biso   1.000  H
  C81      1.0000 0.45390  0.73640  0.80500  Biso   1.000  C
  C82      1.0000 0.04610  0.23640  0.69500  Biso   1.000  C
  C83      1.0000 0.54610  0.26360  0.19500  Biso   1.000  C
  C84      1.0000 0.95390  0.76360  0.30500  Biso   1.000  C
  H93      1.0000 0.39060  0.75190  0.83050  Biso   1.000  H
  H94      1.0000 0.10940  0.25190  0.66950  Biso   1.000  H
  H95      1.0000 0.60940  0.24810  0.16950  Biso   1.000  H
  H96      1.0000 0.89060  0.74810  0.33050  Biso   1.000  H
  C85      1.0000 0.62340  0.71570  0.90780  Biso   1.000  C
  C86      1.0000 0.87660  0.21570  0.59220  Biso   1.000  C
  C87      1.0000 0.37660  0.28430  0.09220  Biso   1.000  C
  C88      1.0000 0.12340  0.78430  0.40780  Biso   1.000  C
  H97      1.0000 0.56100  0.72910  0.93430  Biso   1.000  H
  H98      1.0000 0.93900  0.22910  0.56570  Biso   1.000  H
  H99      1.0000 0.43900  0.27090  0.06570  Biso   1.000  H
  H100     1.0000 0.06100  0.77090  0.43430  Biso   1.000  H
  C89      1.0000 0.75230  0.69550  0.93727  Biso   1.000  C
  C90      1.0000 0.74770  0.19550  0.56273  Biso   1.000  C
  C91      1.0000 0.24770  0.30450  0.06273  Biso   1.000  C
  C92      1.0000 0.25230  0.80450  0.43727  Biso   1.000  C
  H101     1.0000 0.77640  0.69490  0.98370  Biso   1.000  H
  H102     1.0000 0.72360  0.19490  0.51630  Biso   1.000  H
  H103     1.0000 0.22360  0.30510  0.01630  Biso   1.000  H
  H104     1.0000 0.27640  0.80510  0.48370  Biso   1.000  H
  C93      1.0000 0.84760  0.67590  0.89945  Biso   1.000  C
  C94      1.0000 0.65240  0.17590  0.60055  Biso   1.000  C
  C95      1.0000 0.15240  0.32410  0.10055  Biso   1.000  C
  C96      1.0000 0.34760  0.82410  0.39945  Biso   1.000  C
  H105     1.0000 0.93490  0.66220  0.92060  Biso   1.000  H
  H106     1.0000 0.56510  0.16220  0.57940  Biso   1.000  H
  H107     1.0000 0.06510  0.33780  0.07940  Biso   1.000  H
  H108     1.0000 0.43490  0.83780  0.42060  Biso   1.000  H
  C97      1.0000 0.90770  0.65710  0.78789  Biso   1.000  C
  C98      1.0000 0.59230  0.15710  0.71211  Biso   1.000  C
  C99      1.0000 0.09230  0.34290  0.21211  Biso   1.000  C
  C100     1.0000 0.40770  0.84290  0.28789  Biso   1.000  C
  H109     1.0000 0.99540  0.64210  0.80770  Biso   1.000  H
  H110     1.0000 0.50460  0.14210  0.69230  Biso   1.000  H
  H111     1.0000 0.00460  0.35790  0.19230  Biso   1.000  H
  H112     1.0000 0.49540  0.85790  0.30770  Biso   1.000  H
  C101     1.0000 0.87360  0.65990  0.72074  Biso   1.000  C
  C102     1.0000 0.62640  0.15990  0.77926  Biso   1.000  C
  C103     1.0000 0.12640  0.34010  0.27926  Biso   1.000  C
  C104     1.0000 0.37360  0.84010  0.22074  Biso   1.000  C
  H113     1.0000 0.93910  0.64850  0.69550  Biso   1.000  H
  H114     1.0000 0.56090  0.14850  0.80450  Biso   1.000  H
  H115     1.0000 0.06090  0.35150  0.30450  Biso   1.000  H
  H116     1.0000 0.43910  0.85150  0.19550  Biso   1.000  H
  C105     1.0000 0.70330  0.68090  0.61851  Biso   1.000  C
  C106     1.0000 0.79670  0.18090  0.88149  Biso   1.000  C
  C107     1.0000 0.29670  0.31910  0.38149  Biso   1.000  C
  C108     1.0000 0.20330  0.81910  0.11851  Biso   1.000  C
  H117     1.0000 0.76730  0.67020  0.59230  Biso   1.000  H
  H118     1.0000 0.73270  0.17020  0.90770  Biso   1.000  H
  H119     1.0000 0.23270  0.32980  0.40770  Biso   1.000  H
  H120     1.0000 0.26730  0.82980  0.09230  Biso   1.000  H
  C109     1.0000 0.57200  0.69800  0.58791  Biso   1.000  C
  C110     1.0000 0.92800  0.19800  0.91209  Biso   1.000  C
  C111     1.0000 0.42800  0.30200  0.41209  Biso   1.000  C
  C112     1.0000 0.07200  0.80200  0.08791  Biso   1.000  C
  H121     1.0000 0.54850  0.69860  0.54140  Biso   1.000  H
  H122     1.0000 0.95150  0.19860  0.95860  Biso   1.000  H
  H123     1.0000 0.45150  0.30140  0.45860  Biso   1.000  H
  H124     1.0000 0.04850  0.80140  0.04140  Biso   1.000  H
  C113     1.0000 0.47570  0.71430  0.62566  Biso   1.000  C
  C114     1.0000 0.02430  0.21430  0.87434  Biso   1.000  C
  C115     1.0000 0.52430  0.28570  0.37434  Biso   1.000  C
  C116     1.0000 0.97570  0.78570  0.12566  Biso   1.000  C
  H125     1.0000 0.38740  0.72490  0.60440  Biso   1.000  H
  H126     1.0000 0.11260  0.22490  0.89560  Biso   1.000  H
  H127     1.0000 0.61260  0.27510  0.39560  Biso   1.000  H
  H128     1.0000 0.88740  0.77510  0.10440  Biso   1.000  H
  C117     1.0000 0.50860  0.71510  0.69512  Biso   1.000  C
  C118     1.0000 0.99140  0.21510  0.80488  Biso   1.000  C
  C119     1.0000 0.49140  0.28490  0.30488  Biso   1.000  C
  C120     1.0000 0.00860  0.78490  0.19512  Biso   1.000  C
  C121     1.0000 0.58410  0.71639  0.83776  Biso   1.000  C
  C122     1.0000 0.91590  0.21639  0.66224  Biso   1.000  C
  C123     1.0000 0.41590  0.28361  0.16224  Biso   1.000  C
  C124     1.0000 0.08410  0.78361  0.33776  Biso   1.000  C
  C125     1.0000 0.81380  0.67660  0.82971  Biso   1.000  C
  C126     1.0000 0.68620  0.17660  0.67029  Biso   1.000  C
  C127     1.0000 0.18620  0.32340  0.17029  Biso   1.000  C
  C128     1.0000 0.31380  0.82340  0.32971  Biso   1.000  C
  C129     1.0000 0.74070  0.67956  0.68722  Biso   1.000  C
  C130     1.0000 0.75930  0.17956  0.81278  Biso   1.000  C
  C131     1.0000 0.25930  0.32044  0.31278  Biso   1.000  C
  C132     1.0000 0.24070  0.82044  0.18722  Biso   1.000  C
  C133     1.0000 0.64310  0.69677  0.72691  Biso   1.000  C
  C134     1.0000 0.85690  0.19677  0.77309  Biso   1.000  C
  C135     1.0000 0.35690  0.30323  0.27309  Biso   1.000  C
  C136     1.0000 0.14310  0.80323  0.22691  Biso   1.000  C
  C137     1.0000 0.68080  0.69655  0.79839  Biso   1.000  C
  C138     1.0000 0.81920  0.19655  0.70161  Biso   1.000  C
  C139     1.0000 0.31920  0.30345  0.20161  Biso   1.000  C
  C140     1.0000 0.18080  0.80345  0.29839  Biso   1.000  C
