data_image0
_cell_length_a       9.1064
_cell_length_b       10.0279
_cell_length_c       16.012
_cell_angle_alpha    94.197
_cell_angle_beta     102.983
_cell_angle_gamma    108.093

_symmetry_space_group_name_H-M    "P 1"
_symmetry_int_tables_number       1

loop_
  _symmetry_equiv_pos_as_xyz
  'x, y, z'

loop_
  _atom_site_label
  _atom_site_occupancy
  _atom_site_fract_x
  _atom_site_fract_y
  _atom_site_fract_z
  _atom_site_thermal_displace_type
  _atom_site_B_iso_or_equiv
  _atom_site_type_symbol
  Cu1      1.0000 0.50000  0.00000  0.50000  Biso   1.000  Cu
  Br1      1.0000 0.05433  0.79106  0.02918  Biso   1.000  Br
  Br2      1.0000 0.94567  0.20894  0.97082  Biso   1.000  Br
  Br3      1.0000 0.50753  0.46239  0.67402  Biso   1.000  Br
  Br4      1.0000 0.49247  0.53761  0.32598  Biso   1.000  Br
  C1       1.0000 0.46710  0.98370  0.30630  Biso   1.000  C
  C2       1.0000 0.53290  0.01630  0.69370  Biso   1.000  C
  N1       1.0000 0.51210  0.00440  0.37990  Biso   1.000  N
  N2       1.0000 0.48790  0.99560  0.62010  Biso   1.000  N
  S1       1.0000 0.39520  0.95430  0.20039  Biso   1.000  S
  S2       1.0000 0.60480  0.04570  0.79961  Biso   1.000  S
  C3       1.0000 0.89750  0.69680  0.92490  Biso   1.000  C
  C4       1.0000 0.10250  0.30320  0.07510  Biso   1.000  C
  C5       1.0000 0.85560  0.55590  0.90180  Biso   1.000  C
  C6       1.0000 0.14440  0.44410  0.09820  Biso   1.000  C
  H1       1.0000 0.90680  0.50540  0.93720  Biso   1.000  H
  H2       1.0000 0.09320  0.49460  0.06280  Biso   1.000  H
  C7       1.0000 0.74030  0.48440  0.82790  Biso   1.000  C
  C8       1.0000 0.25970  0.51560  0.17210  Biso   1.000  C
  H3       1.0000 0.71140  0.38650  0.81360  Biso   1.000  H
  H4       1.0000 0.28860  0.61350  0.18640  Biso   1.000  H
  C9       1.0000 0.66920  0.55950  0.77610  Biso   1.000  C
  C10      1.0000 0.33080  0.44050  0.22390  Biso   1.000  C
  C11      1.0000 0.70700  0.70360  0.79800  Biso   1.000  C
  C12      1.0000 0.29300  0.29640  0.20200  Biso   1.000  C
  H5       1.0000 0.65560  0.75340  0.76200  Biso   1.000  H
  H6       1.0000 0.34440  0.24660  0.23800  Biso   1.000  H
  C13      1.0000 0.82140  0.77350  0.87340  Biso   1.000  C
  C14      1.0000 0.17860  0.22650  0.12660  Biso   1.000  C
  H7       1.0000 0.84720  0.87070  0.88950  Biso   1.000  H
  H8       1.0000 0.15280  0.12930  0.11050  Biso   1.000  H
  N3       1.0000 0.33960  0.79480  0.46380  Biso   1.000  N
  N4       1.0000 0.66040  0.20520  0.53620  Biso   1.000  N
  N5       1.0000 0.98580  0.59190  0.29080  Biso   1.000  N
  N6       1.0000 0.01420  0.40810  0.70920  Biso   1.000  N
  H9       1.0000 0.97340  0.66460  0.26870  Biso   1.000  H
  H10      1.0000 0.02660  0.33540  0.73130  Biso   1.000  H
  C15      1.0000 0.10820  0.61890  0.36790  Biso   1.000  C
  C16      1.0000 0.89180  0.38110  0.63210  Biso   1.000  C
  C17      1.0000 0.22210  0.75440  0.39210  Biso   1.000  C
  C18      1.0000 0.77790  0.24560  0.60790  Biso   1.000  C
  H11      1.0000 0.21470  0.82080  0.35520  Biso   1.000  H
  H12      1.0000 0.78530  0.17920  0.64480  Biso   1.000  H
  C19      1.0000 0.35210  0.69910  0.51530  Biso   1.000  C
  C20      1.0000 0.64790  0.30090  0.48470  Biso   1.000  C
  H13      1.0000 0.43490  0.72480  0.56580  Biso   1.000  H
  H14      1.0000 0.56510  0.27520  0.43420  Biso   1.000  H
  C21      1.0000 0.24590  0.56330  0.49570  Biso   1.000  C
  C22      1.0000 0.75410  0.43670  0.50430  Biso   1.000  C
  H15      1.0000 0.25750  0.49860  0.53330  Biso   1.000  H
  H16      1.0000 0.74250  0.50140  0.46670  Biso   1.000  H
  C23      1.0000 0.12070  0.52000  0.42050  Biso   1.000  C
  C24      1.0000 0.87930  0.48000  0.57950  Biso   1.000  C
  H17      1.0000 0.04860  0.42760  0.40670  Biso   1.000  H
  H18      1.0000 0.95140  0.57240  0.59330  Biso   1.000  H
  O1       1.0000 0.89070  0.35270  0.27350  Biso   1.000  O
  O2       1.0000 0.10930  0.64730  0.72650  Biso   1.000  O
  O3       1.0000 0.06940  0.14280  0.74670  Biso   1.000  O
  O4       1.0000 0.93060  0.85720  0.25330  Biso   1.000  O
  C25      1.0000 0.88560  0.46250  0.24780  Biso   1.000  C
  C26      1.0000 0.11440  0.53750  0.75220  Biso   1.000  C
  C27      1.0000 0.76790  0.46850  0.16670  Biso   1.000  C
  C28      1.0000 0.23210  0.53150  0.83330  Biso   1.000  C
  H19      1.0000 0.69910  0.51760  0.18230  Biso   1.000  H
  H20      1.0000 0.30090  0.48240  0.81770  Biso   1.000  H
  H21      1.0000 0.82610  0.52320  0.12970  Biso   1.000  H
  H22      1.0000 0.17390  0.47680  0.87030  Biso   1.000  H
  C29      1.0000 0.66550  0.32430  0.11650  Biso   1.000  C
  C30      1.0000 0.33450  0.67570  0.88350  Biso   1.000  C
  H23      1.0000 0.60720  0.26960  0.15350  Biso   1.000  H
  H24      1.0000 0.39280  0.73040  0.84650  Biso   1.000  H
  H25      1.0000 0.73420  0.27520  0.10080  Biso   1.000  H
  H26      1.0000 0.26580  0.72480  0.89920  Biso   1.000  H
  C31      1.0000 0.54720  0.33070  0.03490  Biso   1.000  C
  C32      1.0000 0.45280  0.66930  0.96510  Biso   1.000  C
  H27      1.0000 0.47810  0.37920  0.05080  Biso   1.000  H
  H28      1.0000 0.52190  0.62080  0.94920  Biso   1.000  H
  H29      1.0000 0.60560  0.38650  0.99840  Biso   1.000  H
  H30      1.0000 0.39440  0.61350  0.00160  Biso   1.000  H
  C33      1.0000 0.44430  0.18620  0.98320  Biso   1.000  C
  C34      1.0000 0.55570  0.81380  0.01680  Biso   1.000  C
  H31      1.0000 0.38170  0.13240  0.01880  Biso   1.000  H
  H32      1.0000 0.61830  0.86760  0.98120  Biso   1.000  H
  H33      1.0000 0.51370  0.13570  0.97030  Biso   1.000  H
  H34      1.0000 0.48630  0.86430  0.02970  Biso   1.000  H
  C35      1.0000 0.33120  0.19130  0.89870  Biso   1.000  C
  C36      1.0000 0.66880  0.80870  0.10130  Biso   1.000  C
  H35      1.0000 0.26760  0.24850  0.91060  Biso   1.000  H
  H36      1.0000 0.73240  0.75150  0.08940  Biso   1.000  H
  H37      1.0000 0.39340  0.23640  0.86030  Biso   1.000  H
  H38      1.0000 0.60660  0.76360  0.13970  Biso   1.000  H
  C37      1.0000 0.22160  0.04570  0.85410  Biso   1.000  C
  C38      1.0000 0.77840  0.95430  0.14590  Biso   1.000  C
  H39      1.0000 0.15530  0.00350  0.89140  Biso   1.000  H
  H40      1.0000 0.84470  0.99650  0.10860  Biso   1.000  H
  H41      1.0000 0.28590  0.98700  0.84640  Biso   1.000  H
  H42      1.0000 0.71410  0.01300  0.15360  Biso   1.000  H
  C39      1.0000 0.11310  0.04460  0.76570  Biso   1.000  C
  C40      1.0000 0.88690  0.95540  0.23430  Biso   1.000  C
  N7       1.0000 0.72250  0.90080  0.53340  Biso   1.000  N
  N8       1.0000 0.27750  0.09920  0.46660  Biso   1.000  N
  N9       1.0000 0.06560  0.91960  0.71140  Biso   1.000  N
  N10      1.0000 0.93440  0.08040  0.28860  Biso   1.000  N
  H43      1.0000 0.10010  0.85350  0.72960  Biso   1.000  H
  H44      1.0000 0.89990  0.14650  0.27040  Biso   1.000  H
  C41      1.0000 0.96290  0.89180  0.62680  Biso   1.000  C
  C42      1.0000 0.03710  0.10820  0.37320  Biso   1.000  C
  C43      1.0000 0.82050  0.91920  0.61270  Biso   1.000  C
  C44      1.0000 0.17950  0.08080  0.38730  Biso   1.000  C
  H45      1.0000 0.79130  0.95170  0.66020  Biso   1.000  H
  H46      1.0000 0.20870  0.04830  0.33980  Biso   1.000  H
  C45      1.0000 0.76570  0.85110  0.46700  Biso   1.000  C
  C46      1.0000 0.23430  0.14890  0.53300  Biso   1.000  C
  H47      1.0000 0.70070  0.84110  0.41150  Biso   1.000  H
  H48      1.0000 0.29930  0.15890  0.58850  Biso   1.000  H
  C47      1.0000 0.89970  0.81370  0.47540  Biso   1.000  C
  C48      1.0000 0.10030  0.18630  0.52460  Biso   1.000  C
  H49      1.0000 0.92090  0.77340  0.42730  Biso   1.000  H
  H50      1.0000 0.07910  0.22660  0.57270  Biso   1.000  H
  C49      1.0000 0.00230  0.83670  0.55630  Biso   1.000  C
  C50      1.0000 0.99770  0.16330  0.44370  Biso   1.000  C
  H51      1.0000 0.09660  0.81580  0.56370  Biso   1.000  H
  H52      1.0000 0.90340  0.18420  0.43630  Biso   1.000  H
