data_image0
_cell_length_a       9.008
_cell_length_b       10.139
_cell_length_c       16.671
_cell_angle_alpha    92.822
_cell_angle_beta     104.167
_cell_angle_gamma    109.238

_symmetry_space_group_name_H-M    "P 1"
_symmetry_int_tables_number       1

loop_
  _symmetry_equiv_pos_as_xyz
  'x, y, z'

loop_
  _atom_site_label
  _atom_site_occupancy
  _atom_site_fract_x
  _atom_site_fract_y
  _atom_site_fract_z
  _atom_site_thermal_displace_type
  _atom_site_B_iso_or_equiv
  _atom_site_type_symbol
  Cu1      1.0000 0.00000  0.00000  0.00000  Biso   1.000  Cu
  I1       1.0000 0.42566  0.19796  0.45665  Biso   1.000  I
  I2       1.0000 0.57434  0.80204  0.54335  Biso   1.000  I
  I3       1.0000 0.00011  0.54409  0.83040  Biso   1.000  I
  I4       1.0000 0.99989  0.45591  0.16960  Biso   1.000  I
  S1       1.0000 0.07840  0.03140  0.28766  Biso   1.000  S
  S2       1.0000 0.92160  0.96860  0.71234  Biso   1.000  S
  N1       1.0000 0.97940  0.99090  0.11560  Biso   1.000  N
  N2       1.0000 0.02060  0.00910  0.88440  Biso   1.000  N
  C1       1.0000 0.02150  0.00820  0.18720  Biso   1.000  C
  C2       1.0000 0.97850  0.99180  0.81280  Biso   1.000  C
  N3       1.0000 0.16890  0.20390  0.03850  Biso   1.000  N
  N4       1.0000 0.83110  0.79610  0.96150  Biso   1.000  N
  N5       1.0000 0.52080  0.40430  0.21380  Biso   1.000  N
  N6       1.0000 0.47920  0.59570  0.78620  Biso   1.000  N
  H1       1.0000 0.53200  0.33210  0.23590  Biso   1.000  H
  H2       1.0000 0.46800  0.66790  0.76410  Biso   1.000  H
  N7       1.0000 0.77620  0.09890  0.96230  Biso   1.000  N
  N8       1.0000 0.22380  0.90110  0.03770  Biso   1.000  N
  O1       1.0000 0.61030  0.64340  0.23280  Biso   1.000  O
  O2       1.0000 0.38970  0.35660  0.76720  Biso   1.000  O
  O3       1.0000 0.42880  0.86260  0.75350  Biso   1.000  O
  O4       1.0000 0.57120  0.13740  0.24650  Biso   1.000  O
  C3       1.0000 0.40270  0.37860  0.13610  Biso   1.000  C
  C4       1.0000 0.59730  0.62140  0.86390  Biso   1.000  C
  C5       1.0000 0.28530  0.24250  0.11090  Biso   1.000  C
  C6       1.0000 0.71470  0.75750  0.88910  Biso   1.000  C
  H3       1.0000 0.28880  0.17550  0.14670  Biso   1.000  H
  H4       1.0000 0.71120  0.82450  0.85330  Biso   1.000  H
  C7       1.0000 0.16120  0.29990  0.98850  Biso   1.000  C
  C8       1.0000 0.83880  0.70010  0.01150  Biso   1.000  C
  H5       1.0000 0.07920  0.27510  0.93820  Biso   1.000  H
  H6       1.0000 0.92080  0.72490  0.06180  Biso   1.000  H
  C9       1.0000 0.27200  0.43590  0.00930  Biso   1.000  C
  C10      1.0000 0.72800  0.56410  0.99070  Biso   1.000  C
  H7       1.0000 0.26350  0.50150  0.97300  Biso   1.000  H
  H8       1.0000 0.73650  0.49850  0.02700  Biso   1.000  H
  C11      1.0000 0.39430  0.47580  0.08250  Biso   1.000  C
  C12      1.0000 0.60570  0.52420  0.91750  Biso   1.000  C
  H9       1.0000 0.47050  0.56720  0.09580  Biso   1.000  H
  H10      1.0000 0.52950  0.43280  0.90420  Biso   1.000  H
  N9       1.0000 0.43310  0.08340  0.78410  Biso   1.000  N
  N10      1.0000 0.56690  0.91660  0.21590  Biso   1.000  N
  H11      1.0000 0.40030  0.14930  0.76520  Biso   1.000  H
  H12      1.0000 0.59970  0.85070  0.23480  Biso   1.000  H
  C13      1.0000 0.61970  0.53570  0.25720  Biso   1.000  C
  C14      1.0000 0.38030  0.46430  0.74280  Biso   1.000  C
  C15      1.0000 0.73690  0.53010  0.33790  Biso   1.000  C
  C16      1.0000 0.26310  0.46990  0.66210  Biso   1.000  C
  H13      1.0000 0.81210  0.48760  0.32540  Biso   1.000  H
  H14      1.0000 0.18790  0.51240  0.67460  Biso   1.000  H
  H15      1.0000 0.67560  0.47050  0.37120  Biso   1.000  H
  H16      1.0000 0.32440  0.52950  0.62880  Biso   1.000  H
  C17      1.0000 0.83400  0.67470  0.38840  Biso   1.000  C
  C18      1.0000 0.16600  0.32530  0.61160  Biso   1.000  C
  H17      1.0000 0.75870  0.71760  0.40040  Biso   1.000  H
  H18      1.0000 0.24130  0.28240  0.59960  Biso   1.000  H
  H19      1.0000 0.89620  0.73390  0.35540  Biso   1.000  H
  H20      1.0000 0.10380  0.26610  0.64460  Biso   1.000  H
  C19      1.0000 0.95120  0.66930  0.47070  Biso   1.000  C
  C20      1.0000 0.04880  0.33070  0.52930  Biso   1.000  C
  H21      1.0000 0.88850  0.61230  0.50440  Biso   1.000  H
  H22      1.0000 0.11150  0.38770  0.49560  Biso   1.000  H
  H23      1.0000 0.02420  0.62360  0.45880  Biso   1.000  H
  H24      1.0000 0.97580  0.37640  0.54120  Biso   1.000  H
  C21      1.0000 0.05270  0.81400  0.52050  Biso   1.000  C
  C22      1.0000 0.94730  0.18600  0.47950  Biso   1.000  C
  H25      1.0000 0.11540  0.87040  0.48660  Biso   1.000  H
  H26      1.0000 0.88460  0.12960  0.51340  Biso   1.000  H
  H27      1.0000 0.97910  0.85970  0.53150  Biso   1.000  H
  H28      1.0000 0.02090  0.14030  0.46850  Biso   1.000  H
  C23      1.0000 0.16760  0.81310  0.60160  Biso   1.000  C
  C24      1.0000 0.83240  0.18690  0.39840  Biso   1.000  C
  H29      1.0000 0.23370  0.75890  0.59150  Biso   1.000  H
  H30      1.0000 0.76630  0.24110  0.40850  Biso   1.000  H
  H31      1.0000 0.10430  0.76560  0.63800  Biso   1.000  H
  H32      1.0000 0.89570  0.23440  0.36200  Biso   1.000  H
  C25      1.0000 0.27980  0.95810  0.64610  Biso   1.000  C
  C26      1.0000 0.72020  0.04190  0.35390  Biso   1.000  C
  H33      1.0000 0.21400  0.01560  0.65030  Biso   1.000  H
  H34      1.0000 0.78600  0.98440  0.34970  Biso   1.000  H
  H35      1.0000 0.35150  0.00120  0.61230  Biso   1.000  H
  H36      1.0000 0.64850  0.99880  0.38770  Biso   1.000  H
  C27      1.0000 0.38390  0.96040  0.73260  Biso   1.000  C
  C28      1.0000 0.61610  0.03960  0.26740  Biso   1.000  C
  C29      1.0000 0.53420  0.11060  0.86650  Biso   1.000  C
  C30      1.0000 0.46580  0.88940  0.13350  Biso   1.000  C
  C31      1.0000 0.67940  0.08400  0.88480  Biso   1.000  C
  C32      1.0000 0.32060  0.91600  0.11520  Biso   1.000  C
  H37      1.0000 0.71160  0.05390  0.84050  Biso   1.000  H
  H38      1.0000 0.28840  0.94610  0.15950  Biso   1.000  H
  C33      1.0000 0.72500  0.14560  0.02520  Biso   1.000  C
  C34      1.0000 0.27500  0.85440  0.97480  Biso   1.000  C
  H39      1.0000 0.78760  0.15400  0.07980  Biso   1.000  H
  H40      1.0000 0.21240  0.84600  0.92020  Biso   1.000  H
  C35      1.0000 0.58830  0.18050  0.01310  Biso   1.000  C
  C36      1.0000 0.41170  0.81950  0.98690  Biso   1.000  C
  H41      1.0000 0.56230  0.21670  0.05800  Biso   1.000  H
  H42      1.0000 0.43770  0.78330  0.94200  Biso   1.000  H
  C37      1.0000 0.48920  0.16090  0.93260  Biso   1.000  C
  C38      1.0000 0.51080  0.83910  0.06740  Biso   1.000  C
  H43      1.0000 0.39330  0.18100  0.92260  Biso   1.000  H
  H44      1.0000 0.60670  0.81900  0.07740  Biso   1.000  H
  C39      1.0000 0.59930  0.29880  0.57100  Biso   1.000  C
  C40      1.0000 0.40070  0.70120  0.42900  Biso   1.000  C
  C41      1.0000 0.63260  0.44010  0.59440  Biso   1.000  C
  C42      1.0000 0.36740  0.55990  0.40560  Biso   1.000  C
  H45      1.0000 0.57710  0.48870  0.56040  Biso   1.000  H
  H46      1.0000 0.42290  0.51130  0.43960  Biso   1.000  H
  C43      1.0000 0.74850  0.50940  0.66830  Biso   1.000  C
  C44      1.0000 0.25150  0.49060  0.33170  Biso   1.000  C
  H47      1.0000 0.77450  0.60550  0.68330  Biso   1.000  H
  H48      1.0000 0.22550  0.39450  0.31670  Biso   1.000  H
  C45      1.0000 0.82470  0.43570  0.71940  Biso   1.000  C
  C46      1.0000 0.17530  0.56430  0.28060  Biso   1.000  C
  C47      1.0000 0.79380  0.29440  0.69540  Biso   1.000  C
  C48      1.0000 0.20620  0.70560  0.30460  Biso   1.000  C
  H49      1.0000 0.84960  0.24610  0.72930  Biso   1.000  H
  H50      1.0000 0.15040  0.75390  0.27070  Biso   1.000  H
  C49      1.0000 0.68000  0.22580  0.62090  Biso   1.000  C
  C50      1.0000 0.32000  0.77420  0.37910  Biso   1.000  C
  H51      1.0000 0.65790  0.13070  0.60450  Biso   1.000  H
  H52      1.0000 0.34210  0.86930  0.39550  Biso   1.000  H
