data_image0
_cell_length_a       9.9865
_cell_length_b       14.84
_cell_length_c       20.416
_cell_angle_alpha    90
_cell_angle_beta     100.363
_cell_angle_gamma    90

_symmetry_space_group_name_H-M    "P 1"
_symmetry_int_tables_number       1

loop_
  _symmetry_equiv_pos_as_xyz
  'x, y, z'

loop_
  _atom_site_label
  _atom_site_occupancy
  _atom_site_fract_x
  _atom_site_fract_y
  _atom_site_fract_z
  _atom_site_thermal_displace_type
  _atom_site_B_iso_or_equiv
  _atom_site_type_symbol
  Cu1      1.0000 0.50000  0.00000  0.00000  Biso   1.000  Cu
  Cu2      1.0000 0.00000  0.50000  0.50000  Biso   1.000  Cu
  S1       1.0000 0.59182  0.72463  0.11302  Biso   1.000  S
  S2       1.0000 0.90818  0.22463  0.38698  Biso   1.000  S
  S3       1.0000 0.40818  0.27537  0.88698  Biso   1.000  S
  S4       1.0000 0.09182  0.77537  0.61302  Biso   1.000  S
  N1       1.0000 0.54150  0.88970  0.05213  Biso   1.000  N
  N2       1.0000 0.95850  0.38970  0.44787  Biso   1.000  N
  N3       1.0000 0.45850  0.11030  0.94787  Biso   1.000  N
  N4       1.0000 0.04150  0.61030  0.55213  Biso   1.000  N
  C1       1.0000 0.56260  0.82176  0.07741  Biso   1.000  C
  C2       1.0000 0.93740  0.32176  0.42259  Biso   1.000  C
  C3       1.0000 0.43740  0.17824  0.92259  Biso   1.000  C
  C4       1.0000 0.06260  0.67824  0.57741  Biso   1.000  C
  N5       1.0000 0.68130  0.07962  0.08197  Biso   1.000  N
  N6       1.0000 0.81870  0.57962  0.41803  Biso   1.000  N
  N7       1.0000 0.31870  0.92038  0.91803  Biso   1.000  N
  N8       1.0000 0.18130  0.42038  0.58197  Biso   1.000  N
  C5       1.0000 0.80280  0.09311  0.19383  Biso   1.000  C
  C6       1.0000 0.69720  0.59311  0.30617  Biso   1.000  C
  C7       1.0000 0.19720  0.90689  0.80617  Biso   1.000  C
  C8       1.0000 0.30280  0.40689  0.69383  Biso   1.000  C
  C9       1.0000 0.72370  0.04557  0.14271  Biso   1.000  C
  C10      1.0000 0.77630  0.54557  0.35729  Biso   1.000  C
  C11      1.0000 0.27630  0.95443  0.85729  Biso   1.000  C
  C12      1.0000 0.22370  0.45443  0.64271  Biso   1.000  C
  H1       1.0000 0.69870  0.98690  0.15110  Biso   1.000  H
  H2       1.0000 0.80130  0.48690  0.34890  Biso   1.000  H
  H3       1.0000 0.30130  0.01310  0.84890  Biso   1.000  H
  H4       1.0000 0.19870  0.51310  0.65110  Biso   1.000  H
  C13      1.0000 0.72240  0.16189  0.07010  Biso   1.000  C
  C14      1.0000 0.77760  0.66189  0.42990  Biso   1.000  C
  C15      1.0000 0.27760  0.83811  0.92990  Biso   1.000  C
  C16      1.0000 0.22240  0.33811  0.57010  Biso   1.000  C
  H5       1.0000 0.69290  0.18680  0.02820  Biso   1.000  H
  H6       1.0000 0.80710  0.68680  0.47180  Biso   1.000  H
  H7       1.0000 0.30710  0.81320  0.97180  Biso   1.000  H
  H8       1.0000 0.19290  0.31320  0.52820  Biso   1.000  H
  C17      1.0000 0.80610  0.21190  0.11661  Biso   1.000  C
  C18      1.0000 0.69390  0.71190  0.38339  Biso   1.000  C
  C19      1.0000 0.19390  0.78810  0.88339  Biso   1.000  C
  C20      1.0000 0.30610  0.28810  0.61661  Biso   1.000  C
  H9       1.0000 0.83570  0.26850  0.10570  Biso   1.000  H
  H10      1.0000 0.66430  0.76850  0.39430  Biso   1.000  H
  H11      1.0000 0.16430  0.73150  0.89430  Biso   1.000  H
  H12      1.0000 0.33570  0.23150  0.60570  Biso   1.000  H
  C21      1.0000 0.84650  0.17740  0.18024  Biso   1.000  C
  C22      1.0000 0.65350  0.67740  0.31976  Biso   1.000  C
  C23      1.0000 0.15350  0.82260  0.81976  Biso   1.000  C
  C24      1.0000 0.34650  0.32260  0.68024  Biso   1.000  C
  H13      1.0000 0.90200  0.21080  0.21290  Biso   1.000  H
  H14      1.0000 0.59800  0.71080  0.28710  Biso   1.000  H
  H15      1.0000 0.09800  0.78920  0.78710  Biso   1.000  H
  H16      1.0000 0.40200  0.28920  0.71290  Biso   1.000  H
  N9       1.0000 0.83951  0.05542  0.25797  Biso   1.000  N
  N10      1.0000 0.66049  0.55542  0.24203  Biso   1.000  N
  N11      1.0000 0.16049  0.94458  0.74203  Biso   1.000  N
  N12      1.0000 0.33951  0.44458  0.75797  Biso   1.000  N
  H17      1.0000 0.92430  0.05560  0.27590  Biso   1.000  H
  H18      1.0000 0.57570  0.55560  0.22410  Biso   1.000  H
  H19      1.0000 0.07570  0.94440  0.72410  Biso   1.000  H
  H20      1.0000 0.42430  0.44440  0.77590  Biso   1.000  H
  N13      1.0000 0.67326  0.94209  0.76989  Biso   1.000  N
  N14      1.0000 0.82674  0.44209  0.73011  Biso   1.000  N
  N15      1.0000 0.32674  0.05791  0.23011  Biso   1.000  N
  N16      1.0000 0.17326  0.55791  0.26989  Biso   1.000  N
  H21      1.0000 0.58710  0.94700  0.75590  Biso   1.000  H
  H22      1.0000 0.91290  0.44700  0.74410  Biso   1.000  H
  H23      1.0000 0.41290  0.05300  0.24410  Biso   1.000  H
  H24      1.0000 0.08710  0.55300  0.25590  Biso   1.000  H
  O1       1.0000 0.62916  0.01356  0.27097  Biso   1.000  O
  O2       1.0000 0.87084  0.51356  0.22903  Biso   1.000  O
  O3       1.0000 0.37084  0.98644  0.72903  Biso   1.000  O
  O4       1.0000 0.12916  0.48644  0.77097  Biso   1.000  O
  O5       1.0000 0.87501  0.92326  0.73648  Biso   1.000  O
  O6       1.0000 0.62499  0.42326  0.76352  Biso   1.000  O
  O7       1.0000 0.12499  0.07674  0.26352  Biso   1.000  O
  O8       1.0000 0.37501  0.57674  0.23648  Biso   1.000  O
  C25      1.0000 0.75050  0.01914  0.29312  Biso   1.000  C
  C26      1.0000 0.74950  0.51914  0.20688  Biso   1.000  C
  C27      1.0000 0.24950  0.98086  0.70688  Biso   1.000  C
  C28      1.0000 0.25050  0.48086  0.79312  Biso   1.000  C
  C29      1.0000 0.81480  0.98690  0.36142  Biso   1.000  C
  C30      1.0000 0.68520  0.48690  0.13858  Biso   1.000  C
  C31      1.0000 0.18520  0.01310  0.63858  Biso   1.000  C
  C32      1.0000 0.31480  0.51310  0.86142  Biso   1.000  C
  H25      1.0000 0.89090  0.02590  0.37860  Biso   1.000  H
  H26      1.0000 0.60910  0.52590  0.12140  Biso   1.000  H
  H27      1.0000 0.10910  0.97410  0.62140  Biso   1.000  H
  H28      1.0000 0.39090  0.47410  0.87860  Biso   1.000  H
  H29      1.0000 0.85050  0.92670  0.35770  Biso   1.000  H
  H30      1.0000 0.64950  0.42670  0.14230  Biso   1.000  H
  H31      1.0000 0.14950  0.07330  0.64230  Biso   1.000  H
  H32      1.0000 0.35050  0.57330  0.85770  Biso   1.000  H
  C33      1.0000 0.71870  0.98495  0.41063  Biso   1.000  C
  C34      1.0000 0.78130  0.48495  0.08937  Biso   1.000  C
  C35      1.0000 0.28130  0.01505  0.58937  Biso   1.000  C
  C36      1.0000 0.21870  0.51505  0.91063  Biso   1.000  C
  H33      1.0000 0.64700  0.94160  0.39580  Biso   1.000  H
  H34      1.0000 0.85300  0.44160  0.10420  Biso   1.000  H
  H35      1.0000 0.35300  0.05840  0.60420  Biso   1.000  H
  H36      1.0000 0.14700  0.55840  0.89580  Biso   1.000  H
  H37      1.0000 0.67680  0.04380  0.41170  Biso   1.000  H
  H38      1.0000 0.82320  0.54380  0.08830  Biso   1.000  H
  H39      1.0000 0.32320  0.95620  0.58830  Biso   1.000  H
  H40      1.0000 0.17680  0.45620  0.91170  Biso   1.000  H
  C37      1.0000 0.78980  0.96013  0.48070  Biso   1.000  C
  C38      1.0000 0.71020  0.46013  0.01930  Biso   1.000  C
  C39      1.0000 0.21020  0.03987  0.51930  Biso   1.000  C
  C40      1.0000 0.28980  0.53987  0.98070  Biso   1.000  C
  H41      1.0000 0.83780  0.90370  0.47880  Biso   1.000  H
  H42      1.0000 0.66220  0.40370  0.02120  Biso   1.000  H
  H43      1.0000 0.16220  0.09630  0.52120  Biso   1.000  H
  H44      1.0000 0.33780  0.59630  0.97880  Biso   1.000  H
  H45      1.0000 0.85690  0.00600  0.49660  Biso   1.000  H
  H46      1.0000 0.64310  0.50600  0.00340  Biso   1.000  H
  H47      1.0000 0.14310  0.99400  0.50340  Biso   1.000  H
  H48      1.0000 0.35690  0.49400  0.99660  Biso   1.000  H
  C41      1.0000 0.69490  0.95064  0.53020  Biso   1.000  C
  C42      1.0000 0.80510  0.45064  0.96980  Biso   1.000  C
  C43      1.0000 0.30510  0.04936  0.46980  Biso   1.000  C
  C44      1.0000 0.19490  0.54936  0.03020  Biso   1.000  C
  H49      1.0000 0.63930  0.89720  0.51940  Biso   1.000  H
  H50      1.0000 0.86070  0.39720  0.98060  Biso   1.000  H
  H51      1.0000 0.36070  0.10280  0.48060  Biso   1.000  H
  H52      1.0000 0.13930  0.60280  0.01940  Biso   1.000  H
  H53      1.0000 0.63450  0.00230  0.52620  Biso   1.000  H
  H54      1.0000 0.86550  0.50230  0.97380  Biso   1.000  H
  H55      1.0000 0.36550  0.99770  0.47380  Biso   1.000  H
  H56      1.0000 0.13450  0.49770  0.02620  Biso   1.000  H
  C45      1.0000 0.76970  0.94366  0.60166  Biso   1.000  C
  C46      1.0000 0.73030  0.44366  0.89834  Biso   1.000  C
  C47      1.0000 0.23030  0.05634  0.39834  Biso   1.000  C
  C48      1.0000 0.26970  0.55634  0.10166  Biso   1.000  C
  H57      1.0000 0.82980  0.89180  0.60560  Biso   1.000  H
  H58      1.0000 0.67020  0.39180  0.89440  Biso   1.000  H
  H59      1.0000 0.17020  0.10820  0.39440  Biso   1.000  H
  H60      1.0000 0.32980  0.60820  0.10560  Biso   1.000  H
  H61      1.0000 0.82580  0.99690  0.61230  Biso   1.000  H
  H62      1.0000 0.67420  0.49690  0.88770  Biso   1.000  H
  H63      1.0000 0.17420  0.00310  0.38770  Biso   1.000  H
  H64      1.0000 0.32580  0.50310  0.11230  Biso   1.000  H
  C49      1.0000 0.67590  0.93469  0.65182  Biso   1.000  C
  C50      1.0000 0.82410  0.43469  0.84818  Biso   1.000  C
  C51      1.0000 0.32410  0.06531  0.34818  Biso   1.000  C
  C52      1.0000 0.17590  0.56531  0.15182  Biso   1.000  C
  H65      1.0000 0.61250  0.98480  0.64650  Biso   1.000  H
  H66      1.0000 0.88750  0.48480  0.85350  Biso   1.000  H
  H67      1.0000 0.38750  0.01520  0.35350  Biso   1.000  H
  H68      1.0000 0.11250  0.51520  0.14650  Biso   1.000  H
  H69      1.0000 0.62360  0.87960  0.64300  Biso   1.000  H
  H70      1.0000 0.87640  0.37960  0.85700  Biso   1.000  H
  H71      1.0000 0.37640  0.12040  0.35700  Biso   1.000  H
  H72      1.0000 0.12360  0.62040  0.14300  Biso   1.000  H
  C53      1.0000 0.75230  0.93312  0.72245  Biso   1.000  C
  C54      1.0000 0.74770  0.43312  0.77755  Biso   1.000  C
  C55      1.0000 0.24770  0.06688  0.27755  Biso   1.000  C
  C56      1.0000 0.25230  0.56688  0.22245  Biso   1.000  C
  N17      1.0000 0.64795  0.96743  0.94451  Biso   1.000  N
  N18      1.0000 0.85205  0.46743  0.55549  Biso   1.000  N
  N19      1.0000 0.35205  0.03257  0.05549  Biso   1.000  N
  N20      1.0000 0.14795  0.53257  0.44451  Biso   1.000  N
  C57      1.0000 0.71730  0.94416  0.83928  Biso   1.000  C
  C58      1.0000 0.78270  0.44416  0.66072  Biso   1.000  C
  C59      1.0000 0.28270  0.05584  0.16072  Biso   1.000  C
  C60      1.0000 0.21730  0.55584  0.33928  Biso   1.000  C
  C61      1.0000 0.62140  0.96566  0.87800  Biso   1.000  C
  C62      1.0000 0.87860  0.46566  0.62200  Biso   1.000  C
  C63      1.0000 0.37860  0.03434  0.12200  Biso   1.000  C
  C64      1.0000 0.12140  0.53434  0.37800  Biso   1.000  C
  H73      1.0000 0.53360  0.97960  0.85650  Biso   1.000  H
  H74      1.0000 0.96640  0.47960  0.64350  Biso   1.000  H
  H75      1.0000 0.46640  0.02040  0.14350  Biso   1.000  H
  H76      1.0000 0.03360  0.52040  0.35650  Biso   1.000  H
  C65      1.0000 0.77440  0.94839  0.97487  Biso   1.000  C
  C66      1.0000 0.72560  0.44839  0.52513  Biso   1.000  C
  C67      1.0000 0.22560  0.05161  0.02513  Biso   1.000  C
  C68      1.0000 0.27440  0.55161  0.47487  Biso   1.000  C
  H77      1.0000 0.79430  0.94800  0.02120  Biso   1.000  H
  H78      1.0000 0.70570  0.44800  0.47880  Biso   1.000  H
  H79      1.0000 0.20570  0.05200  0.97880  Biso   1.000  H
  H80      1.0000 0.29430  0.55200  0.52120  Biso   1.000  H
  C69      1.0000 0.87600  0.92929  0.93984  Biso   1.000  C
  C70      1.0000 0.62400  0.42929  0.56016  Biso   1.000  C
  C71      1.0000 0.12400  0.07071  0.06016  Biso   1.000  C
  C72      1.0000 0.37600  0.57071  0.43984  Biso   1.000  C
  H81      1.0000 0.96380  0.91820  0.96250  Biso   1.000  H
  H82      1.0000 0.53620  0.41820  0.53750  Biso   1.000  H
  H83      1.0000 0.03620  0.08180  0.03750  Biso   1.000  H
  H84      1.0000 0.46380  0.58180  0.46250  Biso   1.000  H
  C73      1.0000 0.84900  0.92645  0.87136  Biso   1.000  C
  C74      1.0000 0.65100  0.42645  0.62864  Biso   1.000  C
  C75      1.0000 0.15100  0.07355  0.12864  Biso   1.000  C
  C76      1.0000 0.34900  0.57355  0.37136  Biso   1.000  C
  H85      1.0000 0.91720  0.91300  0.84730  Biso   1.000  H
  H86      1.0000 0.58280  0.41300  0.65270  Biso   1.000  H
  H87      1.0000 0.08280  0.08700  0.15270  Biso   1.000  H
  H88      1.0000 0.41720  0.58700  0.34730  Biso   1.000  H
  C77      1.0000 0.52700  0.28860  0.37550  Biso   1.000  C
  C78      1.0000 0.97300  0.78860  0.12450  Biso   1.000  C
  C79      1.0000 0.47300  0.71140  0.62450  Biso   1.000  C
  C80      1.0000 0.02700  0.21140  0.87550  Biso   1.000  C
  H89      1.0000 0.61630  0.28020  0.39720  Biso   1.000  H
  H90      1.0000 0.88370  0.78020  0.10280  Biso   1.000  H
  H91      1.0000 0.38370  0.71980  0.60280  Biso   1.000  H
  H92      1.0000 0.11630  0.21980  0.89720  Biso   1.000  H
  C81      1.0000 0.42680  0.30220  0.41223  Biso   1.000  C
  C82      1.0000 0.07320  0.80220  0.08777  Biso   1.000  C
  C83      1.0000 0.57320  0.69780  0.58777  Biso   1.000  C
  C84      1.0000 0.92680  0.19780  0.91223  Biso   1.000  C
  H93      1.0000 0.44770  0.30170  0.45850  Biso   1.000  H
  H94      1.0000 0.05230  0.80170  0.04150  Biso   1.000  H
  H95      1.0000 0.55230  0.69830  0.54150  Biso   1.000  H
  H96      1.0000 0.94770  0.19830  0.95850  Biso   1.000  H
  C85      1.0000 0.29680  0.31660  0.38070  Biso   1.000  C
  C86      1.0000 0.20320  0.81660  0.11930  Biso   1.000  C
  C87      1.0000 0.70320  0.68340  0.61930  Biso   1.000  C
  C88      1.0000 0.79680  0.18340  0.88070  Biso   1.000  C
  H97      1.0000 0.22870  0.32640  0.40550  Biso   1.000  H
  H98      1.0000 0.27130  0.82640  0.09450  Biso   1.000  H
  H99      1.0000 0.77130  0.67360  0.59450  Biso   1.000  H
  H100     1.0000 0.72870  0.17360  0.90550  Biso   1.000  H
  C89      1.0000 0.16230  0.31850  0.09887  Biso   1.000  C
  C90      1.0000 0.33770  0.81850  0.40113  Biso   1.000  C
  C91      1.0000 0.83770  0.68150  0.90113  Biso   1.000  C
  C92      1.0000 0.66230  0.18150  0.59887  Biso   1.000  C
  H101     1.0000 0.07340  0.33140  0.07850  Biso   1.000  H
  H102     1.0000 0.42660  0.83140  0.42150  Biso   1.000  H
  H103     1.0000 0.92660  0.66860  0.92150  Biso   1.000  H
  H104     1.0000 0.57340  0.16860  0.57850  Biso   1.000  H
  C93      1.0000 0.25820  0.29960  0.06092  Biso   1.000  C
  C94      1.0000 0.24180  0.79960  0.43908  Biso   1.000  C
  C95      1.0000 0.74180  0.70040  0.93908  Biso   1.000  C
  C96      1.0000 0.75820  0.20040  0.56092  Biso   1.000  C
  H105     1.0000 0.23500  0.29920  0.01470  Biso   1.000  H
  H106     1.0000 0.26500  0.79920  0.48530  Biso   1.000  H
  H107     1.0000 0.76500  0.70080  0.98530  Biso   1.000  H
  H108     1.0000 0.73500  0.20080  0.51470  Biso   1.000  H
  C97      1.0000 0.38850  0.28120  0.09160  Biso   1.000  C
  C98      1.0000 0.11150  0.78120  0.40840  Biso   1.000  C
  C99      1.0000 0.61150  0.71880  0.90840  Biso   1.000  C
  C100     1.0000 0.88850  0.21880  0.59160  Biso   1.000  C
  H109     1.0000 0.45420  0.26830  0.06590  Biso   1.000  H
  H110     1.0000 0.04580  0.76830  0.43410  Biso   1.000  H
  H111     1.0000 0.54580  0.73170  0.93410  Biso   1.000  H
  H112     1.0000 0.95420  0.23170  0.56590  Biso   1.000  H
  C101     1.0000 0.36390  0.30168  0.27317  Biso   1.000  C
  C102     1.0000 0.13610  0.80168  0.22683  Biso   1.000  C
  C103     1.0000 0.63610  0.69832  0.72683  Biso   1.000  C
  C104     1.0000 0.86390  0.19832  0.77317  Biso   1.000  C
  C105     1.0000 0.33030  0.30047  0.20045  Biso   1.000  C
  C106     1.0000 0.16970  0.80047  0.29955  Biso   1.000  C
  C107     1.0000 0.66970  0.69953  0.79955  Biso   1.000  C
  C108     1.0000 0.83030  0.19953  0.70045  Biso   1.000  C
  C109     1.0000 0.13810  0.33550  0.27570  Biso   1.000  C
  C110     1.0000 0.36190  0.83550  0.22430  Biso   1.000  C
  C111     1.0000 0.86190  0.66450  0.72430  Biso   1.000  C
  C112     1.0000 0.63810  0.16450  0.77570  Biso   1.000  C
  H113     1.0000 0.07600  0.34900  0.30300  Biso   1.000  H
  H114     1.0000 0.42400  0.84900  0.19700  Biso   1.000  H
  H115     1.0000 0.92400  0.65100  0.69700  Biso   1.000  H
  H116     1.0000 0.57600  0.15100  0.80300  Biso   1.000  H
  C113     1.0000 0.10850  0.33810  0.21040  Biso   1.000  C
  C114     1.0000 0.39150  0.83810  0.28960  Biso   1.000  C
  C115     1.0000 0.89150  0.66190  0.78960  Biso   1.000  C
  C116     1.0000 0.60850  0.16190  0.71040  Biso   1.000  C
  H117     1.0000 0.01500  0.35600  0.18600  Biso   1.000  H
  H118     1.0000 0.48500  0.85600  0.31400  Biso   1.000  H
  H119     1.0000 0.98500  0.64400  0.81400  Biso   1.000  H
  H120     1.0000 0.51500  0.14400  0.68600  Biso   1.000  H
  C117     1.0000 0.57250  0.27370  0.25840  Biso   1.000  C
  C118     1.0000 0.92750  0.77370  0.24160  Biso   1.000  C
  C119     1.0000 0.42750  0.72630  0.74160  Biso   1.000  C
  C120     1.0000 0.07250  0.22630  0.75840  Biso   1.000  C
  H121     1.0000 0.66460  0.26850  0.27260  Biso   1.000  H
  H122     1.0000 0.83540  0.76850  0.22740  Biso   1.000  H
  H123     1.0000 0.33540  0.73150  0.72740  Biso   1.000  H
  H124     1.0000 0.16460  0.23150  0.77260  Biso   1.000  H
  C121     1.0000 0.53800  0.26930  0.19550  Biso   1.000  C
  C122     1.0000 0.96200  0.76930  0.30450  Biso   1.000  C
  C123     1.0000 0.46200  0.73070  0.80450  Biso   1.000  C
  C124     1.0000 0.03800  0.23070  0.69550  Biso   1.000  C
  H125     1.0000 0.62400  0.26700  0.17000  Biso   1.000  H
  H126     1.0000 0.87600  0.76700  0.33000  Biso   1.000  H
  H127     1.0000 0.37600  0.73300  0.83000  Biso   1.000  H
  H128     1.0000 0.12400  0.23300  0.67000  Biso   1.000  H
  C125     1.0000 0.19780  0.31841  0.16863  Biso   1.000  C
  C126     1.0000 0.30220  0.81841  0.33137  Biso   1.000  C
  C127     1.0000 0.80220  0.68159  0.83137  Biso   1.000  C
  C128     1.0000 0.69780  0.18159  0.66863  Biso   1.000  C
  H129     1.0000 0.13140  0.33060  0.19400  Biso   1.000  H
  H130     1.0000 0.36860  0.83060  0.30600  Biso   1.000  H
  H131     1.0000 0.86860  0.66940  0.80600  Biso   1.000  H
  H132     1.0000 0.63140  0.16940  0.69400  Biso   1.000  H
  C129     1.0000 0.26500  0.31670  0.31196  Biso   1.000  C
  C130     1.0000 0.23500  0.81670  0.18804  Biso   1.000  C
  C131     1.0000 0.73500  0.68330  0.68804  Biso   1.000  C
  C132     1.0000 0.76500  0.18330  0.81196  Biso   1.000  C
  H133     1.0000 0.17560  0.32710  0.29120  Biso   1.000  H
  H134     1.0000 0.32440  0.82710  0.20880  Biso   1.000  H
  H135     1.0000 0.82440  0.67290  0.70880  Biso   1.000  H
  H136     1.0000 0.67560  0.17290  0.79120  Biso   1.000  H
  C133     1.0000 0.42440  0.28160  0.16040  Biso   1.000  C
  C134     1.0000 0.07560  0.78160  0.33960  Biso   1.000  C
  C135     1.0000 0.57560  0.71840  0.83960  Biso   1.000  C
  C136     1.0000 0.92440  0.21840  0.66040  Biso   1.000  C
  H137     1.0000 0.51380  0.26880  0.18000  Biso   1.000  H
  H138     1.0000 0.98620  0.76880  0.32000  Biso   1.000  H
  H139     1.0000 0.48620  0.73120  0.82000  Biso   1.000  H
  H140     1.0000 0.01380  0.23120  0.68000  Biso   1.000  H
  C137     1.0000 0.49760  0.28700  0.30620  Biso   1.000  C
  C138     1.0000 0.00240  0.78700  0.19380  Biso   1.000  C
  C139     1.0000 0.50240  0.71300  0.69380  Biso   1.000  C
  C140     1.0000 0.99760  0.21300  0.80620  Biso   1.000  C
  H141     1.0000 0.56650  0.27630  0.28200  Biso   1.000  H
  H142     1.0000 0.93350  0.77630  0.21800  Biso   1.000  H
  H143     1.0000 0.43350  0.72370  0.71800  Biso   1.000  H
  H144     1.0000 0.06650  0.22370  0.78200  Biso   1.000  H
