data_image0
_cell_length_a       8.1942
_cell_length_b       10.001
_cell_length_c       14.822
_cell_angle_alpha    75.664
_cell_angle_beta     85.553
_cell_angle_gamma    85.294

_symmetry_space_group_name_H-M    "P 1"
_symmetry_int_tables_number       1

loop_
  _symmetry_equiv_pos_as_xyz
  'x, y, z'

loop_
  _atom_site_label
  _atom_site_occupancy
  _atom_site_fract_x
  _atom_site_fract_y
  _atom_site_fract_z
  _atom_site_thermal_displace_type
  _atom_site_B_iso_or_equiv
  _atom_site_type_symbol
  Cu1      1.0000 0.50000  0.00000  0.50000  Biso   1.000  Cu
  S1       1.0000 0.66794  0.12590  0.19107  Biso   1.000  S
  S2       1.0000 0.33206  0.87410  0.80893  Biso   1.000  S
  N1       1.0000 0.60950  0.99510  0.37781  Biso   1.000  N
  N2       1.0000 0.39050  0.00490  0.62219  Biso   1.000  N
  C1       1.0000 0.63510  0.04940  0.29981  Biso   1.000  C
  C2       1.0000 0.36490  0.95060  0.70019  Biso   1.000  C
  N3       1.0000 0.29170  0.93030  0.46134  Biso   1.000  N
  N4       1.0000 0.70830  0.06970  0.53866  Biso   1.000  N
  N5       1.0000 0.08140  0.96390  0.24731  Biso   1.000  N
  N6       1.0000 0.91860  0.03610  0.75269  Biso   1.000  N
  H1       1.0000 0.08760  0.05020  0.22040  Biso   1.000  H
  H2       1.0000 0.91240  0.94980  0.77960  Biso   1.000  H
  C3       1.0000 0.11310  0.91990  0.34320  Biso   1.000  C
  C4       1.0000 0.88690  0.08010  0.65680  Biso   1.000  C
  C5       1.0000 0.25040  0.96390  0.37200  Biso   1.000  C
  C6       1.0000 0.74960  0.03610  0.62800  Biso   1.000  C
  H3       1.0000 0.31810  0.01960  0.32750  Biso   1.000  H
  H4       1.0000 0.68190  0.98040  0.67250  Biso   1.000  H
  C7       1.0000 0.19370  0.84780  0.52399  Biso   1.000  C
  C8       1.0000 0.80630  0.15220  0.47601  Biso   1.000  C
  H5       1.0000 0.22100  0.82170  0.58590  Biso   1.000  H
  H6       1.0000 0.77900  0.17830  0.41410  Biso   1.000  H
  C9       1.0000 0.05470  0.80060  0.49997  Biso   1.000  C
  C10      1.0000 0.94530  0.19940  0.50003  Biso   1.000  C
  H7       1.0000 0.98940  0.74380  0.54530  Biso   1.000  H
  H8       1.0000 0.01060  0.25620  0.45470  Biso   1.000  H
  C11      1.0000 0.01160  0.83750  0.40815  Biso   1.000  C
  C12      1.0000 0.98840  0.16250  0.59185  Biso   1.000  C
  H9       1.0000 0.91690  0.80750  0.39090  Biso   1.000  H
  H10      1.0000 0.08310  0.19250  0.60910  Biso   1.000  H
  O1       1.0000 0.02520  0.75571  0.22775  Biso   1.000  O
  O2       1.0000 0.97480  0.24429  0.77225  Biso   1.000  O
  C13      1.0000 0.04210  0.87920  0.19579  Biso   1.000  C
  C14      1.0000 0.95790  0.12080  0.80421  Biso   1.000  C
  C15      1.0000 0.02210  0.94500  0.09417  Biso   1.000  C
  C16      1.0000 0.97790  0.05500  0.90583  Biso   1.000  C
  C17      1.0000 0.11300  0.05210  0.04430  Biso   1.000  C
  C18      1.0000 0.88700  0.94790  0.95570  Biso   1.000  C
  H11      1.0000 0.18980  0.08710  0.07380  Biso   1.000  H
  H12      1.0000 0.81020  0.91290  0.92620  Biso   1.000  H
  C19      1.0000 0.90950  0.89270  0.04913  Biso   1.000  C
  C20      1.0000 0.09050  0.10730  0.95087  Biso   1.000  C
  H13      1.0000 0.84870  0.81970  0.08220  Biso   1.000  H
  H14      1.0000 0.15130  0.18030  0.91780  Biso   1.000  H
  N7       1.0000 0.40190  0.25820  0.42964  Biso   1.000  N
  N8       1.0000 0.59810  0.74180  0.57036  Biso   1.000  N
  N9       1.0000 0.17900  0.46550  0.22928  Biso   1.000  N
  N10      1.0000 0.82100  0.53450  0.77072  Biso   1.000  N
  H15      1.0000 0.16530  0.55290  0.20540  Biso   1.000  H
  H16      1.0000 0.83470  0.44710  0.79460  Biso   1.000  H
  C21      1.0000 0.24550  0.42290  0.31822  Biso   1.000  C
  C22      1.0000 0.75450  0.57710  0.68178  Biso   1.000  C
  C23      1.0000 0.34490  0.30220  0.34477  Biso   1.000  C
  C24      1.0000 0.65510  0.69780  0.65523  Biso   1.000  C
  H17      1.0000 0.37290  0.24970  0.30140  Biso   1.000  H
  H18      1.0000 0.62710  0.75030  0.69860  Biso   1.000  H
  C25      1.0000 0.36690  0.33810  0.48860  Biso   1.000  C
  C26      1.0000 0.63310  0.66190  0.51140  Biso   1.000  C
  H19      1.0000 0.40630  0.30870  0.54790  Biso   1.000  H
  H20      1.0000 0.59370  0.69130  0.45210  Biso   1.000  H
  C27      1.0000 0.27610  0.46100  0.46710  Biso   1.000  C
  C28      1.0000 0.72390  0.53900  0.53290  Biso   1.000  C
  H21      1.0000 0.25730  0.51470  0.51030  Biso   1.000  H
  H22      1.0000 0.74270  0.48530  0.48970  Biso   1.000  H
  C29      1.0000 0.21270  0.50450  0.38060  Biso   1.000  C
  C30      1.0000 0.78730  0.49550  0.61940  Biso   1.000  C
  H23      1.0000 0.14890  0.58730  0.36460  Biso   1.000  H
  H24      1.0000 0.85110  0.41270  0.63540  Biso   1.000  H
  O3       1.0000 0.15540  0.25344  0.20477  Biso   1.000  O
  O4       1.0000 0.84460  0.74656  0.79523  Biso   1.000  O
  C31      1.0000 0.13560  0.37970  0.17897  Biso   1.000  C
  C32      1.0000 0.86440  0.62030  0.82103  Biso   1.000  C
  C33      1.0000 0.06320  0.44630  0.08731  Biso   1.000  C
  C34      1.0000 0.93680  0.55370  0.91269  Biso   1.000  C
  C35      1.0000 0.09800  0.57820  0.03585  Biso   1.000  C
  C36      1.0000 0.90200  0.42180  0.96415  Biso   1.000  C
  H25      1.0000 0.16400  0.63120  0.05960  Biso   1.000  H
  H26      1.0000 0.83600  0.36880  0.94040  Biso   1.000  H
  C37      1.0000 0.96530  0.36940  0.05057  Biso   1.000  C
  C38      1.0000 0.03470  0.63060  0.94943  Biso   1.000  C
  H27      1.0000 0.94170  0.28100  0.08450  Biso   1.000  H
  H28      1.0000 0.05830  0.71900  0.91550  Biso   1.000  H
  N11      1.0000 0.78850  0.44690  0.31960  Biso   1.000  N
  N12      1.0000 0.21150  0.55310  0.68040  Biso   1.000  N
  C39      1.0000 0.71230  0.51990  0.26490  Biso   1.000  C
  C40      1.0000 0.28770  0.48010  0.73510  Biso   1.000  C
  C41      1.0000 0.62160  0.61410  0.19370  Biso   1.000  C
  C42      1.0000 0.37840  0.38590  0.80630  Biso   1.000  C
  C43      1.0000 0.61060  0.58430  0.10900  Biso   1.000  C
  C44      1.0000 0.38940  0.41570  0.89100  Biso   1.000  C
  H29      1.0000 0.65590  0.50070  0.09860  Biso   1.000  H
  H30      1.0000 0.34410  0.49930  0.90140  Biso   1.000  H
  C45      1.0000 0.53160  0.67970  0.03900  Biso   1.000  C
  C46      1.0000 0.46840  0.32030  0.96100  Biso   1.000  C
  H31      1.0000 0.52650  0.66100  0.98090  Biso   1.000  H
  H32      1.0000 0.47350  0.33900  0.01910  Biso   1.000  H
  C47      1.0000 0.46140  0.80060  0.05490  Biso   1.000  C
  C48      1.0000 0.53860  0.19940  0.94510  Biso   1.000  C
  H33      1.0000 0.40740  0.86400  0.00790  Biso   1.000  H
  H34      1.0000 0.59260  0.13600  0.99210  Biso   1.000  H
  C49      1.0000 0.47040  0.82880  0.14010  Biso   1.000  C
  C50      1.0000 0.52960  0.17120  0.85990  Biso   1.000  C
  H35      1.0000 0.42180  0.91110  0.15090  Biso   1.000  H
  H36      1.0000 0.57820  0.08890  0.84910  Biso   1.000  H
  C51      1.0000 0.55000  0.73720  0.20900  Biso   1.000  C
  C52      1.0000 0.45000  0.26280  0.79100  Biso   1.000  C
  H37      1.0000 0.55620  0.75750  0.26650  Biso   1.000  H
  H38      1.0000 0.44380  0.24250  0.73350  Biso   1.000  H
