data_image0
_cell_length_a       10.1605
_cell_length_b       15.0606
_cell_length_c       20.01
_cell_angle_alpha    90
_cell_angle_beta     100.338
_cell_angle_gamma    90

_symmetry_space_group_name_H-M    "P 1"
_symmetry_int_tables_number       1

loop_
  _symmetry_equiv_pos_as_xyz
  'x, y, z'

loop_
  _atom_site_label
  _atom_site_occupancy
  _atom_site_fract_x
  _atom_site_fract_y
  _atom_site_fract_z
  _atom_site_thermal_displace_type
  _atom_site_B_iso_or_equiv
  _atom_site_type_symbol
  Cu1      1.0000 0.50000  0.00000  0.00000  Biso   1.000  Cu
  Cu2      1.0000 0.00000  0.50000  0.50000  Biso   1.000  Cu
  S1       1.0000 0.56360  0.26612  0.12028  Biso   1.000  S
  S2       1.0000 0.93640  0.76612  0.37972  Biso   1.000  S
  S3       1.0000 0.43640  0.73388  0.87972  Biso   1.000  S
  S4       1.0000 0.06360  0.23388  0.62028  Biso   1.000  S
  N1       1.0000 0.55080  0.10640  0.05315  Biso   1.000  N
  N2       1.0000 0.94920  0.60640  0.44685  Biso   1.000  N
  N3       1.0000 0.44920  0.89360  0.94685  Biso   1.000  N
  N4       1.0000 0.05080  0.39360  0.55315  Biso   1.000  N
  C1       1.0000 0.55720  0.17210  0.08170  Biso   1.000  C
  C2       1.0000 0.94280  0.67210  0.41830  Biso   1.000  C
  C3       1.0000 0.44280  0.82790  0.91830  Biso   1.000  C
  C4       1.0000 0.05720  0.32790  0.58170  Biso   1.000  C
  O1       1.0000 0.51430  0.95670  0.26576  Biso   1.000  O
  O2       1.0000 0.98570  0.45670  0.23424  Biso   1.000  O
  O3       1.0000 0.48570  0.04330  0.73424  Biso   1.000  O
  O4       1.0000 0.01430  0.54330  0.76576  Biso   1.000  O
  N5       1.0000 0.36790  0.96800  0.06294  Biso   1.000  N
  N6       1.0000 0.13210  0.46800  0.43706  Biso   1.000  N
  N7       1.0000 0.63210  0.03200  0.93706  Biso   1.000  N
  N8       1.0000 0.86790  0.53200  0.56294  Biso   1.000  N
  C5       1.0000 0.32760  0.94600  0.17616  Biso   1.000  C
  C6       1.0000 0.17240  0.44600  0.32384  Biso   1.000  C
  C7       1.0000 0.67240  0.05400  0.82384  Biso   1.000  C
  C8       1.0000 0.82760  0.55400  0.67616  Biso   1.000  C
  C9       1.0000 0.40770  0.96840  0.13005  Biso   1.000  C
  C10      1.0000 0.09230  0.46840  0.36995  Biso   1.000  C
  C11      1.0000 0.59230  0.03160  0.86995  Biso   1.000  C
  C12      1.0000 0.90770  0.53160  0.63005  Biso   1.000  C
  H1       1.0000 0.49560  0.98500  0.14700  Biso   1.000  H
  H2       1.0000 0.00440  0.48500  0.35300  Biso   1.000  H
  H3       1.0000 0.50440  0.01500  0.85300  Biso   1.000  H
  H4       1.0000 0.99560  0.51500  0.64700  Biso   1.000  H
  C13      1.0000 0.24050  0.94550  0.03943  Biso   1.000  C
  C14      1.0000 0.25950  0.44550  0.46057  Biso   1.000  C
  C15      1.0000 0.75950  0.05450  0.96057  Biso   1.000  C
  C16      1.0000 0.74050  0.55450  0.53943  Biso   1.000  C
  H5       1.0000 0.21040  0.94440  0.99270  Biso   1.000  H
  H6       1.0000 0.28960  0.44440  0.50730  Biso   1.000  H
  H7       1.0000 0.78960  0.05560  0.00730  Biso   1.000  H
  H8       1.0000 0.71040  0.55560  0.49270  Biso   1.000  H
  C17      1.0000 0.15270  0.92410  0.08174  Biso   1.000  C
  C18      1.0000 0.34730  0.42410  0.41826  Biso   1.000  C
  C19      1.0000 0.84730  0.07590  0.91826  Biso   1.000  C
  C20      1.0000 0.65270  0.57590  0.58174  Biso   1.000  C
  H9       1.0000 0.06450  0.90940  0.06380  Biso   1.000  H
  H10      1.0000 0.43550  0.40940  0.43620  Biso   1.000  H
  H11      1.0000 0.93550  0.09060  0.93620  Biso   1.000  H
  H12      1.0000 0.56450  0.59060  0.56380  Biso   1.000  H
  C21      1.0000 0.19640  0.92440  0.15091  Biso   1.000  C
  C22      1.0000 0.30360  0.42440  0.34909  Biso   1.000  C
  C23      1.0000 0.80360  0.07560  0.84909  Biso   1.000  C
  C24      1.0000 0.69640  0.57560  0.65091  Biso   1.000  C
  H13      1.0000 0.13810  0.91030  0.18020  Biso   1.000  H
  H14      1.0000 0.36190  0.41030  0.31980  Biso   1.000  H
  H15      1.0000 0.86190  0.08970  0.81980  Biso   1.000  H
  H16      1.0000 0.63810  0.58970  0.68020  Biso   1.000  H
  C25      1.0000 0.39160  0.94610  0.24975  Biso   1.000  C
  C26      1.0000 0.10840  0.44610  0.25025  Biso   1.000  C
  C27      1.0000 0.60840  0.05390  0.75025  Biso   1.000  C
  C28      1.0000 0.89160  0.55390  0.74975  Biso   1.000  C
  O5       1.0000 0.98140  0.06220  0.72744  Biso   1.000  O
  O6       1.0000 0.51860  0.56220  0.77256  Biso   1.000  O
  O7       1.0000 0.01860  0.93780  0.27256  Biso   1.000  O
  O8       1.0000 0.48140  0.43780  0.22744  Biso   1.000  O
  N9       1.0000 0.30860  0.08030  0.92174  Biso   1.000  N
  N10      1.0000 0.19140  0.58030  0.57826  Biso   1.000  N
  N11      1.0000 0.69140  0.91970  0.07826  Biso   1.000  N
  N12      1.0000 0.80860  0.41970  0.42174  Biso   1.000  N
  C29      1.0000 0.16520  0.09770  0.81352  Biso   1.000  C
  C30      1.0000 0.33480  0.59770  0.68648  Biso   1.000  C
  C31      1.0000 0.83480  0.90230  0.18648  Biso   1.000  C
  C32      1.0000 0.66520  0.40230  0.31352  Biso   1.000  C
  C33      1.0000 0.25270  0.04910  0.86056  Biso   1.000  C
  C34      1.0000 0.24730  0.54910  0.63944  Biso   1.000  C
  C35      1.0000 0.74730  0.95090  0.13944  Biso   1.000  C
  C36      1.0000 0.75270  0.45090  0.36056  Biso   1.000  C
  H17      1.0000 0.27380  0.99170  0.84910  Biso   1.000  H
  H18      1.0000 0.22620  0.49170  0.65090  Biso   1.000  H
  H19      1.0000 0.72620  0.00830  0.15090  Biso   1.000  H
  H20      1.0000 0.77380  0.50830  0.34910  Biso   1.000  H
  C37      1.0000 0.27530  0.16120  0.93720  Biso   1.000  C
  C38      1.0000 0.22470  0.66120  0.56280  Biso   1.000  C
  C39      1.0000 0.72470  0.83880  0.06280  Biso   1.000  C
  C40      1.0000 0.77530  0.33880  0.43720  Biso   1.000  C
  H21      1.0000 0.31480  0.18460  0.97900  Biso   1.000  H
  H22      1.0000 0.18520  0.68460  0.52100  Biso   1.000  H
  H23      1.0000 0.68520  0.81540  0.02100  Biso   1.000  H
  H24      1.0000 0.81480  0.31540  0.47900  Biso   1.000  H
  C41      1.0000 0.18550  0.21260  0.89480  Biso   1.000  C
  C42      1.0000 0.31450  0.71260  0.60520  Biso   1.000  C
  C43      1.0000 0.81450  0.78740  0.10520  Biso   1.000  C
  C44      1.0000 0.68550  0.28740  0.39480  Biso   1.000  C
  H25      1.0000 0.16310  0.26880  0.90830  Biso   1.000  H
  H26      1.0000 0.33690  0.76880  0.59170  Biso   1.000  H
  H27      1.0000 0.83690  0.73120  0.09170  Biso   1.000  H
  H28      1.0000 0.66310  0.23120  0.40830  Biso   1.000  H
  C45      1.0000 0.12890  0.18010  0.83240  Biso   1.000  C
  C46      1.0000 0.37110  0.68010  0.66760  Biso   1.000  C
  C47      1.0000 0.87110  0.81990  0.16760  Biso   1.000  C
  C48      1.0000 0.62890  0.31990  0.33240  Biso   1.000  C
  H29      1.0000 0.06660  0.21370  0.80320  Biso   1.000  H
  H30      1.0000 0.43340  0.71370  0.69680  Biso   1.000  H
  H31      1.0000 0.93340  0.78630  0.19680  Biso   1.000  H
  H32      1.0000 0.56660  0.28630  0.30320  Biso   1.000  H
  C49      1.0000 0.10310  0.06080  0.74578  Biso   1.000  C
  C50      1.0000 0.39690  0.56080  0.75422  Biso   1.000  C
  C51      1.0000 0.89690  0.93920  0.25422  Biso   1.000  C
  C52      1.0000 0.60310  0.43920  0.24578  Biso   1.000  C
  N13      1.0000 0.31390  0.93530  0.29539  Biso   1.000  N
  N14      1.0000 0.18610  0.43530  0.20461  Biso   1.000  N
  N15      1.0000 0.68610  0.06470  0.70461  Biso   1.000  N
  N16      1.0000 0.81390  0.56470  0.79539  Biso   1.000  N
  H33      1.0000 0.22930  0.92820  0.28180  Biso   1.000  H
  H34      1.0000 0.27070  0.42820  0.21820  Biso   1.000  H
  H35      1.0000 0.77070  0.07180  0.71820  Biso   1.000  H
  H36      1.0000 0.72930  0.57180  0.78180  Biso   1.000  H
  N17      1.0000 0.18640  0.02970  0.70712  Biso   1.000  N
  N18      1.0000 0.31360  0.52970  0.79288  Biso   1.000  N
  N19      1.0000 0.81360  0.97030  0.29288  Biso   1.000  N
  N20      1.0000 0.68640  0.47030  0.20712  Biso   1.000  N
  H37      1.0000 0.27090  0.02880  0.72280  Biso   1.000  H
  H38      1.0000 0.22910  0.52880  0.77720  Biso   1.000  H
  H39      1.0000 0.72910  0.97120  0.27720  Biso   1.000  H
  H40      1.0000 0.77090  0.47120  0.22280  Biso   1.000  H
  C53      1.0000 0.36670  0.93500  0.36789  Biso   1.000  C
  C54      1.0000 0.13330  0.43500  0.13211  Biso   1.000  C
  C55      1.0000 0.63330  0.06500  0.63211  Biso   1.000  C
  C56      1.0000 0.86670  0.56500  0.86789  Biso   1.000  C
  H41      1.0000 0.42670  0.98510  0.37910  Biso   1.000  H
  H42      1.0000 0.07330  0.48510  0.12090  Biso   1.000  H
  H43      1.0000 0.57330  0.01490  0.62090  Biso   1.000  H
  H44      1.0000 0.92670  0.51490  0.87910  Biso   1.000  H
  H45      1.0000 0.41760  0.88100  0.37980  Biso   1.000  H
  H46      1.0000 0.08240  0.38100  0.12020  Biso   1.000  H
  H47      1.0000 0.58240  0.11900  0.62020  Biso   1.000  H
  H48      1.0000 0.91760  0.61900  0.87980  Biso   1.000  H
  C57      1.0000 0.25520  0.94070  0.40829  Biso   1.000  C
  C58      1.0000 0.24480  0.44070  0.09171  Biso   1.000  C
  C59      1.0000 0.74480  0.05930  0.59171  Biso   1.000  C
  C60      1.0000 0.75520  0.55930  0.90829  Biso   1.000  C
  H49      1.0000 0.20000  0.88790  0.39990  Biso   1.000  H
  H50      1.0000 0.30000  0.38790  0.10010  Biso   1.000  H
  H51      1.0000 0.80000  0.11210  0.60010  Biso   1.000  H
  H52      1.0000 0.70000  0.61210  0.89990  Biso   1.000  H
  H53      1.0000 0.19940  0.99160  0.39290  Biso   1.000  H
  H54      1.0000 0.30060  0.49160  0.10710  Biso   1.000  H
  H55      1.0000 0.80060  0.00840  0.60710  Biso   1.000  H
  H56      1.0000 0.69940  0.50840  0.89290  Biso   1.000  H
  C61      1.0000 0.30670  0.94920  0.48411  Biso   1.000  C
  C62      1.0000 0.19330  0.44920  0.01589  Biso   1.000  C
  C63      1.0000 0.69330  0.05080  0.51589  Biso   1.000  C
  C64      1.0000 0.80670  0.55080  0.98411  Biso   1.000  C
  H57      1.0000 0.35790  0.89650  0.49980  Biso   1.000  H
  H58      1.0000 0.14210  0.39650  0.00020  Biso   1.000  H
  H59      1.0000 0.64210  0.10350  0.50020  Biso   1.000  H
  H60      1.0000 0.85790  0.60350  0.99980  Biso   1.000  H
  H61      1.0000 0.36680  0.99970  0.49200  Biso   1.000  H
  H62      1.0000 0.13320  0.49970  0.00800  Biso   1.000  H
  H63      1.0000 0.63320  0.00030  0.50800  Biso   1.000  H
  H64      1.0000 0.86680  0.50030  0.99200  Biso   1.000  H
  C65      1.0000 0.19690  0.96100  0.52555  Biso   1.000  C
  C66      1.0000 0.30310  0.46100  0.97445  Biso   1.000  C
  C67      1.0000 0.80310  0.03900  0.47445  Biso   1.000  C
  C68      1.0000 0.69690  0.53900  0.02555  Biso   1.000  C
  H65      1.0000 0.14640  0.90610  0.52420  Biso   1.000  H
  H66      1.0000 0.35360  0.40610  0.97580  Biso   1.000  H
  H67      1.0000 0.85360  0.09390  0.47580  Biso   1.000  H
  H68      1.0000 0.64640  0.59390  0.02420  Biso   1.000  H
  H69      1.0000 0.13620  0.00700  0.50470  Biso   1.000  H
  H70      1.0000 0.36380  0.50700  0.99530  Biso   1.000  H
  H71      1.0000 0.86380  0.99300  0.49530  Biso   1.000  H
  H72      1.0000 0.63620  0.49300  0.00470  Biso   1.000  H
  C69      1.0000 0.24780  0.98550  0.59897  Biso   1.000  C
  C70      1.0000 0.25220  0.48550  0.90103  Biso   1.000  C
  C71      1.0000 0.75220  0.01450  0.40103  Biso   1.000  C
  C72      1.0000 0.74780  0.51450  0.09897  Biso   1.000  C
  H73      1.0000 0.30800  0.93950  0.62010  Biso   1.000  H
  H74      1.0000 0.19200  0.43950  0.87990  Biso   1.000  H
  H75      1.0000 0.69200  0.06050  0.37990  Biso   1.000  H
  H76      1.0000 0.80800  0.56050  0.12010  Biso   1.000  H
  H77      1.0000 0.29820  0.04040  0.60060  Biso   1.000  H
  H78      1.0000 0.20180  0.54040  0.89940  Biso   1.000  H
  H79      1.0000 0.70180  0.95960  0.39940  Biso   1.000  H
  H80      1.0000 0.79820  0.45960  0.10060  Biso   1.000  H
  C73      1.0000 0.13690  0.99700  0.63867  Biso   1.000  C
  C74      1.0000 0.36310  0.49700  0.86133  Biso   1.000  C
  C75      1.0000 0.86310  0.00300  0.36133  Biso   1.000  C
  C76      1.0000 0.63690  0.50300  0.13867  Biso   1.000  C
  H81      1.0000 0.07160  0.03850  0.61510  Biso   1.000  H
  H82      1.0000 0.42840  0.53850  0.88490  Biso   1.000  H
  H83      1.0000 0.92840  0.96150  0.38490  Biso   1.000  H
  H84      1.0000 0.57160  0.46150  0.11510  Biso   1.000  H
  H85      1.0000 0.09240  0.94050  0.64140  Biso   1.000  H
  H86      1.0000 0.40760  0.44050  0.85860  Biso   1.000  H
  H87      1.0000 0.90760  0.05950  0.35860  Biso   1.000  H
  H88      1.0000 0.59240  0.55950  0.14140  Biso   1.000  H
  C77      1.0000 0.33600  0.17940  0.40700  Biso   1.000  C
  C78      1.0000 0.16400  0.67940  0.09300  Biso   1.000  C
  C79      1.0000 0.66400  0.82060  0.59300  Biso   1.000  C
  C80      1.0000 0.83600  0.32060  0.90700  Biso   1.000  C
  H89      1.0000 0.42410  0.16770  0.42700  Biso   1.000  H
  H90      1.0000 0.07590  0.66770  0.07300  Biso   1.000  H
  H91      1.0000 0.57590  0.83230  0.57300  Biso   1.000  H
  H92      1.0000 0.92410  0.33230  0.92700  Biso   1.000  H
  C81      1.0000 0.23560  0.19890  0.44770  Biso   1.000  C
  C82      1.0000 0.26440  0.69890  0.05230  Biso   1.000  C
  C83      1.0000 0.76440  0.80110  0.55230  Biso   1.000  C
  C84      1.0000 0.73560  0.30110  0.94770  Biso   1.000  C
  H93      1.0000 0.25620  0.19910  0.49490  Biso   1.000  H
  H94      1.0000 0.24380  0.69910  0.00510  Biso   1.000  H
  H95      1.0000 0.74380  0.80090  0.50510  Biso   1.000  H
  H96      1.0000 0.75620  0.30090  0.99490  Biso   1.000  H
  C85      1.0000 0.10880  0.21720  0.41390  Biso   1.000  C
  C86      1.0000 0.39120  0.71720  0.08610  Biso   1.000  C
  C87      1.0000 0.89120  0.78280  0.58610  Biso   1.000  C
  C88      1.0000 0.60880  0.28280  0.91390  Biso   1.000  C
  H97      1.0000 0.04320  0.23070  0.43930  Biso   1.000  H
  H98      1.0000 0.45680  0.73070  0.06070  Biso   1.000  H
  H99      1.0000 0.95680  0.76930  0.56070  Biso   1.000  H
  H100     1.0000 0.54320  0.26930  0.93930  Biso   1.000  H
  C89      1.0000 0.95370  0.20030  0.12910  Biso   1.000  C
  C90      1.0000 0.54630  0.70030  0.37090  Biso   1.000  C
  C91      1.0000 0.04630  0.79970  0.87090  Biso   1.000  C
  C92      1.0000 0.45370  0.29970  0.62910  Biso   1.000  C
  H101     1.0000 0.86400  0.20660  0.10950  Biso   1.000  H
  H102     1.0000 0.63600  0.70660  0.39050  Biso   1.000  H
  H103     1.0000 0.13600  0.79340  0.89050  Biso   1.000  H
  H104     1.0000 0.36400  0.29340  0.60950  Biso   1.000  H
  C93      1.0000 0.05000  0.18510  0.08830  Biso   1.000  C
  C94      1.0000 0.45000  0.68510  0.41170  Biso   1.000  C
  C95      1.0000 0.95000  0.81490  0.91170  Biso   1.000  C
  C96      1.0000 0.55000  0.31490  0.58830  Biso   1.000  C
  H105     1.0000 0.02740  0.18260  0.04120  Biso   1.000  H
  H106     1.0000 0.47260  0.68260  0.45880  Biso   1.000  H
  H107     1.0000 0.97260  0.81740  0.95880  Biso   1.000  H
  H108     1.0000 0.52740  0.31740  0.54120  Biso   1.000  H
  C97      1.0000 0.17950  0.17410  0.12140  Biso   1.000  C
  C98      1.0000 0.32050  0.67410  0.37860  Biso   1.000  C
  C99      1.0000 0.82050  0.82590  0.87860  Biso   1.000  C
  C100     1.0000 0.67950  0.32590  0.62140  Biso   1.000  C
  H109     1.0000 0.24430  0.16360  0.09490  Biso   1.000  H
  H110     1.0000 0.25570  0.66360  0.40510  Biso   1.000  H
  H111     1.0000 0.75570  0.83640  0.90510  Biso   1.000  H
  H112     1.0000 0.74430  0.33640  0.59490  Biso   1.000  H
  C101     1.0000 0.29530  0.17850  0.33530  Biso   1.000  C
  C102     1.0000 0.20470  0.67850  0.16470  Biso   1.000  C
  C103     1.0000 0.70470  0.82150  0.66470  Biso   1.000  C
  C104     1.0000 0.79530  0.32150  0.83530  Biso   1.000  C
  C105     1.0000 0.16410  0.19600  0.30470  Biso   1.000  C
  C106     1.0000 0.33590  0.69600  0.19530  Biso   1.000  C
  C107     1.0000 0.83590  0.80400  0.69530  Biso   1.000  C
  C108     1.0000 0.66410  0.30400  0.80470  Biso   1.000  C
  C109     1.0000 0.07440  0.21650  0.34540  Biso   1.000  C
  C110     1.0000 0.42560  0.71650  0.15460  Biso   1.000  C
  C111     1.0000 0.92560  0.78350  0.65460  Biso   1.000  C
  C112     1.0000 0.57440  0.28350  0.84540  Biso   1.000  C
  C113     1.0000 0.99510  0.20600  0.20160  Biso   1.000  C
  C114     1.0000 0.50490  0.70600  0.29840  Biso   1.000  C
  C115     1.0000 0.00490  0.79400  0.79840  Biso   1.000  C
  C116     1.0000 0.49510  0.29400  0.70160  Biso   1.000  C
  C117     1.0000 0.12870  0.19250  0.22890  Biso   1.000  C
  C118     1.0000 0.37130  0.69250  0.27110  Biso   1.000  C
  C119     1.0000 0.87130  0.80750  0.77110  Biso   1.000  C
  C120     1.0000 0.62870  0.30750  0.72890  Biso   1.000  C
  C121     1.0000 0.22010  0.17730  0.18950  Biso   1.000  C
  C122     1.0000 0.27990  0.67730  0.31050  Biso   1.000  C
  C123     1.0000 0.77990  0.82270  0.81050  Biso   1.000  C
  C124     1.0000 0.72010  0.32270  0.68950  Biso   1.000  C
  C125     1.0000 0.91530  0.22180  0.24340  Biso   1.000  C
  C126     1.0000 0.58470  0.72180  0.25660  Biso   1.000  C
  C127     1.0000 0.08470  0.77820  0.75660  Biso   1.000  C
  C128     1.0000 0.41530  0.27820  0.74340  Biso   1.000  C
  H113     1.0000 0.82450  0.22850  0.22620  Biso   1.000  H
  H114     1.0000 0.67550  0.72850  0.27380  Biso   1.000  H
  H115     1.0000 0.17550  0.77150  0.77380  Biso   1.000  H
  H116     1.0000 0.32450  0.27150  0.72620  Biso   1.000  H
  C129     1.0000 0.33860  0.16320  0.23110  Biso   1.000  C
  C130     1.0000 0.16140  0.66320  0.26890  Biso   1.000  C
  C131     1.0000 0.66140  0.83680  0.76890  Biso   1.000  C
  C132     1.0000 0.83860  0.33680  0.73110  Biso   1.000  C
  H117     1.0000 0.41000  0.15460  0.20850  Biso   1.000  H
  H118     1.0000 0.09000  0.65460  0.29150  Biso   1.000  H
  H119     1.0000 0.59000  0.84540  0.79150  Biso   1.000  H
  H120     1.0000 0.91000  0.34540  0.70850  Biso   1.000  H
  C133     1.0000 0.37040  0.15960  0.29570  Biso   1.000  C
  C134     1.0000 0.12960  0.65960  0.20430  Biso   1.000  C
  C135     1.0000 0.62960  0.84040  0.70430  Biso   1.000  C
  C136     1.0000 0.87040  0.34040  0.79570  Biso   1.000  C
  H121     1.0000 0.45660  0.14120  0.31410  Biso   1.000  H
  H122     1.0000 0.04340  0.64120  0.18590  Biso   1.000  H
  H123     1.0000 0.54340  0.85880  0.68590  Biso   1.000  H
  H124     1.0000 0.95660  0.35880  0.81410  Biso   1.000  H
  C137     1.0000 0.95480  0.22860  0.30720  Biso   1.000  C
  C138     1.0000 0.54520  0.72860  0.19280  Biso   1.000  C
  C139     1.0000 0.04520  0.77140  0.69280  Biso   1.000  C
  C140     1.0000 0.45480  0.27140  0.80720  Biso   1.000  C
  H125     1.0000 0.88830  0.24500  0.33130  Biso   1.000  H
  H126     1.0000 0.61170  0.74500  0.16870  Biso   1.000  H
  H127     1.0000 0.11170  0.75500  0.66870  Biso   1.000  H
  H128     1.0000 0.38830  0.25500  0.83130  Biso   1.000  H
