data_image0
_cell_length_a       9.21
_cell_length_b       10.155
_cell_length_c       15.921
_cell_angle_alpha    93.77
_cell_angle_beta     104.08
_cell_angle_gamma    109.2

_symmetry_space_group_name_H-M    "P 1"
_symmetry_int_tables_number       1

loop_
  _symmetry_equiv_pos_as_xyz
  'x, y, z'

loop_
  _atom_site_label
  _atom_site_occupancy
  _atom_site_fract_x
  _atom_site_fract_y
  _atom_site_fract_z
  _atom_site_thermal_displace_type
  _atom_site_B_iso_or_equiv
  _atom_site_type_symbol
  Cu1      1.0000 0.50000  0.50000  0.00000  Biso   1.000  Cu
  Br1      1.0000 0.04983  0.28396  0.53219  Biso   1.000  Br
  Br2      1.0000 0.95017  0.71604  0.46781  Biso   1.000  Br
  Br3      1.0000 0.49672  0.96696  0.16776  Biso   1.000  Br
  Br4      1.0000 0.50328  0.03304  0.83224  Biso   1.000  Br
  C1       1.0000 0.66170  0.06180  0.27260  Biso   1.000  C
  C2       1.0000 0.33830  0.93820  0.72740  Biso   1.000  C
  C3       1.0000 0.69700  0.20150  0.29830  Biso   1.000  C
  C4       1.0000 0.30300  0.79850  0.70170  Biso   1.000  C
  H1       1.0000 0.64230  0.25080  0.26450  Biso   1.000  H
  H2       1.0000 0.35770  0.74920  0.73550  Biso   1.000  H
  C5       1.0000 0.81450  0.26920  0.37490  Biso   1.000  C
  C6       1.0000 0.18550  0.73080  0.62510  Biso   1.000  C
  H3       1.0000 0.84220  0.36540  0.39280  Biso   1.000  H
  H4       1.0000 0.15780  0.63460  0.60720  Biso   1.000  H
  C7       1.0000 0.89010  0.19270  0.42450  Biso   1.000  C
  C8       1.0000 0.10990  0.80730  0.57550  Biso   1.000  C
  C9       1.0000 0.85210  0.05230  0.39770  Biso   1.000  C
  C10      1.0000 0.14790  0.94770  0.60230  Biso   1.000  C
  H5       1.0000 0.90570  0.00190  0.43120  Biso   1.000  H
  H6       1.0000 0.09430  0.99810  0.56880  Biso   1.000  H
  C11      1.0000 0.73580  0.98590  0.32190  Biso   1.000  C
  C12      1.0000 0.26420  0.01410  0.67810  Biso   1.000  C
  H7       1.0000 0.70730  0.88960  0.30400  Biso   1.000  H
  H8       1.0000 0.29270  0.11040  0.69600  Biso   1.000  H
  S1       1.0000 0.60980  0.53950  0.30043  Biso   1.000  S
  S2       1.0000 0.39020  0.46050  0.69957  Biso   1.000  S
  C13      1.0000 0.53530  0.50680  0.19510  Biso   1.000  C
  C14      1.0000 0.46470  0.49320  0.80490  Biso   1.000  C
  N1       1.0000 0.48450  0.48360  0.11970  Biso   1.000  N
  N2       1.0000 0.51550  0.51640  0.88030  Biso   1.000  N
  O1       1.0000 0.05770  0.76160  0.24390  Biso   1.000  O
  O2       1.0000 0.94230  0.23840  0.75610  Biso   1.000  O
  N3       1.0000 0.66370  0.70250  0.04250  Biso   1.000  N
  N4       1.0000 0.33630  0.29750  0.95750  Biso   1.000  N
  C15      1.0000 0.90360  0.86130  0.14560  Biso   1.000  C
  C16      1.0000 0.09640  0.13870  0.85440  Biso   1.000  C
  C17      1.0000 0.78370  0.73140  0.11530  Biso   1.000  C
  C18      1.0000 0.21630  0.26860  0.88470  Biso   1.000  C
  H9       1.0000 0.78680  0.65900  0.14780  Biso   1.000  H
  H10      1.0000 0.21320  0.34100  0.85220  Biso   1.000  H
  C19      1.0000 0.65930  0.80720  0.99660  Biso   1.000  C
  C20      1.0000 0.34070  0.19280  0.00340  Biso   1.000  C
  H11      1.0000 0.57660  0.78920  0.94540  Biso   1.000  H
  H12      1.0000 0.42340  0.21080  0.05460  Biso   1.000  H
  C21      1.0000 0.77360  0.94130  0.02260  Biso   1.000  C
  C22      1.0000 0.22640  0.05870  0.97740  Biso   1.000  C
  H13      1.0000 0.76760  0.01230  0.98930  Biso   1.000  H
  H14      1.0000 0.23240  0.98770  0.01070  Biso   1.000  H
  C23      1.0000 0.89640  0.96890  0.09800  Biso   1.000  C
  C24      1.0000 0.10360  0.03110  0.90200  Biso   1.000  C
  H15      1.0000 0.97370  0.05900  0.11680  Biso   1.000  H
  H16      1.0000 0.02630  0.94100  0.88320  Biso   1.000  H
  C25      1.0000 0.03740  0.86930  0.22490  Biso   1.000  C
  C26      1.0000 0.96260  0.13070  0.77510  Biso   1.000  C
  O3       1.0000 0.89060  0.72940  0.77650  Biso   1.000  O
  O4       1.0000 0.10940  0.27060  0.22350  Biso   1.000  O
  N5       1.0000 0.27450  0.59750  0.96710  Biso   1.000  N
  N6       1.0000 0.72550  0.40250  0.03290  Biso   1.000  N
  C27      1.0000 0.04230  0.63290  0.87910  Biso   1.000  C
  C28      1.0000 0.95770  0.36710  0.12090  Biso   1.000  C
  C29      1.0000 0.17570  0.59510  0.88930  Biso   1.000  C
  C30      1.0000 0.82430  0.40490  0.11070  Biso   1.000  C
  H17      1.0000 0.19860  0.56600  0.83900  Biso   1.000  H
  H18      1.0000 0.80140  0.43400  0.16100  Biso   1.000  H
  C31      1.0000 0.23990  0.64110  0.03830  Biso   1.000  C
  C32      1.0000 0.76010  0.35890  0.96170  Biso   1.000  C
  H19      1.0000 0.30570  0.64250  0.09320  Biso   1.000  H
  H20      1.0000 0.69430  0.35750  0.90680  Biso   1.000  H
  C33      1.0000 0.11230  0.68400  0.03460  Biso   1.000  C
  C34      1.0000 0.88770  0.31600  0.96540  Biso   1.000  C
  H21      1.0000 0.09390  0.71540  0.08580  Biso   1.000  H
  H22      1.0000 0.90610  0.28460  0.91420  Biso   1.000  H
  C35      1.0000 0.01200  0.67990  0.95410  Biso   1.000  C
  C36      1.0000 0.98800  0.32010  0.04590  Biso   1.000  C
  H23      1.0000 0.92470  0.70840  0.95020  Biso   1.000  H
  H24      1.0000 0.07530  0.29160  0.04980  Biso   1.000  H
  C37      1.0000 0.93430  0.62910  0.79100  Biso   1.000  C
  C38      1.0000 0.06570  0.37090  0.20900  Biso   1.000  C
  N7       1.0000 0.12590  0.99680  0.27120  Biso   1.000  N
  N8       1.0000 0.87410  0.00320  0.72880  Biso   1.000  N
  H25      1.0000 0.10740  0.07010  0.25480  Biso   1.000  H
  H26      1.0000 0.89260  0.92990  0.74520  Biso   1.000  H
  N9       1.0000 0.88820  0.51330  0.73190  Biso   1.000  N
  N10      1.0000 0.11180  0.48670  0.26810  Biso   1.000  N
  H27      1.0000 0.92410  0.44690  0.74540  Biso   1.000  H
  H28      1.0000 0.07590  0.55310  0.25460  Biso   1.000  H
  C39      1.0000 0.25390  0.01150  0.34970  Biso   1.000  C
  C40      1.0000 0.74610  0.98850  0.65030  Biso   1.000  C
  H29      1.0000 0.33080  0.97540  0.33410  Biso   1.000  H
  H30      1.0000 0.66920  0.02460  0.66590  Biso   1.000  H
  H31      1.0000 0.20960  0.95540  0.39060  Biso   1.000  H
  H32      1.0000 0.79040  0.04460  0.60940  Biso   1.000  H
  C41      1.0000 0.33870  0.16350  0.39360  Biso   1.000  C
  C42      1.0000 0.66130  0.83650  0.60640  Biso   1.000  C
  H33      1.0000 0.26100  0.20080  0.40690  Biso   1.000  H
  H34      1.0000 0.73900  0.79920  0.59310  Biso   1.000  H
  H35      1.0000 0.38690  0.21880  0.35350  Biso   1.000  H
  H36      1.0000 0.61310  0.78120  0.64650  Biso   1.000  H
  C43      1.0000 0.46760  0.17880  0.47750  Biso   1.000  C
  C44      1.0000 0.53240  0.82120  0.52250  Biso   1.000  C
  H37      1.0000 0.41800  0.12690  0.51840  Biso   1.000  H
  H38      1.0000 0.58200  0.87310  0.48160  Biso   1.000  H
  H39      1.0000 0.54140  0.13630  0.46450  Biso   1.000  H
  H40      1.0000 0.45860  0.86370  0.53550  Biso   1.000  H
  C45      1.0000 0.56070  0.32950  0.52080  Biso   1.000  C
  C46      1.0000 0.43930  0.67050  0.47920  Biso   1.000  C
  H41      1.0000 0.48600  0.37390  0.53000  Biso   1.000  H
  H42      1.0000 0.51400  0.62610  0.47000  Biso   1.000  H
  H43      1.0000 0.61630  0.37960  0.48140  Biso   1.000  H
  H44      1.0000 0.38370  0.62040  0.51860  Biso   1.000  H
  C47      1.0000 0.68160  0.34520  0.60760  Biso   1.000  C
  C48      1.0000 0.31840  0.65480  0.39240  Biso   1.000  C
  H45      1.0000 0.62580  0.30150  0.64870  Biso   1.000  H
  H46      1.0000 0.37420  0.69850  0.35130  Biso   1.000  H
  H47      1.0000 0.75240  0.29590  0.59950  Biso   1.000  H
  H48      1.0000 0.24760  0.70410  0.40050  Biso   1.000  H
  C49      1.0000 0.77880  0.49580  0.64520  Biso   1.000  C
  C50      1.0000 0.22120  0.50420  0.35480  Biso   1.000  C
  H49      1.0000 0.84020  0.53750  0.60580  Biso   1.000  H
  H50      1.0000 0.15980  0.46250  0.39420  Biso   1.000  H
  H51      1.0000 0.70730  0.54650  0.64910  Biso   1.000  H
  H52      1.0000 0.29270  0.45350  0.35090  Biso   1.000  H
