data_image0
_cell_length_a       7.9546
_cell_length_b       13.866
_cell_length_c       7.4888
_cell_angle_alpha    90
_cell_angle_beta     94.4
_cell_angle_gamma    90

_symmetry_space_group_name_H-M    "P 1"
_symmetry_int_tables_number       1

loop_
  _symmetry_equiv_pos_as_xyz
  'x, y, z'

loop_
  _atom_site_label
  _atom_site_occupancy
  _atom_site_fract_x
  _atom_site_fract_y
  _atom_site_fract_z
  _atom_site_thermal_displace_type
  _atom_site_B_iso_or_equiv
  _atom_site_type_symbol
  Cu1      1.0000 0.30284  0.41482  0.93776  Biso   1.000  Cu
  Cu2      1.0000 0.69716  0.91482  0.56224  Biso   1.000  Cu
  Cu3      1.0000 0.69716  0.58518  0.06224  Biso   1.000  Cu
  Cu4      1.0000 0.30284  0.08518  0.43776  Biso   1.000  Cu
  O1       1.0000 0.39150  0.33668  0.69140  Biso   1.000  O
  O2       1.0000 0.60850  0.83668  0.80860  Biso   1.000  O
  O3       1.0000 0.60850  0.66332  0.30860  Biso   1.000  O
  O4       1.0000 0.39150  0.16332  0.19140  Biso   1.000  O
  N1       1.0000 0.08120  0.45758  0.81160  Biso   1.000  N
  N2       1.0000 0.91880  0.95758  0.68840  Biso   1.000  N
  N3       1.0000 0.91880  0.54242  0.18840  Biso   1.000  N
  N4       1.0000 0.08120  0.04242  0.31160  Biso   1.000  N
  N5       1.0000 0.35630  0.54664  0.87680  Biso   1.000  N
  N6       1.0000 0.64370  0.04664  0.62320  Biso   1.000  N
  N7       1.0000 0.64370  0.45336  0.12320  Biso   1.000  N
  N8       1.0000 0.35630  0.95336  0.37680  Biso   1.000  N
  N9       1.0000 0.50540  0.39994  0.09100  Biso   1.000  N
  N10      1.0000 0.49460  0.89994  0.40900  Biso   1.000  N
  N11      1.0000 0.49460  0.60006  0.90900  Biso   1.000  N
  N12      1.0000 0.50540  0.10006  0.59100  Biso   1.000  N
  O5       1.0000 0.25750  0.28400  0.04150  Biso   1.000  O
  O6       1.0000 0.74250  0.78400  0.45850  Biso   1.000  O
  O7       1.0000 0.74250  0.71600  0.95850  Biso   1.000  O
  O8       1.0000 0.25750  0.21600  0.54150  Biso   1.000  O
  C1       1.0000 0.93950  0.40520  0.79200  Biso   1.000  C
  C2       1.0000 0.06050  0.90520  0.70800  Biso   1.000  C
  C3       1.0000 0.06050  0.59480  0.20800  Biso   1.000  C
  C4       1.0000 0.93950  0.09480  0.29200  Biso   1.000  C
  C5       1.0000 0.08050  0.54780  0.74230  Biso   1.000  C
  C6       1.0000 0.91950  0.04780  0.75770  Biso   1.000  C
  C7       1.0000 0.91950  0.45220  0.25770  Biso   1.000  C
  C8       1.0000 0.08050  0.95220  0.24230  Biso   1.000  C
  C9       1.0000 0.24200  0.59820  0.77600  Biso   1.000  C
  C10      1.0000 0.75800  0.09820  0.72400  Biso   1.000  C
  C11      1.0000 0.75800  0.40180  0.22400  Biso   1.000  C
  C12      1.0000 0.24200  0.90180  0.27600  Biso   1.000  C
  H1       1.0000 0.94060  0.34290  0.83830  Biso   1.000  H
  H2       1.0000 0.05940  0.84290  0.66170  Biso   1.000  H
  H3       1.0000 0.05940  0.65710  0.16170  Biso   1.000  H
  H4       1.0000 0.94060  0.15710  0.33830  Biso   1.000  H
  C13      1.0000 0.79220  0.43960  0.70630  Biso   1.000  C
  C14      1.0000 0.20780  0.93960  0.79370  Biso   1.000  C
  C15      1.0000 0.20780  0.56040  0.29370  Biso   1.000  C
  C16      1.0000 0.79220  0.06040  0.20630  Biso   1.000  C
  C17      1.0000 0.93650  0.58630  0.65420  Biso   1.000  C
  C18      1.0000 0.06350  0.08630  0.84580  Biso   1.000  C
  C19      1.0000 0.06350  0.41370  0.34580  Biso   1.000  C
  C20      1.0000 0.93650  0.91370  0.15420  Biso   1.000  C
  C21      1.0000 0.47080  0.68550  0.82800  Biso   1.000  C
  C22      1.0000 0.52920  0.18550  0.67200  Biso   1.000  C
  C23      1.0000 0.52920  0.31450  0.17200  Biso   1.000  C
  C24      1.0000 0.47080  0.81450  0.32800  Biso   1.000  C
  C25      1.0000 0.31100  0.68720  0.73890  Biso   1.000  C
  C26      1.0000 0.68900  0.18720  0.76110  Biso   1.000  C
  C27      1.0000 0.68900  0.31280  0.26110  Biso   1.000  C
  C28      1.0000 0.31100  0.81280  0.23890  Biso   1.000  C
  C29      1.0000 0.79170  0.53120  0.63600  Biso   1.000  C
  C30      1.0000 0.20830  0.03120  0.86400  Biso   1.000  C
  C31      1.0000 0.20830  0.46880  0.36400  Biso   1.000  C
  C32      1.0000 0.79170  0.96880  0.13600  Biso   1.000  C
  H5       1.0000 0.69540  0.40180  0.69610  Biso   1.000  H
  H6       1.0000 0.30460  0.90180  0.80390  Biso   1.000  H
  H7       1.0000 0.30460  0.59820  0.30390  Biso   1.000  H
  H8       1.0000 0.69540  0.09820  0.19610  Biso   1.000  H
  H9       1.0000 0.93740  0.64850  0.60780  Biso   1.000  H
  H10      1.0000 0.06260  0.14850  0.89220  Biso   1.000  H
  H11      1.0000 0.06260  0.35150  0.39220  Biso   1.000  H
  H12      1.0000 0.93740  0.85150  0.10780  Biso   1.000  H
  C33      1.0000 0.61700  0.75270  0.86430  Biso   1.000  C
  C34      1.0000 0.38300  0.25270  0.63570  Biso   1.000  C
  C35      1.0000 0.38300  0.24730  0.13570  Biso   1.000  C
  C36      1.0000 0.61700  0.74730  0.36430  Biso   1.000  C
  H13      1.0000 0.26140  0.73690  0.67000  Biso   1.000  H
  H14      1.0000 0.73860  0.23690  0.83000  Biso   1.000  H
  H15      1.0000 0.73860  0.26310  0.33000  Biso   1.000  H
  H16      1.0000 0.26140  0.76310  0.17000  Biso   1.000  H
  H17      1.0000 0.69420  0.55590  0.57650  Biso   1.000  H
  H18      1.0000 0.30580  0.05590  0.92350  Biso   1.000  H
  H19      1.0000 0.30580  0.44410  0.42350  Biso   1.000  H
  H20      1.0000 0.69420  0.94410  0.07650  Biso   1.000  H
