data_image0
_cell_length_a       14.593
_cell_length_b       9.409
_cell_length_c       14.649
_cell_angle_alpha    90
_cell_angle_beta     92.31
_cell_angle_gamma    90

_symmetry_space_group_name_H-M    "P 1"
_symmetry_int_tables_number       1

loop_
  _symmetry_equiv_pos_as_xyz
  'x, y, z'

loop_
  _atom_site_label
  _atom_site_occupancy
  _atom_site_fract_x
  _atom_site_fract_y
  _atom_site_fract_z
  _atom_site_thermal_displace_type
  _atom_site_B_iso_or_equiv
  _atom_site_type_symbol
  Cu1      1.0000 0.32845  0.13764  0.27762  Biso   1.000  Cu
  Cu2      1.0000 0.17155  0.63764  0.22238  Biso   1.000  Cu
  Cu3      1.0000 0.67155  0.86236  0.72238  Biso   1.000  Cu
  Cu4      1.0000 0.82845  0.36236  0.77762  Biso   1.000  Cu
  S1       1.0000 0.58680  0.63670  0.29147  Biso   1.000  S
  S2       1.0000 0.91320  0.13670  0.20853  Biso   1.000  S
  S3       1.0000 0.41320  0.36330  0.70853  Biso   1.000  S
  S4       1.0000 0.08680  0.86330  0.79147  Biso   1.000  S
  F1       1.0000 0.66910  0.41470  0.32880  Biso   1.000  F
  F2       1.0000 0.83090  0.91470  0.17120  Biso   1.000  F
  F3       1.0000 0.33090  0.58530  0.67120  Biso   1.000  F
  F4       1.0000 0.16910  0.08530  0.82880  Biso   1.000  F
  F5       1.0000 0.74330  0.55990  0.23780  Biso   1.000  F
  F6       1.0000 0.75670  0.05990  0.26220  Biso   1.000  F
  F7       1.0000 0.25670  0.44010  0.76220  Biso   1.000  F
  F8       1.0000 0.24330  0.94010  0.73780  Biso   1.000  F
  F9       1.0000 0.74240  0.59670  0.38610  Biso   1.000  F
  F10      1.0000 0.75760  0.09670  0.11390  Biso   1.000  F
  F11      1.0000 0.25760  0.40330  0.61390  Biso   1.000  F
  F12      1.0000 0.24240  0.90330  0.88610  Biso   1.000  F
  O1       1.0000 0.29290  0.36640  0.25750  Biso   1.000  O
  O2       1.0000 0.20710  0.86640  0.24250  Biso   1.000  O
  O3       1.0000 0.70710  0.63360  0.74250  Biso   1.000  O
  O4       1.0000 0.79290  0.13360  0.75750  Biso   1.000  O
  O5       1.0000 0.26030  0.57810  0.31680  Biso   1.000  O
  O6       1.0000 0.23970  0.07810  0.18320  Biso   1.000  O
  O7       1.0000 0.73970  0.42190  0.68320  Biso   1.000  O
  O8       1.0000 0.76030  0.92190  0.81680  Biso   1.000  O
  O9       1.0000 0.62320  0.80170  0.26900  Biso   1.000  O
  O10      1.0000 0.87680  0.30170  0.23100  Biso   1.000  O
  O11      1.0000 0.37680  0.19830  0.73100  Biso   1.000  O
  O12      1.0000 0.12320  0.69830  0.76900  Biso   1.000  O
  O13      1.0000 0.38000  0.81710  0.38050  Biso   1.000  O
  O14      1.0000 0.12000  0.31710  0.11950  Biso   1.000  O
  O15      1.0000 0.62000  0.18290  0.61950  Biso   1.000  O
  O16      1.0000 0.88000  0.68290  0.88050  Biso   1.000  O
  N1       1.0000 0.24830  0.11860  0.38320  Biso   1.000  N
  N2       1.0000 0.25170  0.61860  0.11680  Biso   1.000  N
  N3       1.0000 0.75170  0.88140  0.61680  Biso   1.000  N
  N4       1.0000 0.74830  0.38140  0.88320  Biso   1.000  N
  N5       1.0000 0.42570  0.18240  0.37600  Biso   1.000  N
  N6       1.0000 0.07430  0.68240  0.12400  Biso   1.000  N
  N7       1.0000 0.57430  0.81760  0.62400  Biso   1.000  N
  N8       1.0000 0.92570  0.31760  0.87600  Biso   1.000  N
  N9       1.0000 0.43420  0.11280  0.19000  Biso   1.000  N
  N10      1.0000 0.06580  0.61280  0.31000  Biso   1.000  N
  N11      1.0000 0.56580  0.88720  0.81000  Biso   1.000  N
  N12      1.0000 0.93420  0.38720  0.69000  Biso   1.000  N
  C1       1.0000 0.15580  0.11510  0.37980  Biso   1.000  C
  C2       1.0000 0.34420  0.61510  0.12020  Biso   1.000  C
  C3       1.0000 0.84420  0.88490  0.62020  Biso   1.000  C
  C4       1.0000 0.65580  0.38490  0.87980  Biso   1.000  C
  H1       1.0000 0.12450  0.12330  0.32340  Biso   1.000  H
  H2       1.0000 0.37550  0.62330  0.17660  Biso   1.000  H
  H3       1.0000 0.87550  0.87670  0.67660  Biso   1.000  H
  H4       1.0000 0.62450  0.37670  0.82340  Biso   1.000  H
  C5       1.0000 0.10690  0.10000  0.45610  Biso   1.000  C
  C6       1.0000 0.39310  0.60000  0.04390  Biso   1.000  C
  C7       1.0000 0.89310  0.90000  0.54390  Biso   1.000  C
  C8       1.0000 0.60690  0.40000  0.95610  Biso   1.000  C
  H5       1.0000 0.04320  0.09550  0.45180  Biso   1.000  H
  H6       1.0000 0.45680  0.59550  0.04820  Biso   1.000  H
  H7       1.0000 0.95680  0.90450  0.54820  Biso   1.000  H
  H8       1.0000 0.54320  0.40450  0.95180  Biso   1.000  H
  C9       1.0000 0.15250  0.09140  0.53950  Biso   1.000  C
  C10      1.0000 0.34750  0.59140  0.96050  Biso   1.000  C
  C11      1.0000 0.84750  0.90860  0.46050  Biso   1.000  C
  C12      1.0000 0.65250  0.40860  0.03950  Biso   1.000  C
  H9       1.0000 0.11960  0.08190  0.59220  Biso   1.000  H
  H10      1.0000 0.38040  0.58190  0.90780  Biso   1.000  H
  H11      1.0000 0.88040  0.91810  0.40780  Biso   1.000  H
  H12      1.0000 0.61960  0.41810  0.09220  Biso   1.000  H
  C13      1.0000 0.24700  0.09690  0.54560  Biso   1.000  C
  C14      1.0000 0.25300  0.59690  0.95440  Biso   1.000  C
  C15      1.0000 0.75300  0.90310  0.45440  Biso   1.000  C
  C16      1.0000 0.74700  0.40310  0.04560  Biso   1.000  C
  H13      1.0000 0.27900  0.09150  0.60170  Biso   1.000  H
  H14      1.0000 0.22100  0.59150  0.89830  Biso   1.000  H
  H15      1.0000 0.72100  0.90850  0.39830  Biso   1.000  H
  H16      1.0000 0.77900  0.40850  0.10170  Biso   1.000  H
  C17      1.0000 0.29250  0.11080  0.46440  Biso   1.000  C
  C18      1.0000 0.20750  0.61080  0.03560  Biso   1.000  C
  C19      1.0000 0.70750  0.88920  0.53560  Biso   1.000  C
  C20      1.0000 0.79250  0.38920  0.96440  Biso   1.000  C
  C21      1.0000 0.39680  0.11530  0.46210  Biso   1.000  C
  C22      1.0000 0.10320  0.61530  0.03790  Biso   1.000  C
  C23      1.0000 0.60320  0.88470  0.53790  Biso   1.000  C
  C24      1.0000 0.89680  0.38470  0.96210  Biso   1.000  C
  H17      1.0000 0.42140  0.16900  0.51400  Biso   1.000  H
  H18      1.0000 0.07860  0.66900  0.98600  Biso   1.000  H
  H19      1.0000 0.57860  0.83100  0.48600  Biso   1.000  H
  H20      1.0000 0.92140  0.33100  0.01400  Biso   1.000  H
  H21      1.0000 0.42110  0.01940  0.46640  Biso   1.000  H
  H22      1.0000 0.07890  0.51940  0.03360  Biso   1.000  H
  H23      1.0000 0.57890  0.98060  0.53360  Biso   1.000  H
  H24      1.0000 0.92110  0.48060  0.96640  Biso   1.000  H
  C25      1.0000 0.51040  0.11240  0.34350  Biso   1.000  C
  C26      1.0000 0.98960  0.61240  0.15650  Biso   1.000  C
  C27      1.0000 0.48960  0.88760  0.65650  Biso   1.000  C
  C28      1.0000 0.01040  0.38760  0.84350  Biso   1.000  C
  H25      1.0000 0.50560  0.01010  0.35060  Biso   1.000  H
  H26      1.0000 0.99440  0.51010  0.14940  Biso   1.000  H
  H27      1.0000 0.49440  0.98990  0.64940  Biso   1.000  H
  H28      1.0000 0.00560  0.48990  0.85060  Biso   1.000  H
  H29      1.0000 0.56350  0.14490  0.37970  Biso   1.000  H
  H30      1.0000 0.93650  0.64490  0.12030  Biso   1.000  H
  H31      1.0000 0.43650  0.85510  0.62030  Biso   1.000  H
  H32      1.0000 0.06350  0.35510  0.87970  Biso   1.000  H
  C29      1.0000 0.52170  0.14940  0.24310  Biso   1.000  C
  C30      1.0000 0.97830  0.64940  0.25690  Biso   1.000  C
  C31      1.0000 0.47830  0.85060  0.75690  Biso   1.000  C
  C32      1.0000 0.02170  0.35060  0.74310  Biso   1.000  C
  H33      1.0000 0.53470  0.25000  0.23700  Biso   1.000  H
  H34      1.0000 0.96530  0.75000  0.26300  Biso   1.000  H
  H35      1.0000 0.46530  0.75000  0.76300  Biso   1.000  H
  H36      1.0000 0.03470  0.25000  0.73700  Biso   1.000  H
  H37      1.0000 0.57240  0.09620  0.21940  Biso   1.000  H
  H38      1.0000 0.92760  0.59620  0.28060  Biso   1.000  H
  H39      1.0000 0.42760  0.90380  0.78060  Biso   1.000  H
  H40      1.0000 0.07240  0.40380  0.71940  Biso   1.000  H
  C33      1.0000 0.42270  0.20760  0.11050  Biso   1.000  C
  C34      1.0000 0.07730  0.70760  0.38950  Biso   1.000  C
  C35      1.0000 0.57730  0.79240  0.88950  Biso   1.000  C
  C36      1.0000 0.92270  0.29240  0.61050  Biso   1.000  C
  H41      1.0000 0.42140  0.30450  0.13080  Biso   1.000  H
  H42      1.0000 0.07860  0.80450  0.36920  Biso   1.000  H
  H43      1.0000 0.57860  0.69550  0.86920  Biso   1.000  H
  H44      1.0000 0.92140  0.19550  0.63080  Biso   1.000  H
  H45      1.0000 0.36630  0.18550  0.07760  Biso   1.000  H
  H46      1.0000 0.13370  0.68550  0.42240  Biso   1.000  H
  H47      1.0000 0.63370  0.81450  0.92240  Biso   1.000  H
  H48      1.0000 0.86630  0.31450  0.57760  Biso   1.000  H
  H49      1.0000 0.47310  0.19460  0.07110  Biso   1.000  H
  H50      1.0000 0.02690  0.69460  0.42890  Biso   1.000  H
  H51      1.0000 0.52690  0.80540  0.92890  Biso   1.000  H
  H52      1.0000 0.97310  0.30540  0.57110  Biso   1.000  H
  C37      1.0000 0.43800  0.96350  0.16130  Biso   1.000  C
  C38      1.0000 0.06200  0.46350  0.33870  Biso   1.000  C
  C39      1.0000 0.56200  0.03650  0.83870  Biso   1.000  C
  C40      1.0000 0.93800  0.53650  0.66130  Biso   1.000  C
  H53      1.0000 0.44570  0.90390  0.21430  Biso   1.000  H
  H54      1.0000 0.05430  0.40390  0.28570  Biso   1.000  H
  H55      1.0000 0.55430  0.09610  0.78570  Biso   1.000  H
  H56      1.0000 0.94570  0.59610  0.71430  Biso   1.000  H
  H57      1.0000 0.48880  0.95010  0.12260  Biso   1.000  H
  H58      1.0000 0.01120  0.45010  0.37740  Biso   1.000  H
  H59      1.0000 0.51120  0.04990  0.87740  Biso   1.000  H
  H60      1.0000 0.98880  0.54990  0.62260  Biso   1.000  H
  H61      1.0000 0.38210  0.93890  0.12840  Biso   1.000  H
  H62      1.0000 0.11790  0.43890  0.37160  Biso   1.000  H
  H63      1.0000 0.61790  0.06110  0.87160  Biso   1.000  H
  H64      1.0000 0.88210  0.56110  0.62840  Biso   1.000  H
  C41      1.0000 0.44380  0.33520  0.39010  Biso   1.000  C
  C42      1.0000 0.05620  0.83520  0.10990  Biso   1.000  C
  C43      1.0000 0.55620  0.66480  0.60990  Biso   1.000  C
  C44      1.0000 0.94380  0.16480  0.89010  Biso   1.000  C
  H65      1.0000 0.47490  0.37120  0.33760  Biso   1.000  H
  H66      1.0000 0.02510  0.87120  0.16240  Biso   1.000  H
  H67      1.0000 0.52510  0.62880  0.66240  Biso   1.000  H
  H68      1.0000 0.97490  0.12880  0.83760  Biso   1.000  H
  H69      1.0000 0.48530  0.34590  0.44300  Biso   1.000  H
  H70      1.0000 0.01470  0.84590  0.05700  Biso   1.000  H
  H71      1.0000 0.51470  0.65410  0.55700  Biso   1.000  H
  H72      1.0000 0.98530  0.15410  0.94300  Biso   1.000  H
  C45      1.0000 0.35880  0.42710  0.40410  Biso   1.000  C
  C46      1.0000 0.14120  0.92710  0.09590  Biso   1.000  C
  C47      1.0000 0.64120  0.57290  0.59590  Biso   1.000  C
  C48      1.0000 0.85880  0.07290  0.90410  Biso   1.000  C
  H73      1.0000 0.32110  0.38040  0.44820  Biso   1.000  H
  H74      1.0000 0.17890  0.88040  0.05180  Biso   1.000  H
  H75      1.0000 0.67890  0.61960  0.55180  Biso   1.000  H
  H76      1.0000 0.82110  0.11960  0.94820  Biso   1.000  H
  H77      1.0000 0.37860  0.51720  0.43030  Biso   1.000  H
  H78      1.0000 0.12140  0.01720  0.06970  Biso   1.000  H
  H79      1.0000 0.62140  0.48280  0.56970  Biso   1.000  H
  H80      1.0000 0.87860  0.98280  0.93030  Biso   1.000  H
  C49      1.0000 0.30010  0.45640  0.31840  Biso   1.000  C
  C50      1.0000 0.19990  0.95640  0.18160  Biso   1.000  C
  C51      1.0000 0.69990  0.54360  0.68160  Biso   1.000  C
  C52      1.0000 0.80010  0.04360  0.81840  Biso   1.000  C
  C53      1.0000 0.68670  0.54510  0.31560  Biso   1.000  C
  C54      1.0000 0.81330  0.04510  0.18440  Biso   1.000  C
  C55      1.0000 0.31330  0.45490  0.68440  Biso   1.000  C
  C56      1.0000 0.18670  0.95490  0.81560  Biso   1.000  C
  O17      1.0000 0.54390  0.55400  0.22200  Biso   1.000  O
  O18      1.0000 0.95610  0.05400  0.27800  Biso   1.000  O
  O19      1.0000 0.45610  0.44600  0.77800  Biso   1.000  O
  O20      1.0000 0.04390  0.94600  0.72200  Biso   1.000  O
  O21      1.0000 0.54390  0.63500  0.37810  Biso   1.000  O
  O22      1.0000 0.95610  0.13500  0.12190  Biso   1.000  O
  O23      1.0000 0.45610  0.36500  0.62190  Biso   1.000  O
  O24      1.0000 0.04390  0.86500  0.87810  Biso   1.000  O
  H81      1.0000 0.42000  0.77800  0.36100  Biso   1.000  H
  H82      1.0000 0.08000  0.27800  0.13900  Biso   1.000  H
  H83      1.0000 0.58000  0.22200  0.63900  Biso   1.000  H
  H84      1.0000 0.92000  0.72200  0.86100  Biso   1.000  H
  H85      1.0000 0.32500  0.74700  0.35300  Biso   1.000  H
  H86      1.0000 0.17500  0.24700  0.14700  Biso   1.000  H
  H87      1.0000 0.67500  0.25300  0.64700  Biso   1.000  H
  H88      1.0000 0.82500  0.75300  0.85300  Biso   1.000  H
  O25      1.0000 0.61900  0.59000  0.37200  Biso   1.000  O
  O26      1.0000 0.88100  0.09000  0.12800  Biso   1.000  O
  O27      1.0000 0.38100  0.41000  0.62800  Biso   1.000  O
  O28      1.0000 0.11900  0.91000  0.87200  Biso   1.000  O
  O29      1.0000 0.49590  0.65500  0.27800  Biso   1.000  O
  O30      1.0000 0.00410  0.15500  0.22200  Biso   1.000  O
  O31      1.0000 0.50410  0.34500  0.72200  Biso   1.000  O
  O32      1.0000 0.99590  0.84500  0.77800  Biso   1.000  O
