data_image0
_cell_length_a       12.4262
_cell_length_b       5.5969
_cell_length_c       15.988
_cell_angle_alpha    90
_cell_angle_beta     102.028
_cell_angle_gamma    90

_symmetry_space_group_name_H-M    "P 1"
_symmetry_int_tables_number       1

loop_
  _symmetry_equiv_pos_as_xyz
  'x, y, z'

loop_
  _atom_site_label
  _atom_site_occupancy
  _atom_site_fract_x
  _atom_site_fract_y
  _atom_site_fract_z
  _atom_site_thermal_displace_type
  _atom_site_B_iso_or_equiv
  _atom_site_type_symbol
  Cu1      1.0000 0.00000  0.00000  0.00000  Biso   1.000  Cu
  Cu2      1.0000 0.00000  0.50000  0.50000  Biso   1.000  Cu
  C1       1.0000 0.52310  0.41230  0.53433  Biso   1.000  C
  C2       1.0000 0.47690  0.91230  0.96567  Biso   1.000  C
  C3       1.0000 0.47690  0.58770  0.46567  Biso   1.000  C
  C4       1.0000 0.52310  0.08770  0.03433  Biso   1.000  C
  C5       1.0000 0.63280  0.41250  0.57449  Biso   1.000  C
  C6       1.0000 0.36720  0.91250  0.92551  Biso   1.000  C
  C7       1.0000 0.36720  0.58750  0.42551  Biso   1.000  C
  C8       1.0000 0.63280  0.08750  0.07449  Biso   1.000  C
  H1       1.0000 0.67940  0.52660  0.55890  Biso   1.000  H
  H2       1.0000 0.32060  0.02660  0.94110  Biso   1.000  H
  H3       1.0000 0.32060  0.47340  0.44110  Biso   1.000  H
  H4       1.0000 0.67940  0.97340  0.05890  Biso   1.000  H
  C9       1.0000 0.67530  0.24850  0.63698  Biso   1.000  C
  C10      1.0000 0.32470  0.74850  0.86302  Biso   1.000  C
  C11      1.0000 0.32470  0.75150  0.36302  Biso   1.000  C
  C12      1.0000 0.67530  0.25150  0.13698  Biso   1.000  C
  H5       1.0000 0.74980  0.25310  0.66210  Biso   1.000  H
  H6       1.0000 0.25020  0.75310  0.83790  Biso   1.000  H
  H7       1.0000 0.25020  0.74690  0.33790  Biso   1.000  H
  H8       1.0000 0.74980  0.24690  0.16210  Biso   1.000  H
  C13      1.0000 0.60950  0.07890  0.66265  Biso   1.000  C
  C14      1.0000 0.39050  0.57890  0.83735  Biso   1.000  C
  C15      1.0000 0.39050  0.92110  0.33735  Biso   1.000  C
  C16      1.0000 0.60950  0.42110  0.16265  Biso   1.000  C
  C17      1.0000 0.50030  0.07580  0.62390  Biso   1.000  C
  C18      1.0000 0.49970  0.57580  0.87610  Biso   1.000  C
  C19      1.0000 0.49970  0.92420  0.37610  Biso   1.000  C
  C20      1.0000 0.50030  0.42420  0.12390  Biso   1.000  C
  H9       1.0000 0.45410  0.96230  0.64030  Biso   1.000  H
  H10      1.0000 0.54590  0.46230  0.85970  Biso   1.000  H
  H11      1.0000 0.54590  0.03770  0.35970  Biso   1.000  H
  H12      1.0000 0.45410  0.53770  0.14030  Biso   1.000  H
  C21      1.0000 0.45740  0.23900  0.56052  Biso   1.000  C
  C22      1.0000 0.54260  0.73900  0.93948  Biso   1.000  C
  C23      1.0000 0.54260  0.76100  0.43948  Biso   1.000  C
  C24      1.0000 0.45740  0.26100  0.06052  Biso   1.000  C
  H13      1.0000 0.38300  0.23220  0.53500  Biso   1.000  H
  H14      1.0000 0.61700  0.73220  0.96500  Biso   1.000  H
  H15      1.0000 0.61700  0.76780  0.46500  Biso   1.000  H
  H16      1.0000 0.38300  0.26780  0.03500  Biso   1.000  H
  C25      1.0000 0.65330  0.89020  0.72815  Biso   1.000  C
  C26      1.0000 0.34670  0.39020  0.77185  Biso   1.000  C
  C27      1.0000 0.34670  0.10980  0.27185  Biso   1.000  C
  C28      1.0000 0.65330  0.60980  0.22815  Biso   1.000  C
  H17      1.0000 0.59200  0.80980  0.74490  Biso   1.000  H
  H18      1.0000 0.40800  0.30980  0.75510  Biso   1.000  H
  H19      1.0000 0.40800  0.19020  0.25510  Biso   1.000  H
  H20      1.0000 0.59200  0.69020  0.24490  Biso   1.000  H
  H21      1.0000 0.69360  0.77220  0.70250  Biso   1.000  H
  H22      1.0000 0.30640  0.27220  0.79750  Biso   1.000  H
  H23      1.0000 0.30640  0.22780  0.29750  Biso   1.000  H
  H24      1.0000 0.69360  0.72780  0.20250  Biso   1.000  H
  C29      1.0000 0.77660  0.20050  0.91160  Biso   1.000  C
  C30      1.0000 0.22340  0.70050  0.58840  Biso   1.000  C
  C31      1.0000 0.22340  0.79950  0.08840  Biso   1.000  C
  C32      1.0000 0.77660  0.29950  0.41160  Biso   1.000  C
  H25      1.0000 0.77900  0.31910  0.95260  Biso   1.000  H
  H26      1.0000 0.22100  0.81910  0.54740  Biso   1.000  H
  H27      1.0000 0.22100  0.68090  0.04740  Biso   1.000  H
  H28      1.0000 0.77900  0.18090  0.45260  Biso   1.000  H
  C33      1.0000 0.82040  0.90710  0.84556  Biso   1.000  C
  C34      1.0000 0.17960  0.40710  0.65444  Biso   1.000  C
  C35      1.0000 0.17960  0.09290  0.15444  Biso   1.000  C
  C36      1.0000 0.82040  0.59290  0.34556  Biso   1.000  C
  H29      1.0000 0.85710  0.77680  0.82850  Biso   1.000  H
  H30      1.0000 0.14290  0.27680  0.67150  Biso   1.000  H
  H31      1.0000 0.14290  0.22320  0.17150  Biso   1.000  H
  H32      1.0000 0.85710  0.72320  0.32850  Biso   1.000  H
  C37      1.0000 0.06140  0.54290  0.91088  Biso   1.000  C
  C38      1.0000 0.93860  0.04290  0.58912  Biso   1.000  C
  C39      1.0000 0.93860  0.45710  0.08912  Biso   1.000  C
  C40      1.0000 0.06140  0.95710  0.41088  Biso   1.000  C
  N1       1.0000 0.72550  0.98810  0.80410  Biso   1.000  N
  N2       1.0000 0.27450  0.48810  0.69590  Biso   1.000  N
  N3       1.0000 0.27450  0.01190  0.19590  Biso   1.000  N
  N4       1.0000 0.72550  0.51190  0.30410  Biso   1.000  N
  N5       1.0000 0.69550  0.17890  0.84588  Biso   1.000  N
  N6       1.0000 0.30450  0.67890  0.65412  Biso   1.000  N
  N7       1.0000 0.30450  0.82110  0.15412  Biso   1.000  N
  N8       1.0000 0.69550  0.32110  0.34588  Biso   1.000  N
  N9       1.0000 0.85730  0.03590  0.91511  Biso   1.000  N
  N10      1.0000 0.14270  0.53590  0.58489  Biso   1.000  N
  N11      1.0000 0.14270  0.96410  0.08489  Biso   1.000  N
  N12      1.0000 0.85730  0.46410  0.41511  Biso   1.000  N
  N13      1.0000 0.03640  0.72090  0.93760  Biso   1.000  N
  N14      1.0000 0.96360  0.22090  0.56240  Biso   1.000  N
  N15      1.0000 0.96360  0.27910  0.06240  Biso   1.000  N
  N16      1.0000 0.03640  0.77910  0.43760  Biso   1.000  N
  S1       1.0000 0.09711  0.28982  0.87573  Biso   1.000  S
  S2       1.0000 0.90289  0.78982  0.62427  Biso   1.000  S
  S3       1.0000 0.90289  0.71018  0.12427  Biso   1.000  S
  S4       1.0000 0.09711  0.21018  0.37573  Biso   1.000  S
