data_image0
_cell_length_a       11.633
_cell_length_b       9.6005
_cell_length_c       6.923
_cell_angle_alpha    90
_cell_angle_beta     106.01
_cell_angle_gamma    90

_symmetry_space_group_name_H-M    "P 1"
_symmetry_int_tables_number       1

loop_
  _symmetry_equiv_pos_as_xyz
  'x, y, z'

loop_
  _atom_site_label
  _atom_site_occupancy
  _atom_site_fract_x
  _atom_site_fract_y
  _atom_site_fract_z
  _atom_site_thermal_displace_type
  _atom_site_B_iso_or_equiv
  _atom_site_type_symbol
  Cu1      1.0000 0.50000  0.00000  0.50000  Biso   1.000  Cu
  Cu2      1.0000 0.50000  0.50000  0.00000  Biso   1.000  Cu
  N1       1.0000 0.63450  0.13210  0.59070  Biso   1.000  N
  N2       1.0000 0.63450  0.36790  0.09070  Biso   1.000  N
  N3       1.0000 0.36550  0.86790  0.40930  Biso   1.000  N
  N4       1.0000 0.36550  0.63210  0.90930  Biso   1.000  N
  N5       1.0000 0.24760  0.86130  0.38210  Biso   1.000  N
  N6       1.0000 0.24760  0.63870  0.88210  Biso   1.000  N
  N7       1.0000 0.75240  0.13870  0.61790  Biso   1.000  N
  N8       1.0000 0.75240  0.36130  0.11790  Biso   1.000  N
  C1       1.0000 0.59440  0.26150  0.61320  Biso   1.000  C
  C2       1.0000 0.59440  0.23850  0.11320  Biso   1.000  C
  C3       1.0000 0.40560  0.73850  0.38680  Biso   1.000  C
  C4       1.0000 0.40560  0.76150  0.88680  Biso   1.000  C
  C5       1.0000 0.31200  0.64490  0.34410  Biso   1.000  C
  C6       1.0000 0.31200  0.85510  0.84410  Biso   1.000  C
  C7       1.0000 0.68800  0.35510  0.65590  Biso   1.000  C
  C8       1.0000 0.68800  0.14490  0.15590  Biso   1.000  C
  H1       1.0000 0.31460  0.54730  0.32250  Biso   1.000  H
  H2       1.0000 0.31460  0.95270  0.82250  Biso   1.000  H
  H3       1.0000 0.68540  0.45270  0.67750  Biso   1.000  H
  H4       1.0000 0.68540  0.04730  0.17750  Biso   1.000  H
  C9       1.0000 0.21300  0.72700  0.34000  Biso   1.000  C
  C10      1.0000 0.21300  0.77300  0.84000  Biso   1.000  C
  C11      1.0000 0.78700  0.27300  0.66000  Biso   1.000  C
  C12      1.0000 0.78700  0.22700  0.16000  Biso   1.000  C
  C13      1.0000 0.46540  0.27320  0.60270  Biso   1.000  C
  C14      1.0000 0.46540  0.22680  0.10270  Biso   1.000  C
  C15      1.0000 0.53460  0.72680  0.39730  Biso   1.000  C
  C16      1.0000 0.53460  0.77320  0.89730  Biso   1.000  C
  O1       1.0000 0.59230  0.84290  0.44070  Biso   1.000  O
  O2       1.0000 0.59230  0.65710  0.94070  Biso   1.000  O
  O3       1.0000 0.40770  0.15710  0.55930  Biso   1.000  O
  O4       1.0000 0.40770  0.34290  0.05930  Biso   1.000  O
  O5       1.0000 0.42190  0.38350  0.63670  Biso   1.000  O
  O6       1.0000 0.42190  0.11650  0.13670  Biso   1.000  O
  O7       1.0000 0.57810  0.61650  0.36330  Biso   1.000  O
  O8       1.0000 0.57810  0.88350  0.86330  Biso   1.000  O
  C17      1.0000 0.08260  0.70210  0.28440  Biso   1.000  C
  C18      1.0000 0.08260  0.79790  0.78440  Biso   1.000  C
  C19      1.0000 0.91740  0.29790  0.71560  Biso   1.000  C
  C20      1.0000 0.91740  0.20210  0.21560  Biso   1.000  C
  O9       1.0000 0.01720  0.80890  0.26050  Biso   1.000  O
  O10      1.0000 0.01720  0.69110  0.76050  Biso   1.000  O
  O11      1.0000 0.98280  0.19110  0.73950  Biso   1.000  O
  O12      1.0000 0.98280  0.30890  0.23950  Biso   1.000  O
  O13      1.0000 0.04680  0.57900  0.25330  Biso   1.000  O
  O14      1.0000 0.04680  0.92100  0.75330  Biso   1.000  O
  O15      1.0000 0.95320  0.42100  0.74670  Biso   1.000  O
  O16      1.0000 0.95320  0.07900  0.24670  Biso   1.000  O
  Cu3      1.0000 0.11054  0.99055  0.33150  Biso   1.000  Cu
  Cu4      1.0000 0.11054  0.50945  0.83150  Biso   1.000  Cu
  Cu5      1.0000 0.88946  0.00945  0.66850  Biso   1.000  Cu
  Cu6      1.0000 0.88946  0.49055  0.16850  Biso   1.000  Cu
  O17      1.0000 0.18400  0.12360  0.54360  Biso   1.000  O
  O18      1.0000 0.18400  0.37640  0.04360  Biso   1.000  O
  O19      1.0000 0.81600  0.87640  0.45640  Biso   1.000  O
  O20      1.0000 0.81600  0.62360  0.95640  Biso   1.000  O
  H5       1.0000 0.25200  0.14200  0.56100  Biso   1.000  H
  H6       1.0000 0.25200  0.35800  0.06100  Biso   1.000  H
  H7       1.0000 0.74800  0.85800  0.43900  Biso   1.000  H
  H8       1.0000 0.74800  0.64200  0.93900  Biso   1.000  H
  H9       1.0000 0.15100  0.19400  0.53900  Biso   1.000  H
  H10      1.0000 0.15100  0.30600  0.03900  Biso   1.000  H
  H11      1.0000 0.84900  0.80600  0.46100  Biso   1.000  H
  H12      1.0000 0.84900  0.69400  0.96100  Biso   1.000  H
  O21      1.0000 0.17320  0.09000  0.08770  Biso   1.000  O
  O22      1.0000 0.17320  0.41000  0.58770  Biso   1.000  O
  O23      1.0000 0.82680  0.91000  0.91230  Biso   1.000  O
  O24      1.0000 0.82680  0.59000  0.41230  Biso   1.000  O
  H13      1.0000 0.23700  0.08700  0.12000  Biso   1.000  H
  H14      1.0000 0.23700  0.41300  0.62000  Biso   1.000  H
  H15      1.0000 0.76300  0.91300  0.88000  Biso   1.000  H
  H16      1.0000 0.76300  0.58700  0.38000  Biso   1.000  H
  H17      1.0000 0.14500  0.04100  0.97000  Biso   1.000  H
  H18      1.0000 0.14500  0.45900  0.47000  Biso   1.000  H
  H19      1.0000 0.85500  0.95900  0.03000  Biso   1.000  H
  H20      1.0000 0.85500  0.54100  0.53000  Biso   1.000  H
