data_image0
_cell_length_a       14.957
_cell_length_b       25.307
_cell_length_c       14.785
_cell_angle_alpha    90
_cell_angle_beta     90.579
_cell_angle_gamma    90

_symmetry_space_group_name_H-M    "P 1"
_symmetry_int_tables_number       1

loop_
  _symmetry_equiv_pos_as_xyz
  'x, y, z'

loop_
  _atom_site_label
  _atom_site_occupancy
  _atom_site_fract_x
  _atom_site_fract_y
  _atom_site_fract_z
  _atom_site_thermal_displace_type
  _atom_site_B_iso_or_equiv
  _atom_site_type_symbol
  Cu1      1.0000 0.00000  0.50000  0.50000  Biso   1.000  Cu
  Cu2      1.0000 0.00000  0.00000  0.00000  Biso   1.000  Cu
  Cu3      1.0000 0.73504  0.50750  0.18911  Biso   1.000  Cu
  Cu4      1.0000 0.26496  0.00750  0.31089  Biso   1.000  Cu
  Cu5      1.0000 0.26496  0.49250  0.81089  Biso   1.000  Cu
  Cu6      1.0000 0.73504  0.99250  0.68911  Biso   1.000  Cu
  Cu7      1.0000 0.50000  0.50000  0.50000  Biso   1.000  Cu
  Cu8      1.0000 0.50000  0.00000  0.00000  Biso   1.000  Cu
  O1       1.0000 0.10850  0.45747  0.55900  Biso   1.000  O
  O2       1.0000 0.89150  0.95747  0.94100  Biso   1.000  O
  O3       1.0000 0.89150  0.54253  0.44100  Biso   1.000  O
  O4       1.0000 0.10850  0.04253  0.05900  Biso   1.000  O
  O5       1.0000 0.74020  0.51098  0.33170  Biso   1.000  O
  O6       1.0000 0.25980  0.01098  0.16830  Biso   1.000  O
  O7       1.0000 0.25980  0.48902  0.66830  Biso   1.000  O
  O8       1.0000 0.74020  0.98902  0.83170  Biso   1.000  O
  O9       1.0000 0.72300  0.50853  0.04840  Biso   1.000  O
  O10      1.0000 0.27700  0.00853  0.45160  Biso   1.000  O
  O11      1.0000 0.27700  0.49147  0.95160  Biso   1.000  O
  O12      1.0000 0.72300  0.99147  0.54840  Biso   1.000  O
  O13      1.0000 0.37840  0.53613  0.54350  Biso   1.000  O
  O14      1.0000 0.62160  0.03613  0.95650  Biso   1.000  O
  O15      1.0000 0.62160  0.46387  0.45650  Biso   1.000  O
  O16      1.0000 0.37840  0.96387  0.04350  Biso   1.000  O
  O17      1.0000 0.80860  0.57474  0.19000  Biso   1.000  O
  O18      1.0000 0.19140  0.07474  0.31000  Biso   1.000  O
  O19      1.0000 0.19140  0.42526  0.81000  Biso   1.000  O
  O20      1.0000 0.80860  0.92526  0.69000  Biso   1.000  O
  O21      1.0000 0.46840  0.57333  0.44600  Biso   1.000  O
  O22      1.0000 0.53160  0.07333  0.05400  Biso   1.000  O
  O23      1.0000 0.53160  0.42667  0.55400  Biso   1.000  O
  O24      1.0000 0.46840  0.92667  0.94600  Biso   1.000  O
  O25      1.0000 0.01250  0.42006  0.46490  Biso   1.000  O
  O26      1.0000 0.98750  0.92006  0.03510  Biso   1.000  O
  O27      1.0000 0.98750  0.57994  0.53510  Biso   1.000  O
  O28      1.0000 0.01250  0.07994  0.96490  Biso   1.000  O
  C1       1.0000 0.13520  0.36716  0.51800  Biso   1.000  C
  C2       1.0000 0.86480  0.86716  0.98200  Biso   1.000  C
  C3       1.0000 0.86480  0.63284  0.48200  Biso   1.000  C
  C4       1.0000 0.13520  0.13284  0.01800  Biso   1.000  C
  O29      1.0000 0.65800  0.41163  0.06410  Biso   1.000  O
  O30      1.0000 0.34200  0.91163  0.43590  Biso   1.000  O
  O31      1.0000 0.34200  0.58837  0.93590  Biso   1.000  O
  O32      1.0000 0.65800  0.08837  0.56410  Biso   1.000  O
  O33      1.0000 0.29460  0.23330  0.52190  Biso   1.000  O
  O34      1.0000 0.70540  0.73330  0.97810  Biso   1.000  O
  O35      1.0000 0.70540  0.76670  0.47810  Biso   1.000  O
  O36      1.0000 0.29460  0.26670  0.02190  Biso   1.000  O
  N1       1.0000 0.91840  0.47808  0.60840  Biso   1.000  N
  N2       1.0000 0.08160  0.97808  0.89160  Biso   1.000  N
  N3       1.0000 0.08160  0.52192  0.39160  Biso   1.000  N
  N4       1.0000 0.91840  0.02192  0.10840  Biso   1.000  N
  O37      1.0000 0.40850  0.24654  0.26250  Biso   1.000  O
  O38      1.0000 0.59150  0.74654  0.23750  Biso   1.000  O
  O39      1.0000 0.59150  0.75346  0.73750  Biso   1.000  O
  O40      1.0000 0.40850  0.25346  0.76250  Biso   1.000  O
  O41      1.0000 0.66470  0.44074  0.20510  Biso   1.000  O
  O42      1.0000 0.33530  0.94074  0.29490  Biso   1.000  O
  O43      1.0000 0.33530  0.55926  0.79490  Biso   1.000  O
  O44      1.0000 0.66470  0.05926  0.70510  Biso   1.000  O
  N5       1.0000 0.85500  0.46201  0.18500  Biso   1.000  N
  N6       1.0000 0.14500  0.96201  0.31500  Biso   1.000  N
  N7       1.0000 0.14500  0.53799  0.81500  Biso   1.000  N
  N8       1.0000 0.85500  0.03799  0.68500  Biso   1.000  N
  C5       1.0000 0.58130  0.36430  0.17720  Biso   1.000  C
  C6       1.0000 0.41870  0.86430  0.32280  Biso   1.000  C
  C7       1.0000 0.41870  0.63570  0.82280  Biso   1.000  C
  C8       1.0000 0.58130  0.13570  0.67720  Biso   1.000  C
  N9       1.0000 0.43130  0.45994  0.39780  Biso   1.000  N
  N10      1.0000 0.56870  0.95994  0.10220  Biso   1.000  N
  N11      1.0000 0.56870  0.54006  0.60220  Biso   1.000  N
  N12      1.0000 0.43130  0.04006  0.89780  Biso   1.000  N
  C9       1.0000 0.85470  0.59470  0.12730  Biso   1.000  C
  C10      1.0000 0.14530  0.09470  0.37270  Biso   1.000  C
  C11      1.0000 0.14530  0.40530  0.87270  Biso   1.000  C
  C12      1.0000 0.85470  0.90530  0.62730  Biso   1.000  C
  O45      1.0000 0.85410  0.58028  0.04670  Biso   1.000  O
  O46      1.0000 0.14590  0.08028  0.45330  Biso   1.000  O
  O47      1.0000 0.14590  0.41972  0.95330  Biso   1.000  O
  O48      1.0000 0.85410  0.91972  0.54670  Biso   1.000  O
  C13      1.0000 0.91520  0.46550  0.11940  Biso   1.000  C
  C14      1.0000 0.08480  0.96550  0.38060  Biso   1.000  C
  C15      1.0000 0.08480  0.53450  0.88060  Biso   1.000  C
  C16      1.0000 0.91520  0.03450  0.61940  Biso   1.000  C
  H1       1.0000 0.90380  0.48960  0.07310  Biso   1.000  H
  H2       1.0000 0.09620  0.98960  0.42690  Biso   1.000  H
  H3       1.0000 0.09620  0.51040  0.92690  Biso   1.000  H
  H4       1.0000 0.90380  0.01040  0.57310  Biso   1.000  H
  C17      1.0000 0.80520  0.44030  0.74510  Biso   1.000  C
  C18      1.0000 0.19480  0.94030  0.75490  Biso   1.000  C
  C19      1.0000 0.19480  0.55970  0.25490  Biso   1.000  C
  C20      1.0000 0.80520  0.05970  0.24510  Biso   1.000  C
  N13      1.0000 0.38660  0.44795  0.81130  Biso   1.000  N
  N14      1.0000 0.61340  0.94795  0.68870  Biso   1.000  N
  N15      1.0000 0.61340  0.55205  0.18870  Biso   1.000  N
  N16      1.0000 0.38660  0.05205  0.31130  Biso   1.000  N
  C21      1.0000 0.34880  0.62570  0.49710  Biso   1.000  C
  C22      1.0000 0.65120  0.12570  0.00290  Biso   1.000  C
  C23      1.0000 0.65120  0.37430  0.50290  Biso   1.000  C
  C24      1.0000 0.34880  0.87430  0.99710  Biso   1.000  C
  C25      1.0000 0.40040  0.57570  0.49540  Biso   1.000  C
  C26      1.0000 0.59960  0.07570  0.00460  Biso   1.000  C
  C27      1.0000 0.59960  0.42430  0.50460  Biso   1.000  C
  C28      1.0000 0.40040  0.92430  0.99540  Biso   1.000  C
  C29      1.0000 0.28520  0.19120  0.45790  Biso   1.000  C
  C30      1.0000 0.71480  0.69120  0.04210  Biso   1.000  C
  C31      1.0000 0.71480  0.80880  0.54210  Biso   1.000  C
  C32      1.0000 0.28520  0.30880  0.95790  Biso   1.000  C
  H5       1.0000 0.22460  0.17760  0.46060  Biso   1.000  H
  H6       1.0000 0.77540  0.67760  0.03940  Biso   1.000  H
  H7       1.0000 0.77540  0.82240  0.53940  Biso   1.000  H
  H8       1.0000 0.22460  0.32240  0.96060  Biso   1.000  H
  H9       1.0000 0.32550  0.16280  0.47500  Biso   1.000  H
  H10      1.0000 0.67450  0.66280  0.02500  Biso   1.000  H
  H11      1.0000 0.67450  0.83720  0.52500  Biso   1.000  H
  H12      1.0000 0.32550  0.33720  0.97500  Biso   1.000  H
  C33      1.0000 0.40660  0.41080  0.75260  Biso   1.000  C
  C34      1.0000 0.59340  0.91080  0.74740  Biso   1.000  C
  C35      1.0000 0.59340  0.58920  0.24740  Biso   1.000  C
  C36      1.0000 0.40660  0.08920  0.25260  Biso   1.000  C
  H13      1.0000 0.36790  0.40570  0.70370  Biso   1.000  H
  H14      1.0000 0.63210  0.90570  0.79630  Biso   1.000  H
  H15      1.0000 0.63210  0.59430  0.29630  Biso   1.000  H
  H16      1.0000 0.36790  0.09430  0.20370  Biso   1.000  H
  C37      1.0000 0.63930  0.40920  0.14580  Biso   1.000  C
  C38      1.0000 0.36070  0.90920  0.35420  Biso   1.000  C
  C39      1.0000 0.36070  0.59080  0.85420  Biso   1.000  C
  C40      1.0000 0.63930  0.09080  0.64580  Biso   1.000  C
  C41      1.0000 0.23830  0.27580  0.51770  Biso   1.000  C
  C42      1.0000 0.76170  0.77580  0.98230  Biso   1.000  C
  C43      1.0000 0.76170  0.72420  0.48230  Biso   1.000  C
  C44      1.0000 0.23830  0.22420  0.01770  Biso   1.000  C
  O49      1.0000 0.19890  0.76298  0.49640  Biso   1.000  O
  O50      1.0000 0.80110  0.26298  0.00360  Biso   1.000  O
  O51      1.0000 0.80110  0.23702  0.50360  Biso   1.000  O
  O52      1.0000 0.19890  0.73702  0.99640  Biso   1.000  O
  C45      1.0000 0.91590  0.63820  0.15510  Biso   1.000  C
  C46      1.0000 0.08410  0.13820  0.34490  Biso   1.000  C
  C47      1.0000 0.08410  0.36180  0.84490  Biso   1.000  C
  C48      1.0000 0.91590  0.86180  0.65510  Biso   1.000  C
  C49      1.0000 0.08260  0.41700  0.51410  Biso   1.000  C
  C50      1.0000 0.91740  0.91700  0.98590  Biso   1.000  C
  C51      1.0000 0.91740  0.58300  0.48590  Biso   1.000  C
  C52      1.0000 0.08260  0.08300  0.01410  Biso   1.000  C
  O53      1.0000 0.09660  0.75454  0.23460  Biso   1.000  O
  O54      1.0000 0.90340  0.25454  0.26540  Biso   1.000  O
  O55      1.0000 0.90340  0.24546  0.76540  Biso   1.000  O
  O56      1.0000 0.09660  0.74546  0.73460  Biso   1.000  O
  C53      1.0000 0.94960  0.46130  0.68760  Biso   1.000  C
  C54      1.0000 0.05040  0.96130  0.81240  Biso   1.000  C
  C55      1.0000 0.05040  0.53870  0.31240  Biso   1.000  C
  C56      1.0000 0.94960  0.03870  0.18760  Biso   1.000  C
  H17      1.0000 0.01090  0.46300  0.69810  Biso   1.000  H
  H18      1.0000 0.98910  0.96300  0.80190  Biso   1.000  H
  H19      1.0000 0.98910  0.53700  0.30190  Biso   1.000  H
  H20      1.0000 0.01090  0.03700  0.19810  Biso   1.000  H
  C57      1.0000 0.30450  0.20760  0.36220  Biso   1.000  C
  C58      1.0000 0.69550  0.70760  0.13780  Biso   1.000  C
  C59      1.0000 0.69550  0.79240  0.63780  Biso   1.000  C
  C60      1.0000 0.30450  0.29240  0.86220  Biso   1.000  C
  H21      1.0000 0.25630  0.22980  0.33980  Biso   1.000  H
  H22      1.0000 0.74370  0.72980  0.16020  Biso   1.000  H
  H23      1.0000 0.74370  0.77020  0.66020  Biso   1.000  H
  H24      1.0000 0.25630  0.27020  0.83980  Biso   1.000  H
  H25      1.0000 0.30730  0.17640  0.32420  Biso   1.000  H
  H26      1.0000 0.69270  0.67640  0.17580  Biso   1.000  H
  H27      1.0000 0.69270  0.82360  0.67580  Biso   1.000  H
  H28      1.0000 0.30730  0.32360  0.82420  Biso   1.000  H
  C61      1.0000 0.15870  0.27730  0.46950  Biso   1.000  C
  C62      1.0000 0.84130  0.77730  0.03050  Biso   1.000  C
  C63      1.0000 0.84130  0.72270  0.53050  Biso   1.000  C
  C64      1.0000 0.15870  0.22270  0.96950  Biso   1.000  C
  H29      1.0000 0.13970  0.24790  0.43700  Biso   1.000  H
  H30      1.0000 0.86030  0.74790  0.06300  Biso   1.000  H
  H31      1.0000 0.86030  0.75210  0.56300  Biso   1.000  H
  H32      1.0000 0.13970  0.25210  0.93700  Biso   1.000  H
  C65      1.0000 0.47310  0.29630  0.14830  Biso   1.000  C
  C66      1.0000 0.52690  0.79630  0.35170  Biso   1.000  C
  C67      1.0000 0.52690  0.70370  0.85170  Biso   1.000  C
  C68      1.0000 0.47310  0.20370  0.64830  Biso   1.000  C
  H33      1.0000 0.43790  0.27760  0.10710  Biso   1.000  H
  H34      1.0000 0.56210  0.77760  0.39290  Biso   1.000  H
  H35      1.0000 0.56210  0.72240  0.89290  Biso   1.000  H
  H36      1.0000 0.43790  0.22240  0.60710  Biso   1.000  H
  C69      1.0000 0.97960  0.66010  0.09620  Biso   1.000  C
  C70      1.0000 0.02040  0.16010  0.40380  Biso   1.000  C
  C71      1.0000 0.02040  0.33990  0.90380  Biso   1.000  C
  C72      1.0000 0.97960  0.83990  0.59620  Biso   1.000  C
  H37      1.0000 0.98300  0.64800  0.03680  Biso   1.000  H
  H38      1.0000 0.01700  0.14800  0.46320  Biso   1.000  H
  H39      1.0000 0.01700  0.35200  0.96320  Biso   1.000  H
  H40      1.0000 0.98300  0.85200  0.53680  Biso   1.000  H
  C73      1.0000 0.10750  0.32270  0.47000  Biso   1.000  C
  C74      1.0000 0.89250  0.82270  0.03000  Biso   1.000  C
  C75      1.0000 0.89250  0.67730  0.53000  Biso   1.000  C
  C76      1.0000 0.10750  0.17730  0.97000  Biso   1.000  C
  H41      1.0000 0.05380  0.32350  0.43780  Biso   1.000  H
  H42      1.0000 0.94620  0.82350  0.06220  Biso   1.000  H
  H43      1.0000 0.94620  0.67650  0.56220  Biso   1.000  H
  H44      1.0000 0.05380  0.17650  0.93780  Biso   1.000  H
  C77      1.0000 0.46820  0.28450  0.23830  Biso   1.000  C
  C78      1.0000 0.53180  0.78450  0.26170  Biso   1.000  C
  C79      1.0000 0.53180  0.71550  0.76170  Biso   1.000  C
  C80      1.0000 0.46820  0.21550  0.73830  Biso   1.000  C
  C81      1.0000 0.26380  0.31880  0.57010  Biso   1.000  C
  C82      1.0000 0.73620  0.81880  0.92990  Biso   1.000  C
  C83      1.0000 0.73620  0.68120  0.42990  Biso   1.000  C
  C84      1.0000 0.26380  0.18120  0.07010  Biso   1.000  C
  H45      1.0000 0.31550  0.31700  0.60550  Biso   1.000  H
  H46      1.0000 0.68450  0.81700  0.89450  Biso   1.000  H
  H47      1.0000 0.68450  0.68300  0.39450  Biso   1.000  H
  H48      1.0000 0.31550  0.18300  0.10550  Biso   1.000  H
  C85      1.0000 0.38410  0.67130  0.46070  Biso   1.000  C
  C86      1.0000 0.61590  0.17130  0.03930  Biso   1.000  C
  C87      1.0000 0.61590  0.32870  0.53930  Biso   1.000  C
  C88      1.0000 0.38410  0.82870  0.96070  Biso   1.000  C
  H49      1.0000 0.44120  0.67040  0.43650  Biso   1.000  H
  H50      1.0000 0.55880  0.17040  0.06350  Biso   1.000  H
  H51      1.0000 0.55880  0.32960  0.56350  Biso   1.000  H
  H52      1.0000 0.44120  0.82960  0.93650  Biso   1.000  H
  C89      1.0000 0.87490  0.42730  0.24820  Biso   1.000  C
  C90      1.0000 0.12510  0.92730  0.25180  Biso   1.000  C
  C91      1.0000 0.12510  0.57270  0.75180  Biso   1.000  C
  C92      1.0000 0.87490  0.07270  0.74820  Biso   1.000  C
  H53      1.0000 0.83410  0.42270  0.29470  Biso   1.000  H
  H54      1.0000 0.16590  0.92270  0.20530  Biso   1.000  H
  H55      1.0000 0.16590  0.57730  0.70530  Biso   1.000  H
  H56      1.0000 0.83410  0.07730  0.79470  Biso   1.000  H
  C93      1.0000 0.82910  0.47820  0.59960  Biso   1.000  C
  C94      1.0000 0.17090  0.97820  0.90040  Biso   1.000  C
  C95      1.0000 0.17090  0.52180  0.40040  Biso   1.000  C
  C96      1.0000 0.82910  0.02180  0.09960  Biso   1.000  C
  H57      1.0000 0.80470  0.49150  0.54610  Biso   1.000  H
  H58      1.0000 0.19530  0.99150  0.95390  Biso   1.000  H
  H59      1.0000 0.19530  0.50850  0.45390  Biso   1.000  H
  H60      1.0000 0.80470  0.00850  0.04610  Biso   1.000  H
  C97      1.0000 0.39190  0.23740  0.35670  Biso   1.000  C
  C98      1.0000 0.60810  0.73740  0.14330  Biso   1.000  C
  C99      1.0000 0.60810  0.76260  0.64330  Biso   1.000  C
  C100     1.0000 0.39190  0.26260  0.85670  Biso   1.000  C
  H61      1.0000 0.38770  0.27070  0.38880  Biso   1.000  H
  H62      1.0000 0.61230  0.77070  0.11120  Biso   1.000  H
  H63      1.0000 0.61230  0.72930  0.61120  Biso   1.000  H
  H64      1.0000 0.38770  0.22930  0.88880  Biso   1.000  H
  H65      1.0000 0.44000  0.21680  0.38340  Biso   1.000  H
  H66      1.0000 0.56000  0.71680  0.11660  Biso   1.000  H
  H67      1.0000 0.56000  0.78320  0.61660  Biso   1.000  H
  H68      1.0000 0.44000  0.28320  0.88340  Biso   1.000  H
  C101     1.0000 0.53960  0.38460  0.82990  Biso   1.000  C
  C102     1.0000 0.46040  0.88460  0.67010  Biso   1.000  C
  C103     1.0000 0.46040  0.61540  0.17010  Biso   1.000  C
  C104     1.0000 0.53960  0.11540  0.32990  Biso   1.000  C
  C105     1.0000 0.44160  0.46650  0.31040  Biso   1.000  C
  C106     1.0000 0.55840  0.96650  0.18960  Biso   1.000  C
  C107     1.0000 0.55840  0.53350  0.68960  Biso   1.000  C
  C108     1.0000 0.44160  0.03350  0.81040  Biso   1.000  C
  H69      1.0000 0.48490  0.49010  0.29080  Biso   1.000  H
  H70      1.0000 0.51510  0.99010  0.20920  Biso   1.000  H
  H71      1.0000 0.51510  0.50990  0.70920  Biso   1.000  H
  H72      1.0000 0.48490  0.00990  0.79080  Biso   1.000  H
  C109     1.0000 0.77160  0.46030  0.66370  Biso   1.000  C
  C110     1.0000 0.22840  0.96030  0.83630  Biso   1.000  C
  C111     1.0000 0.22840  0.53970  0.33630  Biso   1.000  C
  C112     1.0000 0.77160  0.03970  0.16370  Biso   1.000  C
  H73      1.0000 0.71030  0.46130  0.65320  Biso   1.000  H
  H74      1.0000 0.28970  0.96130  0.84680  Biso   1.000  H
  H75      1.0000 0.28970  0.53870  0.34680  Biso   1.000  H
  H76      1.0000 0.71030  0.03870  0.15320  Biso   1.000  H
  C113     1.0000 0.37200  0.42340  0.42380  Biso   1.000  C
  C114     1.0000 0.62800  0.92340  0.07620  Biso   1.000  C
  C115     1.0000 0.62800  0.57660  0.57620  Biso   1.000  C
  C116     1.0000 0.37200  0.07660  0.92380  Biso   1.000  C
  H77      1.0000 0.36560  0.41680  0.48530  Biso   1.000  H
  H78      1.0000 0.63440  0.91680  0.01470  Biso   1.000  H
  H79      1.0000 0.63440  0.58320  0.51470  Biso   1.000  H
  H80      1.0000 0.36560  0.08320  0.98530  Biso   1.000  H
  C117     1.0000 0.91220  0.65880  0.24090  Biso   1.000  C
  C118     1.0000 0.08780  0.15880  0.25910  Biso   1.000  C
  C119     1.0000 0.08780  0.34120  0.75910  Biso   1.000  C
  C120     1.0000 0.91220  0.84120  0.74090  Biso   1.000  C
  H81      1.0000 0.86970  0.64590  0.28070  Biso   1.000  H
  H82      1.0000 0.13030  0.14590  0.21930  Biso   1.000  H
  H83      1.0000 0.13030  0.35410  0.71930  Biso   1.000  H
  H84      1.0000 0.86970  0.85410  0.78070  Biso   1.000  H
  C121     1.0000 0.52420  0.31180  0.29980  Biso   1.000  C
  C122     1.0000 0.47580  0.81180  0.20020  Biso   1.000  C
  C123     1.0000 0.47580  0.68820  0.70020  Biso   1.000  C
  C124     1.0000 0.52420  0.18820  0.79980  Biso   1.000  C
  H85      1.0000 0.52470  0.30310  0.36090  Biso   1.000  H
  H86      1.0000 0.47530  0.80310  0.13910  Biso   1.000  H
  H87      1.0000 0.47530  0.69690  0.63910  Biso   1.000  H
  H88      1.0000 0.52470  0.19690  0.86090  Biso   1.000  H
  C125     1.0000 0.33670  0.71830  0.45930  Biso   1.000  C
  C126     1.0000 0.66330  0.21830  0.04070  Biso   1.000  C
  C127     1.0000 0.66330  0.28170  0.54070  Biso   1.000  C
  C128     1.0000 0.33670  0.78170  0.95930  Biso   1.000  C
  H89      1.0000 0.36180  0.74870  0.43460  Biso   1.000  H
  H90      1.0000 0.63820  0.24870  0.06540  Biso   1.000  H
  H91      1.0000 0.63820  0.25130  0.56540  Biso   1.000  H
  H92      1.0000 0.36180  0.75130  0.93460  Biso   1.000  H
  C129     1.0000 0.20110  0.79150  0.34080  Biso   1.000  C
  C130     1.0000 0.79890  0.29150  0.15920  Biso   1.000  C
  C131     1.0000 0.79890  0.20850  0.65920  Biso   1.000  C
  C132     1.0000 0.20110  0.70850  0.84080  Biso   1.000  C
  H93      1.0000 0.24770  0.76750  0.32140  Biso   1.000  H
  H94      1.0000 0.75230  0.26750  0.17860  Biso   1.000  H
  H95      1.0000 0.75230  0.23250  0.67860  Biso   1.000  H
  H96      1.0000 0.24770  0.73250  0.82140  Biso   1.000  H
  H97      1.0000 0.20390  0.82280  0.30320  Biso   1.000  H
  H98      1.0000 0.79610  0.32280  0.19680  Biso   1.000  H
  H99      1.0000 0.79610  0.17720  0.69680  Biso   1.000  H
  H100     1.0000 0.20390  0.67720  0.80320  Biso   1.000  H
  C133     1.0000 0.21330  0.36360  0.56970  Biso   1.000  C
  C134     1.0000 0.78670  0.86360  0.93030  Biso   1.000  C
  C135     1.0000 0.78670  0.63640  0.43030  Biso   1.000  C
  C136     1.0000 0.21330  0.13640  0.06970  Biso   1.000  C
  H101     1.0000 0.23130  0.39230  0.60460  Biso   1.000  H
  H102     1.0000 0.76870  0.89230  0.89540  Biso   1.000  H
  H103     1.0000 0.76870  0.60770  0.39540  Biso   1.000  H
  H104     1.0000 0.23130  0.10770  0.10460  Biso   1.000  H
  C137     1.0000 0.26370  0.62780  0.53320  Biso   1.000  C
  C138     1.0000 0.73630  0.12780  0.96680  Biso   1.000  C
  C139     1.0000 0.73630  0.37220  0.46680  Biso   1.000  C
  C140     1.0000 0.26370  0.87220  0.03320  Biso   1.000  C
  H105     1.0000 0.23870  0.59770  0.55840  Biso   1.000  H
  H106     1.0000 0.76130  0.09770  0.94160  Biso   1.000  H
  H107     1.0000 0.76130  0.40230  0.44160  Biso   1.000  H
  H108     1.0000 0.23870  0.90230  0.05840  Biso   1.000  H
  C141     1.0000 0.39080  0.43980  0.24600  Biso   1.000  C
  C142     1.0000 0.60920  0.93980  0.25400  Biso   1.000  C
  C143     1.0000 0.60920  0.56020  0.75400  Biso   1.000  C
  C144     1.0000 0.39080  0.06020  0.74600  Biso   1.000  C
  H109     1.0000 0.39910  0.44700  0.18490  Biso   1.000  H
  H110     1.0000 0.60090  0.94700  0.31510  Biso   1.000  H
  H111     1.0000 0.60090  0.55300  0.81510  Biso   1.000  H
  H112     1.0000 0.39910  0.05300  0.68490  Biso   1.000  H
  C145     1.0000 0.52070  0.42420  0.88990  Biso   1.000  C
  C146     1.0000 0.47930  0.92420  0.61010  Biso   1.000  C
  C147     1.0000 0.47930  0.57580  0.11010  Biso   1.000  C
  C148     1.0000 0.52070  0.07580  0.38990  Biso   1.000  C
  H113     1.0000 0.55960  0.43080  0.93800  Biso   1.000  H
  H114     1.0000 0.44040  0.93080  0.56200  Biso   1.000  H
  H115     1.0000 0.44040  0.56920  0.06200  Biso   1.000  H
  H116     1.0000 0.55960  0.06920  0.43800  Biso   1.000  H
  C149     1.0000 0.31990  0.39520  0.36290  Biso   1.000  C
  C150     1.0000 0.68010  0.89520  0.13710  Biso   1.000  C
  C151     1.0000 0.68010  0.60480  0.63710  Biso   1.000  C
  C152     1.0000 0.31990  0.10480  0.86290  Biso   1.000  C
  H117     1.0000 0.27860  0.37080  0.38400  Biso   1.000  H
  H118     1.0000 0.72140  0.87080  0.11600  Biso   1.000  H
  H119     1.0000 0.72140  0.62920  0.61600  Biso   1.000  H
  H120     1.0000 0.27860  0.12920  0.88400  Biso   1.000  H
  C153     1.0000 0.44550  0.45390  0.87960  Biso   1.000  C
  C154     1.0000 0.55450  0.95390  0.62040  Biso   1.000  C
  C155     1.0000 0.55450  0.54610  0.12040  Biso   1.000  C
  C156     1.0000 0.44550  0.04610  0.37960  Biso   1.000  C
  H121     1.0000 0.43410  0.47980  0.92260  Biso   1.000  H
  H122     1.0000 0.56590  0.97980  0.57740  Biso   1.000  H
  H123     1.0000 0.56590  0.52020  0.07740  Biso   1.000  H
  H124     1.0000 0.43410  0.02020  0.42260  Biso   1.000  H
  C157     1.0000 0.70070  0.36690  0.78320  Biso   1.000  C
  C158     1.0000 0.29930  0.86690  0.71680  Biso   1.000  C
  C159     1.0000 0.29930  0.63310  0.21680  Biso   1.000  C
  C160     1.0000 0.70070  0.13310  0.28320  Biso   1.000  C
  H125     1.0000 0.68120  0.37020  0.72070  Biso   1.000  H
  H126     1.0000 0.31880  0.87020  0.77930  Biso   1.000  H
  H127     1.0000 0.31880  0.62980  0.27930  Biso   1.000  H
  H128     1.0000 0.68120  0.12980  0.22070  Biso   1.000  H
  H129     1.0000 0.74660  0.33980  0.78580  Biso   1.000  H
  H130     1.0000 0.25340  0.83980  0.71420  Biso   1.000  H
  H131     1.0000 0.25340  0.66020  0.21420  Biso   1.000  H
  H132     1.0000 0.74660  0.16020  0.28580  Biso   1.000  H
  C161     1.0000 0.48070  0.37900  0.75870  Biso   1.000  C
  C162     1.0000 0.51930  0.87900  0.74130  Biso   1.000  C
  C163     1.0000 0.51930  0.62100  0.24130  Biso   1.000  C
  C164     1.0000 0.48070  0.12100  0.25870  Biso   1.000  C
  H133     1.0000 0.49100  0.35360  0.71460  Biso   1.000  H
  H134     1.0000 0.50900  0.85360  0.78540  Biso   1.000  H
  H135     1.0000 0.50900  0.64640  0.28540  Biso   1.000  H
  H136     1.0000 0.49100  0.14640  0.21460  Biso   1.000  H
  C165     1.0000 0.57780  0.35140  0.26780  Biso   1.000  C
  C166     1.0000 0.42220  0.85140  0.23220  Biso   1.000  C
  C167     1.0000 0.42220  0.64860  0.73220  Biso   1.000  C
  C168     1.0000 0.57780  0.14860  0.76780  Biso   1.000  C
  H137     1.0000 0.61310  0.37020  0.30870  Biso   1.000  H
  H138     1.0000 0.38690  0.87020  0.19130  Biso   1.000  H
  H139     1.0000 0.38690  0.62980  0.69130  Biso   1.000  H
  H140     1.0000 0.61310  0.12980  0.80870  Biso   1.000  H
  C169     1.0000 0.09820  0.37010  0.17600  Biso   1.000  C
  C170     1.0000 0.90180  0.87010  0.32400  Biso   1.000  C
  C171     1.0000 0.90180  0.62990  0.82400  Biso   1.000  C
  C172     1.0000 0.09820  0.12990  0.67600  Biso   1.000  C
  H141     1.0000 0.09220  0.33750  0.20980  Biso   1.000  H
  H142     1.0000 0.90780  0.83750  0.29020  Biso   1.000  H
  H143     1.0000 0.90780  0.66250  0.79020  Biso   1.000  H
  H144     1.0000 0.09220  0.16250  0.70980  Biso   1.000  H
  H145     1.0000 0.11060  0.36110  0.11360  Biso   1.000  H
  H146     1.0000 0.88940  0.86110  0.38640  Biso   1.000  H
  H147     1.0000 0.88940  0.63890  0.88640  Biso   1.000  H
  H148     1.0000 0.11060  0.13890  0.61360  Biso   1.000  H
  C173     1.0000 0.52930  0.33550  0.11730  Biso   1.000  C
  C174     1.0000 0.47070  0.83550  0.38270  Biso   1.000  C
  C175     1.0000 0.47070  0.66450  0.88270  Biso   1.000  C
  C176     1.0000 0.52930  0.16450  0.61730  Biso   1.000  C
  H149     1.0000 0.53210  0.34260  0.05570  Biso   1.000  H
  H150     1.0000 0.46790  0.84260  0.44430  Biso   1.000  H
  H151     1.0000 0.46790  0.65740  0.94430  Biso   1.000  H
  H152     1.0000 0.53210  0.15740  0.55570  Biso   1.000  H
  C177     1.0000 0.21750  0.80640  0.43640  Biso   1.000  C
  C178     1.0000 0.78250  0.30640  0.06360  Biso   1.000  C
  C179     1.0000 0.78250  0.19360  0.56360  Biso   1.000  C
  C180     1.0000 0.21750  0.69360  0.93640  Biso   1.000  C
  H153     1.0000 0.27940  0.81720  0.44410  Biso   1.000  H
  H154     1.0000 0.72060  0.31720  0.05590  Biso   1.000  H
  H155     1.0000 0.72060  0.18280  0.55590  Biso   1.000  H
  H156     1.0000 0.27940  0.68280  0.94410  Biso   1.000  H
  H157     1.0000 0.17990  0.83630  0.45180  Biso   1.000  H
  H158     1.0000 0.82010  0.33630  0.04820  Biso   1.000  H
  H159     1.0000 0.82010  0.16370  0.54820  Biso   1.000  H
  H160     1.0000 0.17990  0.66370  0.95180  Biso   1.000  H
  C181     1.0000 0.21580  0.67460  0.53190  Biso   1.000  C
  C182     1.0000 0.78420  0.17460  0.96810  Biso   1.000  C
  C183     1.0000 0.78420  0.32540  0.46810  Biso   1.000  C
  C184     1.0000 0.21580  0.82540  0.03190  Biso   1.000  C
  H161     1.0000 0.15870  0.67550  0.55630  Biso   1.000  H
  H162     1.0000 0.84130  0.17550  0.94370  Biso   1.000  H
  H163     1.0000 0.84130  0.32450  0.44370  Biso   1.000  H
  H164     1.0000 0.15870  0.82450  0.05630  Biso   1.000  H
  C185     1.0000 0.32880  0.40320  0.27100  Biso   1.000  C
  C186     1.0000 0.67120  0.90320  0.22900  Biso   1.000  C
  C187     1.0000 0.67120  0.59680  0.72900  Biso   1.000  C
  C188     1.0000 0.32880  0.09680  0.77100  Biso   1.000  C
  C189     1.0000 0.89610  0.44130  0.75550  Biso   1.000  C
  C190     1.0000 0.10390  0.94130  0.74450  Biso   1.000  C
  C191     1.0000 0.10390  0.55870  0.24450  Biso   1.000  C
  C192     1.0000 0.89610  0.05870  0.25550  Biso   1.000  C
  H165     1.0000 0.92220  0.42850  0.80840  Biso   1.000  H
  H166     1.0000 0.07780  0.92850  0.69160  Biso   1.000  H
  H167     1.0000 0.07780  0.57150  0.19160  Biso   1.000  H
  H168     1.0000 0.92220  0.07150  0.30840  Biso   1.000  H
  C193     1.0000 0.74090  0.41880  0.81370  Biso   1.000  C
  C194     1.0000 0.25910  0.91880  0.68630  Biso   1.000  C
  C195     1.0000 0.25910  0.58120  0.18630  Biso   1.000  C
  C196     1.0000 0.74090  0.08120  0.31370  Biso   1.000  C
  H169     1.0000 0.77210  0.41360  0.87080  Biso   1.000  H
  H170     1.0000 0.22790  0.91360  0.62920  Biso   1.000  H
  H171     1.0000 0.22790  0.58640  0.12920  Biso   1.000  H
  H172     1.0000 0.77210  0.08640  0.37080  Biso   1.000  H
  H173     1.0000 0.69350  0.44420  0.82320  Biso   1.000  H
  H174     1.0000 0.30650  0.94420  0.67680  Biso   1.000  H
  H175     1.0000 0.30650  0.55580  0.17680  Biso   1.000  H
  H176     1.0000 0.69350  0.05580  0.32320  Biso   1.000  H
  C197     1.0000 0.03610  0.69850  0.12560  Biso   1.000  C
  C198     1.0000 0.96390  0.19850  0.37440  Biso   1.000  C
  C199     1.0000 0.96390  0.30150  0.87440  Biso   1.000  C
  C200     1.0000 0.03610  0.80150  0.62560  Biso   1.000  C
  H177     1.0000 0.07740  0.71260  0.08560  Biso   1.000  H
  H178     1.0000 0.92260  0.21260  0.41440  Biso   1.000  H
  H179     1.0000 0.92260  0.28740  0.91440  Biso   1.000  H
  H180     1.0000 0.07740  0.78740  0.58560  Biso   1.000  H
  C201     1.0000 0.25130  0.71960  0.49530  Biso   1.000  C
  C202     1.0000 0.74870  0.21960  0.00470  Biso   1.000  C
  C203     1.0000 0.74870  0.28040  0.50470  Biso   1.000  C
  C204     1.0000 0.25130  0.78040  0.99530  Biso   1.000  C
  C205     1.0000 0.62140  0.34920  0.84030  Biso   1.000  C
  C206     1.0000 0.37860  0.84920  0.65970  Biso   1.000  C
  C207     1.0000 0.37860  0.65080  0.15970  Biso   1.000  C
  C208     1.0000 0.62140  0.15080  0.34030  Biso   1.000  C
  H181     1.0000 0.63960  0.34870  0.90340  Biso   1.000  H
  H182     1.0000 0.36040  0.84870  0.59660  Biso   1.000  H
  H183     1.0000 0.36040  0.65130  0.09660  Biso   1.000  H
  H184     1.0000 0.63960  0.15130  0.40340  Biso   1.000  H
  H185     1.0000 0.60510  0.31350  0.82320  Biso   1.000  H
  H186     1.0000 0.39490  0.81350  0.67680  Biso   1.000  H
  H187     1.0000 0.39490  0.68650  0.17680  Biso   1.000  H
  H188     1.0000 0.60510  0.18650  0.32320  Biso   1.000  H
  C209     1.0000 0.95020  0.39800  0.25070  Biso   1.000  C
  C210     1.0000 0.04980  0.89800  0.24930  Biso   1.000  C
  C211     1.0000 0.04980  0.60200  0.74930  Biso   1.000  C
  C212     1.0000 0.95020  0.10200  0.75070  Biso   1.000  C
  H189     1.0000 0.96120  0.37550  0.29930  Biso   1.000  H
  H190     1.0000 0.03880  0.87550  0.20070  Biso   1.000  H
  H191     1.0000 0.03880  0.62450  0.70070  Biso   1.000  H
  H192     1.0000 0.96120  0.12450  0.79930  Biso   1.000  H
  C213     1.0000 0.03400  0.71710  0.21180  Biso   1.000  C
  C214     1.0000 0.96600  0.21710  0.28820  Biso   1.000  C
  C215     1.0000 0.96600  0.28290  0.78820  Biso   1.000  C
  C216     1.0000 0.03400  0.78290  0.71180  Biso   1.000  C
  C217     1.0000 0.99180  0.43690  0.11440  Biso   1.000  C
  C218     1.0000 0.00820  0.93690  0.38560  Biso   1.000  C
  C219     1.0000 0.00820  0.56310  0.88560  Biso   1.000  C
  C220     1.0000 0.99180  0.06310  0.61440  Biso   1.000  C
  H193     1.0000 0.03040  0.44170  0.06620  Biso   1.000  H
  H194     1.0000 0.96960  0.94170  0.43380  Biso   1.000  H
  H195     1.0000 0.96960  0.55830  0.93380  Biso   1.000  H
  H196     1.0000 0.03040  0.05830  0.56620  Biso   1.000  H
  C221     1.0000 0.11060  0.76510  0.32750  Biso   1.000  C
  C222     1.0000 0.88940  0.26510  0.17250  Biso   1.000  C
  C223     1.0000 0.88940  0.23490  0.67250  Biso   1.000  C
  C224     1.0000 0.11060  0.73490  0.82750  Biso   1.000  C
  H197     1.0000 0.10870  0.73240  0.36160  Biso   1.000  H
  H198     1.0000 0.89130  0.23240  0.13840  Biso   1.000  H
  H199     1.0000 0.89130  0.26760  0.63840  Biso   1.000  H
  H200     1.0000 0.10870  0.76760  0.86160  Biso   1.000  H
  H201     1.0000 0.06380  0.78810  0.34960  Biso   1.000  H
  H202     1.0000 0.93620  0.28810  0.15040  Biso   1.000  H
  H203     1.0000 0.93620  0.21190  0.65040  Biso   1.000  H
  H204     1.0000 0.06380  0.71190  0.84960  Biso   1.000  H
  C225     1.0000 0.01150  0.40120  0.18050  Biso   1.000  C
  C226     1.0000 0.98850  0.90120  0.31950  Biso   1.000  C
  C227     1.0000 0.98850  0.59880  0.81950  Biso   1.000  C
  C228     1.0000 0.01150  0.09880  0.68050  Biso   1.000  C
  C229     1.0000 0.26600  0.37650  0.20850  Biso   1.000  C
  C230     1.0000 0.73400  0.87650  0.29150  Biso   1.000  C
  C231     1.0000 0.73400  0.62350  0.79150  Biso   1.000  C
  C232     1.0000 0.26600  0.12350  0.70850  Biso   1.000  C
  H205     1.0000 0.26300  0.33920  0.22380  Biso   1.000  H
  H206     1.0000 0.73700  0.83920  0.27620  Biso   1.000  H
  H207     1.0000 0.73700  0.66080  0.77620  Biso   1.000  H
  H208     1.0000 0.26300  0.16080  0.72380  Biso   1.000  H
  H209     1.0000 0.28800  0.37940  0.14730  Biso   1.000  H
  H210     1.0000 0.71200  0.87940  0.35270  Biso   1.000  H
  H211     1.0000 0.71200  0.62060  0.85270  Biso   1.000  H
  H212     1.0000 0.28800  0.12060  0.64730  Biso   1.000  H
  C233     1.0000 0.97000  0.69830  0.27010  Biso   1.000  C
  C234     1.0000 0.03000  0.19830  0.22990  Biso   1.000  C
  C235     1.0000 0.03000  0.30170  0.72990  Biso   1.000  C
  C236     1.0000 0.97000  0.80170  0.77010  Biso   1.000  C
  H213     1.0000 0.96570  0.71190  0.32830  Biso   1.000  H
  H214     1.0000 0.03430  0.21190  0.17170  Biso   1.000  H
  H215     1.0000 0.03430  0.28810  0.67170  Biso   1.000  H
  H216     1.0000 0.96570  0.78810  0.82830  Biso   1.000  H
  C237     1.0000 0.17080  0.40060  0.21280  Biso   1.000  C
  C238     1.0000 0.82920  0.90060  0.28720  Biso   1.000  C
  C239     1.0000 0.82920  0.59940  0.78720  Biso   1.000  C
  C240     1.0000 0.17080  0.09940  0.71280  Biso   1.000  C
  H217     1.0000 0.15770  0.40790  0.27570  Biso   1.000  H
  H218     1.0000 0.84230  0.90790  0.22430  Biso   1.000  H
  H219     1.0000 0.84230  0.59210  0.72430  Biso   1.000  H
  H220     1.0000 0.15770  0.09210  0.77570  Biso   1.000  H
  H221     1.0000 0.17180  0.43430  0.18150  Biso   1.000  H
  H222     1.0000 0.82820  0.93430  0.31850  Biso   1.000  H
  H223     1.0000 0.82820  0.56570  0.81850  Biso   1.000  H
  H224     1.0000 0.17180  0.06570  0.68150  Biso   1.000  H
  H225     1.0000 0.77900  0.52250  0.36700  Biso   1.000  H
  H226     1.0000 0.22100  0.02250  0.13300  Biso   1.000  H
  H227     1.0000 0.22100  0.47750  0.63300  Biso   1.000  H
  H228     1.0000 0.77900  0.97750  0.86700  Biso   1.000  H
  H229     1.0000 0.70900  0.48920  0.35900  Biso   1.000  H
  H230     1.0000 0.29100  0.98920  0.14100  Biso   1.000  H
  H231     1.0000 0.29100  0.51080  0.64100  Biso   1.000  H
  H232     1.0000 0.70900  0.01080  0.85900  Biso   1.000  H
  H233     1.0000 0.77090  0.52430  0.04000  Biso   1.000  H
  H234     1.0000 0.22910  0.02430  0.46000  Biso   1.000  H
  H235     1.0000 0.22910  0.47570  0.96000  Biso   1.000  H
  H236     1.0000 0.77090  0.97570  0.54000  Biso   1.000  H
  H237     1.0000 0.73300  0.47630  0.04200  Biso   1.000  H
  H238     1.0000 0.26700  0.97630  0.45800  Biso   1.000  H
  H239     1.0000 0.26700  0.52370  0.95800  Biso   1.000  H
  H240     1.0000 0.73300  0.02370  0.54200  Biso   1.000  H
