data_image0
_cell_length_a       18.613
_cell_length_b       22.084
_cell_length_c       11.703
_cell_angle_alpha    90
_cell_angle_beta     90
_cell_angle_gamma    90

_symmetry_space_group_name_H-M    "P 1"
_symmetry_int_tables_number       1

loop_
  _symmetry_equiv_pos_as_xyz
  'x, y, z'

loop_
  _atom_site_label
  _atom_site_occupancy
  _atom_site_fract_x
  _atom_site_fract_y
  _atom_site_fract_z
  _atom_site_thermal_displace_type
  _atom_site_B_iso_or_equiv
  _atom_site_type_symbol
  O1       1.0000 0.50000  0.40620  0.06800  Biso   1.000  O
  O2       1.0000 0.50000  0.09380  0.56800  Biso   1.000  O
  O3       1.0000 0.50000  0.90620  0.43200  Biso   1.000  O
  O4       1.0000 0.50000  0.59380  0.93200  Biso   1.000  O
  O5       1.0000 0.00000  0.90620  0.06800  Biso   1.000  O
  O6       1.0000 0.00000  0.59380  0.56800  Biso   1.000  O
  O7       1.0000 0.00000  0.40620  0.43200  Biso   1.000  O
  O8       1.0000 0.00000  0.09380  0.93200  Biso   1.000  O
  C1       1.0000 0.50000  0.34280  0.02610  Biso   1.000  C
  C2       1.0000 0.50000  0.15720  0.52610  Biso   1.000  C
  C3       1.0000 0.50000  0.84280  0.47390  Biso   1.000  C
  C4       1.0000 0.50000  0.65720  0.97390  Biso   1.000  C
  C5       1.0000 0.00000  0.84280  0.02610  Biso   1.000  C
  C6       1.0000 0.00000  0.65720  0.52610  Biso   1.000  C
  C7       1.0000 0.00000  0.34280  0.47390  Biso   1.000  C
  C8       1.0000 0.00000  0.15720  0.97390  Biso   1.000  C
  H1       1.0000 0.50000  0.31400  0.08980  Biso   1.000  H
  H2       1.0000 0.50000  0.18600  0.58980  Biso   1.000  H
  H3       1.0000 0.50000  0.81400  0.41020  Biso   1.000  H
  H4       1.0000 0.50000  0.68600  0.91020  Biso   1.000  H
  H5       1.0000 0.00000  0.81400  0.08980  Biso   1.000  H
  H6       1.0000 0.00000  0.68600  0.58980  Biso   1.000  H
  H7       1.0000 0.00000  0.31400  0.41020  Biso   1.000  H
  H8       1.0000 0.00000  0.18600  0.91020  Biso   1.000  H
  C9       1.0000 0.56460  0.33540  0.95480  Biso   1.000  C
  C10      1.0000 0.43540  0.16460  0.45480  Biso   1.000  C
  C11      1.0000 0.43540  0.83540  0.54520  Biso   1.000  C
  C12      1.0000 0.56460  0.66460  0.04520  Biso   1.000  C
  C13      1.0000 0.06460  0.83540  0.95480  Biso   1.000  C
  C14      1.0000 0.93540  0.66460  0.45480  Biso   1.000  C
  C15      1.0000 0.93540  0.33540  0.54520  Biso   1.000  C
  C16      1.0000 0.06460  0.16460  0.04520  Biso   1.000  C
  C17      1.0000 0.43540  0.66460  0.04520  Biso   1.000  C
  C18      1.0000 0.56460  0.83540  0.54520  Biso   1.000  C
  C19      1.0000 0.56460  0.16460  0.45480  Biso   1.000  C
  C20      1.0000 0.43540  0.33540  0.95480  Biso   1.000  C
  C21      1.0000 0.93540  0.16460  0.04520  Biso   1.000  C
  C22      1.0000 0.06460  0.33540  0.54520  Biso   1.000  C
  C23      1.0000 0.06460  0.66460  0.45480  Biso   1.000  C
  C24      1.0000 0.93540  0.83540  0.95480  Biso   1.000  C
  H9       1.0000 0.60720  0.34010  0.00170  Biso   1.000  H
  H10      1.0000 0.39280  0.15990  0.50170  Biso   1.000  H
  H11      1.0000 0.39280  0.84010  0.49830  Biso   1.000  H
  H12      1.0000 0.60720  0.65990  0.99830  Biso   1.000  H
  H13      1.0000 0.10720  0.84010  0.00170  Biso   1.000  H
  H14      1.0000 0.89280  0.65990  0.50170  Biso   1.000  H
  H15      1.0000 0.89280  0.34010  0.49830  Biso   1.000  H
  H16      1.0000 0.10720  0.15990  0.99830  Biso   1.000  H
  H17      1.0000 0.39280  0.65990  0.99830  Biso   1.000  H
  H18      1.0000 0.60720  0.84010  0.49830  Biso   1.000  H
  H19      1.0000 0.60720  0.15990  0.50170  Biso   1.000  H
  H20      1.0000 0.39280  0.34010  0.00170  Biso   1.000  H
  H21      1.0000 0.89280  0.15990  0.99830  Biso   1.000  H
  H22      1.0000 0.10720  0.34010  0.49830  Biso   1.000  H
  H23      1.0000 0.10720  0.65990  0.50170  Biso   1.000  H
  H24      1.0000 0.89280  0.84010  0.00170  Biso   1.000  H
  H25      1.0000 0.56540  0.36650  0.89630  Biso   1.000  H
  H26      1.0000 0.43460  0.13350  0.39630  Biso   1.000  H
  H27      1.0000 0.43460  0.86650  0.60370  Biso   1.000  H
  H28      1.0000 0.56540  0.63350  0.10370  Biso   1.000  H
  H29      1.0000 0.06540  0.86650  0.89630  Biso   1.000  H
  H30      1.0000 0.93460  0.63350  0.39630  Biso   1.000  H
  H31      1.0000 0.93460  0.36650  0.60370  Biso   1.000  H
  H32      1.0000 0.06540  0.13350  0.10370  Biso   1.000  H
  H33      1.0000 0.43460  0.63350  0.10370  Biso   1.000  H
  H34      1.0000 0.56540  0.86650  0.60370  Biso   1.000  H
  H35      1.0000 0.56540  0.13350  0.39630  Biso   1.000  H
  H36      1.0000 0.43460  0.36650  0.89630  Biso   1.000  H
  H37      1.0000 0.93460  0.13350  0.10370  Biso   1.000  H
  H38      1.0000 0.06540  0.36650  0.60370  Biso   1.000  H
  H39      1.0000 0.06540  0.63350  0.39630  Biso   1.000  H
  H40      1.0000 0.93460  0.86650  0.89630  Biso   1.000  H
  C25      1.0000 0.56510  0.27630  0.90150  Biso   1.000  C
  C26      1.0000 0.43490  0.22370  0.40150  Biso   1.000  C
  C27      1.0000 0.43490  0.77630  0.59850  Biso   1.000  C
  C28      1.0000 0.56510  0.72370  0.09850  Biso   1.000  C
  C29      1.0000 0.06510  0.77630  0.90150  Biso   1.000  C
  C30      1.0000 0.93490  0.72370  0.40150  Biso   1.000  C
  C31      1.0000 0.93490  0.27630  0.59850  Biso   1.000  C
  C32      1.0000 0.06510  0.22370  0.09850  Biso   1.000  C
  C33      1.0000 0.43490  0.72370  0.09850  Biso   1.000  C
  C34      1.0000 0.56510  0.77630  0.59850  Biso   1.000  C
  C35      1.0000 0.56510  0.22370  0.40150  Biso   1.000  C
  C36      1.0000 0.43490  0.27630  0.90150  Biso   1.000  C
  C37      1.0000 0.93490  0.22370  0.09850  Biso   1.000  C
  C38      1.0000 0.06510  0.27630  0.59850  Biso   1.000  C
  C39      1.0000 0.06510  0.72370  0.40150  Biso   1.000  C
  C40      1.0000 0.93490  0.77630  0.90150  Biso   1.000  C
  H41      1.0000 0.60840  0.27150  0.85630  Biso   1.000  H
  H42      1.0000 0.39160  0.22850  0.35630  Biso   1.000  H
  H43      1.0000 0.39160  0.77150  0.64370  Biso   1.000  H
  H44      1.0000 0.60840  0.72850  0.14370  Biso   1.000  H
  H45      1.0000 0.10840  0.77150  0.85630  Biso   1.000  H
  H46      1.0000 0.89160  0.72850  0.35630  Biso   1.000  H
  H47      1.0000 0.89160  0.27150  0.64370  Biso   1.000  H
  H48      1.0000 0.10840  0.22850  0.14370  Biso   1.000  H
  H49      1.0000 0.39160  0.72850  0.14370  Biso   1.000  H
  H50      1.0000 0.60840  0.77150  0.64370  Biso   1.000  H
  H51      1.0000 0.60840  0.22850  0.35630  Biso   1.000  H
  H52      1.0000 0.39160  0.27150  0.85630  Biso   1.000  H
  H53      1.0000 0.89160  0.22850  0.14370  Biso   1.000  H
  H54      1.0000 0.10840  0.27150  0.64370  Biso   1.000  H
  H55      1.0000 0.10840  0.72850  0.35630  Biso   1.000  H
  H56      1.0000 0.89160  0.77150  0.85630  Biso   1.000  H
  H57      1.0000 0.56460  0.24510  0.95980  Biso   1.000  H
  H58      1.0000 0.43540  0.25490  0.45980  Biso   1.000  H
  H59      1.0000 0.43540  0.74510  0.54020  Biso   1.000  H
  H60      1.0000 0.56460  0.75490  0.04020  Biso   1.000  H
  H61      1.0000 0.06460  0.74510  0.95980  Biso   1.000  H
  H62      1.0000 0.93540  0.75490  0.45980  Biso   1.000  H
  H63      1.0000 0.93540  0.24510  0.54020  Biso   1.000  H
  H64      1.0000 0.06460  0.25490  0.04020  Biso   1.000  H
  H65      1.0000 0.43540  0.75490  0.04020  Biso   1.000  H
  H66      1.0000 0.56460  0.74510  0.54020  Biso   1.000  H
  H67      1.0000 0.56460  0.25490  0.45980  Biso   1.000  H
  H68      1.0000 0.43540  0.24510  0.95980  Biso   1.000  H
  H69      1.0000 0.93540  0.25490  0.04020  Biso   1.000  H
  H70      1.0000 0.06460  0.24510  0.54020  Biso   1.000  H
  H71      1.0000 0.06460  0.75490  0.45980  Biso   1.000  H
  H72      1.0000 0.93540  0.74510  0.95980  Biso   1.000  H
  C41      1.0000 0.50000  0.26990  0.82610  Biso   1.000  C
  C42      1.0000 0.50000  0.23010  0.32610  Biso   1.000  C
  C43      1.0000 0.50000  0.76990  0.67390  Biso   1.000  C
  C44      1.0000 0.50000  0.73010  0.17390  Biso   1.000  C
  C45      1.0000 0.00000  0.76990  0.82610  Biso   1.000  C
  C46      1.0000 0.00000  0.73010  0.32610  Biso   1.000  C
  C47      1.0000 0.00000  0.26990  0.67390  Biso   1.000  C
  C48      1.0000 0.00000  0.23010  0.17390  Biso   1.000  C
  H73      1.0000 0.50000  0.30110  0.76770  Biso   1.000  H
  H74      1.0000 0.50000  0.19890  0.26770  Biso   1.000  H
  H75      1.0000 0.50000  0.80110  0.73230  Biso   1.000  H
  H76      1.0000 0.50000  0.69890  0.23230  Biso   1.000  H
  H77      1.0000 0.00000  0.80110  0.76770  Biso   1.000  H
  H78      1.0000 0.00000  0.69890  0.26770  Biso   1.000  H
  H79      1.0000 0.00000  0.30110  0.73230  Biso   1.000  H
  H80      1.0000 0.00000  0.19890  0.23230  Biso   1.000  H
  H81      1.0000 0.50000  0.23070  0.78900  Biso   1.000  H
  H82      1.0000 0.50000  0.26930  0.28900  Biso   1.000  H
  H83      1.0000 0.50000  0.73070  0.71100  Biso   1.000  H
  H84      1.0000 0.50000  0.76930  0.21100  Biso   1.000  H
  H85      1.0000 0.00000  0.73070  0.78900  Biso   1.000  H
  H86      1.0000 0.00000  0.76930  0.28900  Biso   1.000  H
  H87      1.0000 0.00000  0.23070  0.71100  Biso   1.000  H
  H88      1.0000 0.00000  0.26930  0.21100  Biso   1.000  H
  Cu1      1.0000 0.25000  0.11586  0.75000  Biso   1.000  Cu
  Cu2      1.0000 0.75000  0.38414  0.25000  Biso   1.000  Cu
  Cu3      1.0000 0.75000  0.61586  0.75000  Biso   1.000  Cu
  Cu4      1.0000 0.25000  0.88414  0.25000  Biso   1.000  Cu
  Cu5      1.0000 0.75000  0.88414  0.25000  Biso   1.000  Cu
  Cu6      1.0000 0.25000  0.61586  0.75000  Biso   1.000  Cu
  Cu7      1.0000 0.25000  0.38414  0.25000  Biso   1.000  Cu
  Cu8      1.0000 0.75000  0.11586  0.75000  Biso   1.000  Cu
  N1       1.0000 0.25000  0.02520  0.75000  Biso   1.000  N
  N2       1.0000 0.75000  0.47480  0.25000  Biso   1.000  N
  N3       1.0000 0.75000  0.52520  0.75000  Biso   1.000  N
  N4       1.0000 0.25000  0.97480  0.25000  Biso   1.000  N
  N5       1.0000 0.75000  0.97480  0.25000  Biso   1.000  N
  N6       1.0000 0.25000  0.52520  0.75000  Biso   1.000  N
  N7       1.0000 0.25000  0.47480  0.25000  Biso   1.000  N
  N8       1.0000 0.75000  0.02520  0.75000  Biso   1.000  N
  N9       1.0000 0.25000  0.70630  0.75000  Biso   1.000  N
  N10      1.0000 0.75000  0.79370  0.25000  Biso   1.000  N
  N11      1.0000 0.75000  0.20630  0.75000  Biso   1.000  N
  N12      1.0000 0.25000  0.29370  0.25000  Biso   1.000  N
  N13      1.0000 0.75000  0.29370  0.25000  Biso   1.000  N
  N14      1.0000 0.25000  0.20630  0.75000  Biso   1.000  N
  N15      1.0000 0.25000  0.79370  0.25000  Biso   1.000  N
  N16      1.0000 0.75000  0.70630  0.75000  Biso   1.000  N
  O9       1.0000 0.13340  0.11592  0.74570  Biso   1.000  O
  O10      1.0000 0.86660  0.38408  0.24570  Biso   1.000  O
  O11      1.0000 0.86660  0.61592  0.75430  Biso   1.000  O
  O12      1.0000 0.13340  0.88408  0.25430  Biso   1.000  O
  O13      1.0000 0.63340  0.61592  0.74570  Biso   1.000  O
  O14      1.0000 0.36660  0.88408  0.24570  Biso   1.000  O
  O15      1.0000 0.36660  0.11592  0.75430  Biso   1.000  O
  O16      1.0000 0.63340  0.38408  0.25430  Biso   1.000  O
  O17      1.0000 0.86660  0.88408  0.25430  Biso   1.000  O
  O18      1.0000 0.13340  0.61592  0.75430  Biso   1.000  O
  O19      1.0000 0.13340  0.38408  0.24570  Biso   1.000  O
  O20      1.0000 0.86660  0.11592  0.74570  Biso   1.000  O
  O21      1.0000 0.36660  0.38408  0.25430  Biso   1.000  O
  O22      1.0000 0.63340  0.11592  0.75430  Biso   1.000  O
  O23      1.0000 0.63340  0.88408  0.24570  Biso   1.000  O
  O24      1.0000 0.36660  0.61592  0.74570  Biso   1.000  O
  O25      1.0000 0.19000  0.11360  0.58290  Biso   1.000  O
  O26      1.0000 0.81000  0.38640  0.08290  Biso   1.000  O
  O27      1.0000 0.81000  0.61360  0.91710  Biso   1.000  O
  O28      1.0000 0.19000  0.88640  0.41710  Biso   1.000  O
  O29      1.0000 0.69000  0.61360  0.58290  Biso   1.000  O
  O30      1.0000 0.31000  0.88640  0.08290  Biso   1.000  O
  O31      1.0000 0.31000  0.11360  0.91710  Biso   1.000  O
  O32      1.0000 0.69000  0.38640  0.41710  Biso   1.000  O
  O33      1.0000 0.81000  0.88640  0.41710  Biso   1.000  O
  O34      1.0000 0.19000  0.61360  0.91710  Biso   1.000  O
  O35      1.0000 0.19000  0.38640  0.08290  Biso   1.000  O
  O36      1.0000 0.81000  0.11360  0.58290  Biso   1.000  O
  O37      1.0000 0.31000  0.38640  0.41710  Biso   1.000  O
  O38      1.0000 0.69000  0.11360  0.91710  Biso   1.000  O
  O39      1.0000 0.69000  0.88640  0.08290  Biso   1.000  O
  O40      1.0000 0.31000  0.61360  0.58290  Biso   1.000  O
  O41      1.0000 0.94040  0.03270  0.24590  Biso   1.000  O
  O42      1.0000 0.05960  0.46730  0.74590  Biso   1.000  O
  O43      1.0000 0.05960  0.53270  0.25410  Biso   1.000  O
  O44      1.0000 0.94040  0.96730  0.75410  Biso   1.000  O
  O45      1.0000 0.44040  0.53270  0.24590  Biso   1.000  O
  O46      1.0000 0.55960  0.96730  0.74590  Biso   1.000  O
  O47      1.0000 0.55960  0.03270  0.25410  Biso   1.000  O
  O48      1.0000 0.44040  0.46730  0.75410  Biso   1.000  O
  O49      1.0000 0.05960  0.96730  0.75410  Biso   1.000  O
  O50      1.0000 0.94040  0.53270  0.25410  Biso   1.000  O
  O51      1.0000 0.94040  0.46730  0.74590  Biso   1.000  O
  O52      1.0000 0.05960  0.03270  0.24590  Biso   1.000  O
  O53      1.0000 0.55960  0.46730  0.75410  Biso   1.000  O
  O54      1.0000 0.44040  0.03270  0.25410  Biso   1.000  O
  O55      1.0000 0.44040  0.96730  0.74590  Biso   1.000  O
  O56      1.0000 0.55960  0.53270  0.24590  Biso   1.000  O
  C49      1.0000 0.13270  0.11020  0.64100  Biso   1.000  C
  C50      1.0000 0.86730  0.38980  0.14100  Biso   1.000  C
  C51      1.0000 0.86730  0.61020  0.85900  Biso   1.000  C
  C52      1.0000 0.13270  0.88980  0.35900  Biso   1.000  C
  C53      1.0000 0.63270  0.61020  0.64100  Biso   1.000  C
  C54      1.0000 0.36730  0.88980  0.14100  Biso   1.000  C
  C55      1.0000 0.36730  0.11020  0.85900  Biso   1.000  C
  C56      1.0000 0.63270  0.38980  0.35900  Biso   1.000  C
  C57      1.0000 0.86730  0.88980  0.35900  Biso   1.000  C
  C58      1.0000 0.13270  0.61020  0.85900  Biso   1.000  C
  C59      1.0000 0.13270  0.38980  0.14100  Biso   1.000  C
  C60      1.0000 0.86730  0.11020  0.64100  Biso   1.000  C
  C61      1.0000 0.36730  0.38980  0.35900  Biso   1.000  C
  C62      1.0000 0.63270  0.11020  0.85900  Biso   1.000  C
  C63      1.0000 0.63270  0.88980  0.14100  Biso   1.000  C
  C64      1.0000 0.36730  0.61020  0.64100  Biso   1.000  C
  C65      1.0000 0.06440  0.09960  0.57810  Biso   1.000  C
  C66      1.0000 0.93560  0.40040  0.07810  Biso   1.000  C
  C67      1.0000 0.93560  0.59960  0.92190  Biso   1.000  C
  C68      1.0000 0.06440  0.90040  0.42190  Biso   1.000  C
  C69      1.0000 0.56440  0.59960  0.57810  Biso   1.000  C
  C70      1.0000 0.43560  0.90040  0.07810  Biso   1.000  C
  C71      1.0000 0.43560  0.09960  0.92190  Biso   1.000  C
  C72      1.0000 0.56440  0.40040  0.42190  Biso   1.000  C
  C73      1.0000 0.93560  0.90040  0.42190  Biso   1.000  C
  C74      1.0000 0.06440  0.59960  0.92190  Biso   1.000  C
  C75      1.0000 0.06440  0.40040  0.07810  Biso   1.000  C
  C76      1.0000 0.93560  0.09960  0.57810  Biso   1.000  C
  C77      1.0000 0.43560  0.40040  0.42190  Biso   1.000  C
  C78      1.0000 0.56440  0.09960  0.92190  Biso   1.000  C
  C79      1.0000 0.56440  0.90040  0.07810  Biso   1.000  C
  C80      1.0000 0.43560  0.59960  0.57810  Biso   1.000  C
  C81      1.0000 0.06400  0.08010  0.46640  Biso   1.000  C
  C82      1.0000 0.93600  0.41990  0.96640  Biso   1.000  C
  C83      1.0000 0.93600  0.58010  0.03360  Biso   1.000  C
  C84      1.0000 0.06400  0.91990  0.53360  Biso   1.000  C
  C85      1.0000 0.56400  0.58010  0.46640  Biso   1.000  C
  C86      1.0000 0.43600  0.91990  0.96640  Biso   1.000  C
  C87      1.0000 0.43600  0.08010  0.03360  Biso   1.000  C
  C88      1.0000 0.56400  0.41990  0.53360  Biso   1.000  C
  C89      1.0000 0.93600  0.91990  0.53360  Biso   1.000  C
  C90      1.0000 0.06400  0.58010  0.03360  Biso   1.000  C
  C91      1.0000 0.06400  0.41990  0.96640  Biso   1.000  C
  C92      1.0000 0.93600  0.08010  0.46640  Biso   1.000  C
  C93      1.0000 0.43600  0.41990  0.53360  Biso   1.000  C
  C94      1.0000 0.56400  0.08010  0.03360  Biso   1.000  C
  C95      1.0000 0.56400  0.91990  0.96640  Biso   1.000  C
  C96      1.0000 0.43600  0.58010  0.46640  Biso   1.000  C
  H89      1.0000 0.10740  0.07460  0.42850  Biso   1.000  H
  H90      1.0000 0.89260  0.42540  0.92850  Biso   1.000  H
  H91      1.0000 0.89260  0.57460  0.07150  Biso   1.000  H
  H92      1.0000 0.10740  0.92540  0.57150  Biso   1.000  H
  H93      1.0000 0.60740  0.57460  0.42850  Biso   1.000  H
  H94      1.0000 0.39260  0.92540  0.92850  Biso   1.000  H
  H95      1.0000 0.39260  0.07460  0.07150  Biso   1.000  H
  H96      1.0000 0.60740  0.42540  0.57150  Biso   1.000  H
  H97      1.0000 0.89260  0.92540  0.57150  Biso   1.000  H
  H98      1.0000 0.10740  0.57460  0.07150  Biso   1.000  H
  H99      1.0000 0.10740  0.42540  0.92850  Biso   1.000  H
  H100     1.0000 0.89260  0.07460  0.42850  Biso   1.000  H
  H101     1.0000 0.39260  0.42540  0.57150  Biso   1.000  H
  H102     1.0000 0.60740  0.07460  0.07150  Biso   1.000  H
  H103     1.0000 0.60740  0.92540  0.92850  Biso   1.000  H
  H104     1.0000 0.39260  0.57460  0.42850  Biso   1.000  H
  C97      1.0000 0.00000  0.06840  0.40880  Biso   1.000  C
  C98      1.0000 0.00000  0.43160  0.90880  Biso   1.000  C
  C99      1.0000 0.00000  0.56840  0.09120  Biso   1.000  C
  C100     1.0000 0.00000  0.93160  0.59120  Biso   1.000  C
  C101     1.0000 0.50000  0.56840  0.40880  Biso   1.000  C
  C102     1.0000 0.50000  0.93160  0.90880  Biso   1.000  C
  C103     1.0000 0.50000  0.06840  0.09120  Biso   1.000  C
  C104     1.0000 0.50000  0.43160  0.59120  Biso   1.000  C
  C105     1.0000 0.00000  0.10800  0.63480  Biso   1.000  C
  C106     1.0000 0.00000  0.39200  0.13480  Biso   1.000  C
  C107     1.0000 0.00000  0.60800  0.86520  Biso   1.000  C
  C108     1.0000 0.00000  0.89200  0.36520  Biso   1.000  C
  C109     1.0000 0.50000  0.60800  0.63480  Biso   1.000  C
  C110     1.0000 0.50000  0.89200  0.13480  Biso   1.000  C
  C111     1.0000 0.50000  0.10800  0.86520  Biso   1.000  C
  C112     1.0000 0.50000  0.39200  0.36520  Biso   1.000  C
  H105     1.0000 0.00000  0.11930  0.71140  Biso   1.000  H
  H106     1.0000 0.00000  0.38070  0.21140  Biso   1.000  H
  H107     1.0000 0.00000  0.61930  0.78860  Biso   1.000  H
  H108     1.0000 0.00000  0.88070  0.28860  Biso   1.000  H
  H109     1.0000 0.50000  0.61930  0.71140  Biso   1.000  H
  H110     1.0000 0.50000  0.88070  0.21140  Biso   1.000  H
  H111     1.0000 0.50000  0.11930  0.78860  Biso   1.000  H
  H112     1.0000 0.50000  0.38070  0.28860  Biso   1.000  H
  C113     1.0000 0.00000  0.04380  0.28970  Biso   1.000  C
  C114     1.0000 0.00000  0.45620  0.78970  Biso   1.000  C
  C115     1.0000 0.00000  0.54380  0.21030  Biso   1.000  C
  C116     1.0000 0.00000  0.95620  0.71030  Biso   1.000  C
  C117     1.0000 0.50000  0.54380  0.28970  Biso   1.000  C
  C118     1.0000 0.50000  0.95620  0.78970  Biso   1.000  C
  C119     1.0000 0.50000  0.04380  0.21030  Biso   1.000  C
  C120     1.0000 0.50000  0.45620  0.71030  Biso   1.000  C
  C121     1.0000 0.23140  0.99420  0.83860  Biso   1.000  C
  C122     1.0000 0.76860  0.50580  0.33860  Biso   1.000  C
  C123     1.0000 0.76860  0.49420  0.66140  Biso   1.000  C
  C124     1.0000 0.23140  0.00580  0.16140  Biso   1.000  C
  C125     1.0000 0.73140  0.49420  0.83860  Biso   1.000  C
  C126     1.0000 0.26860  0.00580  0.33860  Biso   1.000  C
  C127     1.0000 0.26860  0.99420  0.66140  Biso   1.000  C
  C128     1.0000 0.73140  0.50580  0.16140  Biso   1.000  C
  C129     1.0000 0.76860  0.00580  0.16140  Biso   1.000  C
  C130     1.0000 0.23140  0.49420  0.66140  Biso   1.000  C
  C131     1.0000 0.23140  0.50580  0.33860  Biso   1.000  C
  C132     1.0000 0.76860  0.99420  0.83860  Biso   1.000  C
  C133     1.0000 0.26860  0.50580  0.16140  Biso   1.000  C
  C134     1.0000 0.73140  0.99420  0.66140  Biso   1.000  C
  C135     1.0000 0.73140  0.00580  0.33860  Biso   1.000  C
  C136     1.0000 0.26860  0.49420  0.83860  Biso   1.000  C
  H113     1.0000 0.21740  0.01520  0.90380  Biso   1.000  H
  H114     1.0000 0.78260  0.48480  0.40380  Biso   1.000  H
  H115     1.0000 0.78260  0.51520  0.59620  Biso   1.000  H
  H116     1.0000 0.21740  0.98480  0.09620  Biso   1.000  H
  H117     1.0000 0.71740  0.51520  0.90380  Biso   1.000  H
  H118     1.0000 0.28260  0.98480  0.40380  Biso   1.000  H
  H119     1.0000 0.28260  0.01520  0.59620  Biso   1.000  H
  H120     1.0000 0.71740  0.48480  0.09620  Biso   1.000  H
  H121     1.0000 0.78260  0.98480  0.09620  Biso   1.000  H
  H122     1.0000 0.21740  0.51520  0.59620  Biso   1.000  H
  H123     1.0000 0.21740  0.48480  0.40380  Biso   1.000  H
  H124     1.0000 0.78260  0.01520  0.90380  Biso   1.000  H
  H125     1.0000 0.28260  0.48480  0.09620  Biso   1.000  H
  H126     1.0000 0.71740  0.01520  0.59620  Biso   1.000  H
  H127     1.0000 0.71740  0.98480  0.40380  Biso   1.000  H
  H128     1.0000 0.28260  0.51520  0.90380  Biso   1.000  H
  C137     1.0000 0.23080  0.93180  0.84270  Biso   1.000  C
  C138     1.0000 0.76920  0.56820  0.34270  Biso   1.000  C
  C139     1.0000 0.76920  0.43180  0.65730  Biso   1.000  C
  C140     1.0000 0.23080  0.06820  0.15730  Biso   1.000  C
  C141     1.0000 0.73080  0.43180  0.84270  Biso   1.000  C
  C142     1.0000 0.26920  0.06820  0.34270  Biso   1.000  C
  C143     1.0000 0.26920  0.93180  0.65730  Biso   1.000  C
  C144     1.0000 0.73080  0.56820  0.15730  Biso   1.000  C
  C145     1.0000 0.76920  0.06820  0.15730  Biso   1.000  C
  C146     1.0000 0.23080  0.43180  0.65730  Biso   1.000  C
  C147     1.0000 0.23080  0.56820  0.34270  Biso   1.000  C
  C148     1.0000 0.76920  0.93180  0.84270  Biso   1.000  C
  C149     1.0000 0.26920  0.56820  0.15730  Biso   1.000  C
  C150     1.0000 0.73080  0.93180  0.65730  Biso   1.000  C
  C151     1.0000 0.73080  0.06820  0.34270  Biso   1.000  C
  C152     1.0000 0.26920  0.43180  0.84270  Biso   1.000  C
  H129     1.0000 0.21710  0.91210  0.90950  Biso   1.000  H
  H130     1.0000 0.78290  0.58790  0.40950  Biso   1.000  H
  H131     1.0000 0.78290  0.41210  0.59050  Biso   1.000  H
  H132     1.0000 0.21710  0.08790  0.09050  Biso   1.000  H
  H133     1.0000 0.71710  0.41210  0.90950  Biso   1.000  H
  H134     1.0000 0.28290  0.08790  0.40950  Biso   1.000  H
  H135     1.0000 0.28290  0.91210  0.59050  Biso   1.000  H
  H136     1.0000 0.71710  0.58790  0.09050  Biso   1.000  H
  H137     1.0000 0.78290  0.08790  0.09050  Biso   1.000  H
  H138     1.0000 0.21710  0.41210  0.59050  Biso   1.000  H
  H139     1.0000 0.21710  0.58790  0.40950  Biso   1.000  H
  H140     1.0000 0.78290  0.91210  0.90950  Biso   1.000  H
  H141     1.0000 0.28290  0.58790  0.09050  Biso   1.000  H
  H142     1.0000 0.71710  0.91210  0.59050  Biso   1.000  H
  H143     1.0000 0.71710  0.08790  0.40950  Biso   1.000  H
  H144     1.0000 0.28290  0.41210  0.90950  Biso   1.000  H
  C153     1.0000 0.25000  0.89910  0.75000  Biso   1.000  C
  C154     1.0000 0.75000  0.60090  0.25000  Biso   1.000  C
  C155     1.0000 0.75000  0.39910  0.75000  Biso   1.000  C
  C156     1.0000 0.25000  0.10090  0.25000  Biso   1.000  C
  C157     1.0000 0.75000  0.10090  0.25000  Biso   1.000  C
  C158     1.0000 0.25000  0.39910  0.75000  Biso   1.000  C
  C159     1.0000 0.25000  0.60090  0.25000  Biso   1.000  C
  C160     1.0000 0.75000  0.89910  0.75000  Biso   1.000  C
  C161     1.0000 0.27480  0.73770  0.83800  Biso   1.000  C
  C162     1.0000 0.72520  0.76230  0.33800  Biso   1.000  C
  C163     1.0000 0.72520  0.23770  0.66200  Biso   1.000  C
  C164     1.0000 0.27480  0.26230  0.16200  Biso   1.000  C
  C165     1.0000 0.77480  0.23770  0.83800  Biso   1.000  C
  C166     1.0000 0.22520  0.26230  0.33800  Biso   1.000  C
  C167     1.0000 0.22520  0.73770  0.66200  Biso   1.000  C
  C168     1.0000 0.77480  0.76230  0.16200  Biso   1.000  C
  C169     1.0000 0.72520  0.26230  0.16200  Biso   1.000  C
  C170     1.0000 0.27480  0.23770  0.66200  Biso   1.000  C
  C171     1.0000 0.27480  0.76230  0.33800  Biso   1.000  C
  C172     1.0000 0.72520  0.73770  0.83800  Biso   1.000  C
  C173     1.0000 0.22520  0.76230  0.16200  Biso   1.000  C
  C174     1.0000 0.77480  0.73770  0.66200  Biso   1.000  C
  C175     1.0000 0.77480  0.26230  0.33800  Biso   1.000  C
  C176     1.0000 0.22520  0.23770  0.83800  Biso   1.000  C
  H145     1.0000 0.29250  0.71660  0.90070  Biso   1.000  H
  H146     1.0000 0.70750  0.78340  0.40070  Biso   1.000  H
  H147     1.0000 0.70750  0.21660  0.59930  Biso   1.000  H
  H148     1.0000 0.29250  0.28340  0.09930  Biso   1.000  H
  H149     1.0000 0.79250  0.21660  0.90070  Biso   1.000  H
  H150     1.0000 0.20750  0.28340  0.40070  Biso   1.000  H
  H151     1.0000 0.20750  0.71660  0.59930  Biso   1.000  H
  H152     1.0000 0.79250  0.78340  0.09930  Biso   1.000  H
  H153     1.0000 0.70750  0.28340  0.09930  Biso   1.000  H
  H154     1.0000 0.29250  0.21660  0.59930  Biso   1.000  H
  H155     1.0000 0.29250  0.78340  0.40070  Biso   1.000  H
  H156     1.0000 0.70750  0.71660  0.90070  Biso   1.000  H
  H157     1.0000 0.20750  0.78340  0.09930  Biso   1.000  H
  H158     1.0000 0.79250  0.71660  0.59930  Biso   1.000  H
  H159     1.0000 0.79250  0.28340  0.40070  Biso   1.000  H
  H160     1.0000 0.20750  0.21660  0.90070  Biso   1.000  H
  C177     1.0000 0.27580  0.80010  0.84170  Biso   1.000  C
  C178     1.0000 0.72420  0.69990  0.34170  Biso   1.000  C
  C179     1.0000 0.72420  0.30010  0.65830  Biso   1.000  C
  C180     1.0000 0.27580  0.19990  0.15830  Biso   1.000  C
  C181     1.0000 0.77580  0.30010  0.84170  Biso   1.000  C
  C182     1.0000 0.22420  0.19990  0.34170  Biso   1.000  C
  C183     1.0000 0.22420  0.80010  0.65830  Biso   1.000  C
  C184     1.0000 0.77580  0.69990  0.15830  Biso   1.000  C
  C185     1.0000 0.72420  0.19990  0.15830  Biso   1.000  C
  C186     1.0000 0.27580  0.30010  0.65830  Biso   1.000  C
  C187     1.0000 0.27580  0.69990  0.34170  Biso   1.000  C
  C188     1.0000 0.72420  0.80010  0.84170  Biso   1.000  C
  C189     1.0000 0.22420  0.69990  0.15830  Biso   1.000  C
  C190     1.0000 0.77580  0.80010  0.65830  Biso   1.000  C
  C191     1.0000 0.77580  0.19990  0.34170  Biso   1.000  C
  C192     1.0000 0.22420  0.30010  0.84170  Biso   1.000  C
  H161     1.0000 0.29370  0.82010  0.90560  Biso   1.000  H
  H162     1.0000 0.70630  0.67990  0.40560  Biso   1.000  H
  H163     1.0000 0.70630  0.32010  0.59440  Biso   1.000  H
  H164     1.0000 0.29370  0.17990  0.09440  Biso   1.000  H
  H165     1.0000 0.79370  0.32010  0.90560  Biso   1.000  H
  H166     1.0000 0.20630  0.17990  0.40560  Biso   1.000  H
  H167     1.0000 0.20630  0.82010  0.59440  Biso   1.000  H
  H168     1.0000 0.79370  0.67990  0.09440  Biso   1.000  H
  H169     1.0000 0.70630  0.17990  0.09440  Biso   1.000  H
  H170     1.0000 0.29370  0.32010  0.59440  Biso   1.000  H
  H171     1.0000 0.29370  0.67990  0.40560  Biso   1.000  H
  H172     1.0000 0.70630  0.82010  0.90560  Biso   1.000  H
  H173     1.0000 0.20630  0.67990  0.09440  Biso   1.000  H
  H174     1.0000 0.79370  0.82010  0.59440  Biso   1.000  H
  H175     1.0000 0.79370  0.17990  0.40560  Biso   1.000  H
  H176     1.0000 0.20630  0.32010  0.90560  Biso   1.000  H
  C193     1.0000 0.25000  0.83240  0.75000  Biso   1.000  C
  C194     1.0000 0.75000  0.66760  0.25000  Biso   1.000  C
  C195     1.0000 0.75000  0.33240  0.75000  Biso   1.000  C
  C196     1.0000 0.25000  0.16760  0.25000  Biso   1.000  C
  C197     1.0000 0.75000  0.16760  0.25000  Biso   1.000  C
  C198     1.0000 0.25000  0.33240  0.75000  Biso   1.000  C
  C199     1.0000 0.25000  0.66760  0.25000  Biso   1.000  C
  C200     1.0000 0.75000  0.83240  0.75000  Biso   1.000  C
  O57      1.0000 0.08740  0.98970  0.04730  Biso   1.000  O
  O58      1.0000 0.91260  0.51030  0.54730  Biso   1.000  O
  O59      1.0000 0.91260  0.48970  0.45270  Biso   1.000  O
  O60      1.0000 0.08740  0.01030  0.95270  Biso   1.000  O
  O61      1.0000 0.58740  0.48970  0.04730  Biso   1.000  O
  O62      1.0000 0.41260  0.01030  0.54730  Biso   1.000  O
  O63      1.0000 0.41260  0.98970  0.45270  Biso   1.000  O
  O64      1.0000 0.58740  0.51030  0.95270  Biso   1.000  O
  O65      1.0000 0.91260  0.01030  0.95270  Biso   1.000  O
  O66      1.0000 0.08740  0.48970  0.45270  Biso   1.000  O
  O67      1.0000 0.08740  0.51030  0.54730  Biso   1.000  O
  O68      1.0000 0.91260  0.98970  0.04730  Biso   1.000  O
  O69      1.0000 0.41260  0.51030  0.95270  Biso   1.000  O
  O70      1.0000 0.58740  0.98970  0.45270  Biso   1.000  O
  O71      1.0000 0.58740  0.01030  0.54730  Biso   1.000  O
  O72      1.0000 0.41260  0.48970  0.04730  Biso   1.000  O
  H177     1.0000 0.06360  0.01160  0.08940  Biso   1.000  H
  H178     1.0000 0.93640  0.48840  0.58940  Biso   1.000  H
  H179     1.0000 0.93640  0.51160  0.41060  Biso   1.000  H
  H180     1.0000 0.06360  0.98840  0.91060  Biso   1.000  H
  H181     1.0000 0.56360  0.51160  0.08940  Biso   1.000  H
  H182     1.0000 0.43640  0.98840  0.58940  Biso   1.000  H
  H183     1.0000 0.43640  0.01160  0.41060  Biso   1.000  H
  H184     1.0000 0.56360  0.48840  0.91060  Biso   1.000  H
  H185     1.0000 0.93640  0.98840  0.91060  Biso   1.000  H
  H186     1.0000 0.06360  0.51160  0.41060  Biso   1.000  H
  H187     1.0000 0.06360  0.48840  0.58940  Biso   1.000  H
  H188     1.0000 0.93640  0.01160  0.08940  Biso   1.000  H
  H189     1.0000 0.43640  0.48840  0.91060  Biso   1.000  H
  H190     1.0000 0.56360  0.01160  0.41060  Biso   1.000  H
  H191     1.0000 0.56360  0.98840  0.58940  Biso   1.000  H
  H192     1.0000 0.43640  0.51160  0.08940  Biso   1.000  H
