data_image0
_cell_length_a       10.9368
_cell_length_b       16.2104
_cell_length_c       10.7803
_cell_angle_alpha    90
_cell_angle_beta     90
_cell_angle_gamma    90

_symmetry_space_group_name_H-M    "P 1"
_symmetry_int_tables_number       1

loop_
  _symmetry_equiv_pos_as_xyz
  'x, y, z'

loop_
  _atom_site_label
  _atom_site_occupancy
  _atom_site_fract_x
  _atom_site_fract_y
  _atom_site_fract_z
  _atom_site_thermal_displace_type
  _atom_site_B_iso_or_equiv
  _atom_site_type_symbol
  S1       1.0000 0.27460  0.90650  0.00000  Biso   1.000  S
  S2       1.0000 0.77460  0.59350  0.50000  Biso   1.000  S
  S3       1.0000 0.22540  0.40650  0.50000  Biso   1.000  S
  S4       1.0000 0.72540  0.09350  0.00000  Biso   1.000  S
  Cu1      1.0000 0.49380  0.68166  0.50000  Biso   1.000  Cu
  Cu2      1.0000 0.99380  0.81834  0.00000  Biso   1.000  Cu
  Cu3      1.0000 0.00620  0.18166  0.00000  Biso   1.000  Cu
  Cu4      1.0000 0.50620  0.31834  0.50000  Biso   1.000  Cu
  Cu5      1.0000 0.50000  0.50000  0.36457  Biso   1.000  Cu
  Cu6      1.0000 0.50000  0.50000  0.63543  Biso   1.000  Cu
  Cu7      1.0000 0.00000  0.00000  0.86457  Biso   1.000  Cu
  Cu8      1.0000 0.00000  0.00000  0.13543  Biso   1.000  Cu
  O1       1.0000 0.19740  0.90820  0.90130  Biso   1.000  O
  O2       1.0000 0.19740  0.90820  0.09870  Biso   1.000  O
  O3       1.0000 0.69740  0.59180  0.40130  Biso   1.000  O
  O4       1.0000 0.30260  0.40820  0.40130  Biso   1.000  O
  O5       1.0000 0.80260  0.09180  0.09870  Biso   1.000  O
  O6       1.0000 0.80260  0.09180  0.90130  Biso   1.000  O
  O7       1.0000 0.30260  0.40820  0.59870  Biso   1.000  O
  O8       1.0000 0.69740  0.59180  0.59870  Biso   1.000  O
  O9       1.0000 0.35480  0.95960  0.92150  Biso   1.000  O
  O10      1.0000 0.35480  0.95960  0.07850  Biso   1.000  O
  O11      1.0000 0.85480  0.54040  0.42150  Biso   1.000  O
  O12      1.0000 0.14520  0.45960  0.42150  Biso   1.000  O
  O13      1.0000 0.64520  0.04040  0.07850  Biso   1.000  O
  O14      1.0000 0.64520  0.04040  0.92150  Biso   1.000  O
  O15      1.0000 0.14520  0.45960  0.57850  Biso   1.000  O
  O16      1.0000 0.85480  0.54040  0.57850  Biso   1.000  O
  O17      1.0000 0.45610  0.69420  0.32420  Biso   1.000  O
  O18      1.0000 0.45610  0.69420  0.67580  Biso   1.000  O
  O19      1.0000 0.95610  0.80580  0.82420  Biso   1.000  O
  O20      1.0000 0.04390  0.19420  0.82420  Biso   1.000  O
  O21      1.0000 0.54390  0.30580  0.67580  Biso   1.000  O
  O22      1.0000 0.54390  0.30580  0.32420  Biso   1.000  O
  O23      1.0000 0.04390  0.19420  0.17580  Biso   1.000  O
  O24      1.0000 0.95610  0.80580  0.17580  Biso   1.000  O
  O25      1.0000 0.44140  0.57040  0.23320  Biso   1.000  O
  O26      1.0000 0.44140  0.57040  0.76680  Biso   1.000  O
  O27      1.0000 0.94140  0.92960  0.73320  Biso   1.000  O
  O28      1.0000 0.05860  0.07040  0.73320  Biso   1.000  O
  O29      1.0000 0.55860  0.42960  0.76680  Biso   1.000  O
  O30      1.0000 0.55860  0.42960  0.23320  Biso   1.000  O
  O31      1.0000 0.05860  0.07040  0.26680  Biso   1.000  O
  O32      1.0000 0.94140  0.92960  0.26680  Biso   1.000  O
  O33      1.0000 0.43370  0.56800  0.50000  Biso   1.000  O
  O34      1.0000 0.93370  0.93200  0.00000  Biso   1.000  O
  O35      1.0000 0.06630  0.06800  0.00000  Biso   1.000  O
  O36      1.0000 0.56630  0.43200  0.50000  Biso   1.000  O
  N1       1.0000 0.56230  0.79850  0.50000  Biso   1.000  N
  N2       1.0000 0.06230  0.70150  0.00000  Biso   1.000  N
  N3       1.0000 0.93770  0.29850  0.00000  Biso   1.000  N
  N4       1.0000 0.43770  0.20150  0.50000  Biso   1.000  N
  N5       1.0000 0.79420  0.20850  0.50000  Biso   1.000  N
  N6       1.0000 0.29420  0.29150  0.00000  Biso   1.000  N
  N7       1.0000 0.70580  0.70850  0.00000  Biso   1.000  N
  N8       1.0000 0.20580  0.79150  0.50000  Biso   1.000  N
  C1       1.0000 0.43770  0.64710  0.23310  Biso   1.000  C
  C2       1.0000 0.43770  0.64710  0.76690  Biso   1.000  C
  C3       1.0000 0.93770  0.85290  0.73310  Biso   1.000  C
  C4       1.0000 0.06230  0.14710  0.73310  Biso   1.000  C
  C5       1.0000 0.56230  0.35290  0.76690  Biso   1.000  C
  C6       1.0000 0.56230  0.35290  0.23310  Biso   1.000  C
  C7       1.0000 0.06230  0.14710  0.26690  Biso   1.000  C
  C8       1.0000 0.93770  0.85290  0.26690  Biso   1.000  C
  C9       1.0000 0.41250  0.68840  0.11150  Biso   1.000  C
  C10      1.0000 0.41250  0.68840  0.88850  Biso   1.000  C
  C11      1.0000 0.91250  0.81160  0.61150  Biso   1.000  C
  C12      1.0000 0.08750  0.18840  0.61150  Biso   1.000  C
  C13      1.0000 0.58750  0.31160  0.88850  Biso   1.000  C
  C14      1.0000 0.58750  0.31160  0.11150  Biso   1.000  C
  C15      1.0000 0.08750  0.18840  0.38850  Biso   1.000  C
  C16      1.0000 0.91250  0.81160  0.38850  Biso   1.000  C
  C17      1.0000 0.37110  0.76960  0.11010  Biso   1.000  C
  C18      1.0000 0.37110  0.76960  0.88990  Biso   1.000  C
  C19      1.0000 0.87110  0.73040  0.61010  Biso   1.000  C
  C20      1.0000 0.12890  0.26960  0.61010  Biso   1.000  C
  C21      1.0000 0.62890  0.23040  0.88990  Biso   1.000  C
  C22      1.0000 0.62890  0.23040  0.11010  Biso   1.000  C
  C23      1.0000 0.12890  0.26960  0.38990  Biso   1.000  C
  C24      1.0000 0.87110  0.73040  0.38990  Biso   1.000  C
  H1       1.0000 0.36800  0.79600  0.18100  Biso   1.000  H
  H2       1.0000 0.36800  0.79600  0.81900  Biso   1.000  H
  H3       1.0000 0.86800  0.70400  0.68100  Biso   1.000  H
  H4       1.0000 0.13200  0.29600  0.68100  Biso   1.000  H
  H5       1.0000 0.63200  0.20400  0.81900  Biso   1.000  H
  H6       1.0000 0.63200  0.20400  0.18100  Biso   1.000  H
  H7       1.0000 0.13200  0.29600  0.31900  Biso   1.000  H
  H8       1.0000 0.86800  0.70400  0.31900  Biso   1.000  H
  C25      1.0000 0.34780  0.80960  0.00000  Biso   1.000  C
  C26      1.0000 0.84780  0.69040  0.50000  Biso   1.000  C
  C27      1.0000 0.15220  0.30960  0.50000  Biso   1.000  C
  C28      1.0000 0.65220  0.19040  0.00000  Biso   1.000  C
  C29      1.0000 0.42790  0.64660  0.00000  Biso   1.000  C
  C30      1.0000 0.92790  0.85340  0.50000  Biso   1.000  C
  C31      1.0000 0.07210  0.14660  0.50000  Biso   1.000  C
  C32      1.0000 0.57210  0.35340  0.00000  Biso   1.000  C
  H9       1.0000 0.45200  0.59100  0.00000  Biso   1.000  H
  H10      1.0000 0.95200  0.90900  0.50000  Biso   1.000  H
  H11      1.0000 0.04800  0.09100  0.50000  Biso   1.000  H
  H12      1.0000 0.54800  0.40900  0.00000  Biso   1.000  H
  C33      1.0000 0.58550  0.83910  0.39510  Biso   1.000  C
  C34      1.0000 0.58550  0.83910  0.60490  Biso   1.000  C
  C35      1.0000 0.08550  0.66090  0.89510  Biso   1.000  C
  C36      1.0000 0.91450  0.33910  0.89510  Biso   1.000  C
  C37      1.0000 0.41450  0.16090  0.60490  Biso   1.000  C
  C38      1.0000 0.41450  0.16090  0.39510  Biso   1.000  C
  C39      1.0000 0.91450  0.33910  0.10490  Biso   1.000  C
  C40      1.0000 0.08550  0.66090  0.10490  Biso   1.000  C
  H13      1.0000 0.57600  0.81400  0.32300  Biso   1.000  H
  H14      1.0000 0.57600  0.81400  0.67700  Biso   1.000  H
  H15      1.0000 0.07600  0.68600  0.82300  Biso   1.000  H
  H16      1.0000 0.92400  0.31400  0.82300  Biso   1.000  H
  H17      1.0000 0.42400  0.18600  0.67700  Biso   1.000  H
  H18      1.0000 0.42400  0.18600  0.32300  Biso   1.000  H
  H19      1.0000 0.92400  0.31400  0.17700  Biso   1.000  H
  H20      1.0000 0.07600  0.68600  0.17700  Biso   1.000  H
  C41      1.0000 0.63140  0.91810  0.39230  Biso   1.000  C
  C42      1.0000 0.63140  0.91810  0.60770  Biso   1.000  C
  C43      1.0000 0.13140  0.58190  0.89230  Biso   1.000  C
  C44      1.0000 0.86860  0.41810  0.89230  Biso   1.000  C
  C45      1.0000 0.36860  0.08190  0.60770  Biso   1.000  C
  C46      1.0000 0.36860  0.08190  0.39230  Biso   1.000  C
  C47      1.0000 0.86860  0.41810  0.10770  Biso   1.000  C
  C48      1.0000 0.13140  0.58190  0.10770  Biso   1.000  C
  H21      1.0000 0.63800  0.94400  0.31900  Biso   1.000  H
  H22      1.0000 0.63800  0.94400  0.68100  Biso   1.000  H
  H23      1.0000 0.13800  0.55600  0.81900  Biso   1.000  H
  H24      1.0000 0.86200  0.44400  0.81900  Biso   1.000  H
  H25      1.0000 0.36200  0.05600  0.68100  Biso   1.000  H
  H26      1.0000 0.36200  0.05600  0.31900  Biso   1.000  H
  H27      1.0000 0.86200  0.44400  0.18100  Biso   1.000  H
  H28      1.0000 0.13800  0.55600  0.18100  Biso   1.000  H
  C49      1.0000 0.65570  0.96160  0.50000  Biso   1.000  C
  C50      1.0000 0.15570  0.53840  0.00000  Biso   1.000  C
  C51      1.0000 0.84430  0.46160  0.00000  Biso   1.000  C
  C52      1.0000 0.34430  0.03840  0.50000  Biso   1.000  C
  C53      1.0000 0.70670  0.04570  0.50000  Biso   1.000  C
  C54      1.0000 0.20670  0.45430  0.00000  Biso   1.000  C
  C55      1.0000 0.79330  0.54570  0.00000  Biso   1.000  C
  C56      1.0000 0.29330  0.95430  0.50000  Biso   1.000  C
  C57      1.0000 0.73190  0.08670  0.60910  Biso   1.000  C
  C58      1.0000 0.73190  0.08670  0.39090  Biso   1.000  C
  C59      1.0000 0.23190  0.41330  0.10910  Biso   1.000  C
  C60      1.0000 0.76810  0.58670  0.10910  Biso   1.000  C
  C61      1.0000 0.26810  0.91330  0.39090  Biso   1.000  C
  C62      1.0000 0.26810  0.91330  0.60910  Biso   1.000  C
  C63      1.0000 0.76810  0.58670  0.89090  Biso   1.000  C
  C64      1.0000 0.23190  0.41330  0.89090  Biso   1.000  C
  H29      1.0000 0.72000  0.06100  0.67900  Biso   1.000  H
  H30      1.0000 0.72000  0.06100  0.32100  Biso   1.000  H
  H31      1.0000 0.22000  0.43900  0.17900  Biso   1.000  H
  H32      1.0000 0.78000  0.56100  0.17900  Biso   1.000  H
  H33      1.0000 0.28000  0.93900  0.32100  Biso   1.000  H
  H34      1.0000 0.28000  0.93900  0.67900  Biso   1.000  H
  H35      1.0000 0.78000  0.56100  0.82100  Biso   1.000  H
  H36      1.0000 0.22000  0.43900  0.82100  Biso   1.000  H
  C65      1.0000 0.77450  0.16700  0.60350  Biso   1.000  C
  C66      1.0000 0.77450  0.16700  0.39650  Biso   1.000  C
  C67      1.0000 0.27450  0.33300  0.10350  Biso   1.000  C
  C68      1.0000 0.72550  0.66700  0.10350  Biso   1.000  C
  C69      1.0000 0.22550  0.83300  0.39650  Biso   1.000  C
  C70      1.0000 0.22550  0.83300  0.60350  Biso   1.000  C
  C71      1.0000 0.72550  0.66700  0.89650  Biso   1.000  C
  C72      1.0000 0.27450  0.33300  0.89650  Biso   1.000  C
  H37      1.0000 0.80400  0.19500  0.67200  Biso   1.000  H
  H38      1.0000 0.80400  0.19500  0.32800  Biso   1.000  H
  H39      1.0000 0.30400  0.30500  0.17200  Biso   1.000  H
  H40      1.0000 0.69600  0.69500  0.17200  Biso   1.000  H
  H41      1.0000 0.19600  0.80500  0.32800  Biso   1.000  H
  H42      1.0000 0.19600  0.80500  0.67200  Biso   1.000  H
  H43      1.0000 0.69600  0.69500  0.82800  Biso   1.000  H
  H44      1.0000 0.30400  0.30500  0.82800  Biso   1.000  H
  O37      1.0000 0.20340  0.62060  0.44910  Biso   1.000  O
  O38      1.0000 0.20340  0.62060  0.55090  Biso   1.000  O
  O39      1.0000 0.70340  0.87940  0.94910  Biso   1.000  O
  O40      1.0000 0.29660  0.12060  0.94910  Biso   1.000  O
  O41      1.0000 0.79660  0.37940  0.55090  Biso   1.000  O
  O42      1.0000 0.79660  0.37940  0.44910  Biso   1.000  O
  O43      1.0000 0.29660  0.12060  0.05090  Biso   1.000  O
  O44      1.0000 0.70340  0.87940  0.05090  Biso   1.000  O
