data_image0
_cell_length_a       7.8327
_cell_length_b       19.556
_cell_length_c       12.624
_cell_angle_alpha    90
_cell_angle_beta     97.82
_cell_angle_gamma    90

_symmetry_space_group_name_H-M    "P 1"
_symmetry_int_tables_number       1

loop_
  _symmetry_equiv_pos_as_xyz
  'x, y, z'

loop_
  _atom_site_label
  _atom_site_occupancy
  _atom_site_fract_x
  _atom_site_fract_y
  _atom_site_fract_z
  _atom_site_thermal_displace_type
  _atom_site_B_iso_or_equiv
  _atom_site_type_symbol
  S1       1.0000 0.56910  0.32613  0.12750  Biso   1.000  S
  S2       1.0000 0.43090  0.82613  0.87250  Biso   1.000  S
  O1       1.0000 0.63100  0.33540  0.02620  Biso   1.000  O
  O2       1.0000 0.36900  0.83540  0.97380  Biso   1.000  O
  F1       1.0000 0.88730  0.30260  0.21730  Biso   1.000  F
  F2       1.0000 0.11270  0.80260  0.78270  Biso   1.000  F
  F3       1.0000 0.69300  0.26100  0.30220  Biso   1.000  F
  F4       1.0000 0.30700  0.76100  0.69780  Biso   1.000  F
  O3       1.0000 0.41770  0.28170  0.12510  Biso   1.000  O
  O4       1.0000 0.58230  0.78170  0.87490  Biso   1.000  O
  F5       1.0000 0.75260  0.21670  0.15650  Biso   1.000  F
  F6       1.0000 0.24740  0.71670  0.84350  Biso   1.000  F
  C1       1.0000 0.72600  0.27480  0.20480  Biso   1.000  C
  C2       1.0000 0.27400  0.77480  0.79520  Biso   1.000  C
  O5       1.0000 0.56830  0.38580  0.18810  Biso   1.000  O
  O6       1.0000 0.43170  0.88580  0.81190  Biso   1.000  O
  S3       1.0000 0.27640  0.62800  0.33630  Biso   1.000  S
  S4       1.0000 0.72360  0.12800  0.66370  Biso   1.000  S
  O7       1.0000 0.26080  0.63070  0.44620  Biso   1.000  O
  O8       1.0000 0.73920  0.13070  0.55380  Biso   1.000  O
  F7       1.0000 0.35900  0.72430  0.21030  Biso   1.000  F
  F8       1.0000 0.64100  0.22430  0.78970  Biso   1.000  F
  F9       1.0000 0.50860  0.71880  0.36950  Biso   1.000  F
  F10      1.0000 0.49140  0.21880  0.63050  Biso   1.000  F
  F11      1.0000 0.25270  0.75930  0.34720  Biso   1.000  F
  F12      1.0000 0.74730  0.25930  0.65280  Biso   1.000  F
  O9       1.0000 0.41900  0.58390  0.31280  Biso   1.000  O
  O10      1.0000 0.58100  0.08390  0.68720  Biso   1.000  O
  C3       1.0000 0.35200  0.70840  0.32160  Biso   1.000  C
  C4       1.0000 0.64800  0.20840  0.67840  Biso   1.000  C
  O11      1.0000 0.12900  0.62340  0.25900  Biso   1.000  O
  O12      1.0000 0.87100  0.12340  0.74100  Biso   1.000  O
  Cu1      1.0000 0.95289  0.45050  0.64413  Biso   1.000  Cu
  Cu2      1.0000 0.04711  0.95050  0.35587  Biso   1.000  Cu
  N1       1.0000 0.83800  0.56780  0.95940  Biso   1.000  N
  N2       1.0000 0.16200  0.06780  0.04060  Biso   1.000  N
  O13      1.0000 0.82290  0.46640  0.76120  Biso   1.000  O
  O14      1.0000 0.17710  0.96640  0.23880  Biso   1.000  O
  N3       1.0000 0.11180  0.42870  0.53220  Biso   1.000  N
  N4       1.0000 0.88820  0.92870  0.46780  Biso   1.000  N
  C5       1.0000 0.94320  0.65230  0.67830  Biso   1.000  C
  C6       1.0000 0.05680  0.15230  0.32170  Biso   1.000  C
  H1       1.0000 0.05290  0.63900  0.66120  Biso   1.000  H
  H2       1.0000 0.94710  0.13900  0.33880  Biso   1.000  H
  C7       1.0000 0.00690  0.34360  0.80590  Biso   1.000  C
  C8       1.0000 0.99310  0.84360  0.19410  Biso   1.000  C
  H3       1.0000 0.90410  0.36100  0.82790  Biso   1.000  H
  H4       1.0000 0.09590  0.86100  0.17210  Biso   1.000  H
  N5       1.0000 0.79880  0.51220  0.54990  Biso   1.000  N
  N6       1.0000 0.20120  0.01220  0.45010  Biso   1.000  N
  N7       1.0000 0.16410  0.49520  0.94850  Biso   1.000  N
  N8       1.0000 0.83590  0.99520  0.05150  Biso   1.000  N
  C9       1.0000 0.85840  0.53720  0.44920  Biso   1.000  C
  C10      1.0000 0.14160  0.03720  0.55080  Biso   1.000  C
  H5       1.0000 0.95760  0.56840  0.46720  Biso   1.000  H
  H6       1.0000 0.04240  0.06840  0.53280  Biso   1.000  H
  H7       1.0000 0.76440  0.56310  0.40670  Biso   1.000  H
  H8       1.0000 0.23560  0.06310  0.59330  Biso   1.000  H
  C11      1.0000 0.12290  0.48040  0.05530  Biso   1.000  C
  C12      1.0000 0.87710  0.98040  0.94470  Biso   1.000  C
  H9       1.0000 0.14940  0.52110  0.10140  Biso   1.000  H
  H10      1.0000 0.85060  0.02110  0.89860  Biso   1.000  H
  H11      1.0000 0.19610  0.44220  0.08660  Biso   1.000  H
  H12      1.0000 0.80390  0.94220  0.91340  Biso   1.000  H
  C13      1.0000 0.65190  0.48040  0.75150  Biso   1.000  C
  C14      1.0000 0.34810  0.98040  0.24850  Biso   1.000  C
  C15      1.0000 0.64980  0.53520  0.56900  Biso   1.000  C
  C16      1.0000 0.35020  0.03520  0.43100  Biso   1.000  C
  H13      1.0000 0.58980  0.56560  0.51830  Biso   1.000  H
  H14      1.0000 0.41020  0.06560  0.48170  Biso   1.000  H
  O15      1.0000 0.89380  0.62630  0.75970  Biso   1.000  O
  O16      1.0000 0.10620  0.12630  0.24030  Biso   1.000  O
  O17      1.0000 0.05710  0.37070  0.72600  Biso   1.000  O
  O18      1.0000 0.94290  0.87070  0.27400  Biso   1.000  O
  C17      1.0000 0.56150  0.46320  0.83390  Biso   1.000  C
  C18      1.0000 0.43850  0.96320  0.16610  Biso   1.000  C
  H15      1.0000 0.61650  0.43710  0.89230  Biso   1.000  H
  H16      1.0000 0.38350  0.93710  0.10770  Biso   1.000  H
  C19      1.0000 0.31190  0.47190  0.92690  Biso   1.000  C
  C20      1.0000 0.68810  0.97190  0.07310  Biso   1.000  C
  H17      1.0000 0.37530  0.44410  0.98010  Biso   1.000  H
  H18      1.0000 0.62470  0.94410  0.01990  Biso   1.000  H
  C21      1.0000 0.30440  0.51870  0.74680  Biso   1.000  C
  C22      1.0000 0.69560  0.01870  0.25320  Biso   1.000  C
  N9       1.0000 0.85630  0.69560  0.61640  Biso   1.000  N
  N10      1.0000 0.14370  0.19560  0.38360  Biso   1.000  N
  C23      1.0000 0.72280  0.61680  0.93990  Biso   1.000  C
  C24      1.0000 0.27720  0.11680  0.06010  Biso   1.000  C
  H19      1.0000 0.72800  0.64590  0.88010  Biso   1.000  H
  H20      1.0000 0.27200  0.14590  0.11990  Biso   1.000  H
  C25      1.0000 0.56800  0.51750  0.66330  Biso   1.000  C
  C26      1.0000 0.43200  0.01750  0.33670  Biso   1.000  C
  C27      1.0000 0.38820  0.48370  0.83290  Biso   1.000  C
  C28      1.0000 0.61180  0.98370  0.16710  Biso   1.000  C
  N11      1.0000 0.08210  0.29450  0.86080  Biso   1.000  N
  N12      1.0000 0.91790  0.79450  0.13920  Biso   1.000  N
  C29      1.0000 0.57810  0.58420  0.08630  Biso   1.000  C
  C30      1.0000 0.42190  0.08420  0.91370  Biso   1.000  C
  H21      1.0000 0.48970  0.59090  0.12980  Biso   1.000  H
  H22      1.0000 0.51030  0.09090  0.87020  Biso   1.000  H
  C31      1.0000 0.39490  0.53680  0.66040  Biso   1.000  C
  C32      1.0000 0.60510  0.03680  0.33960  Biso   1.000  C
  H23      1.0000 0.33860  0.56180  0.60120  Biso   1.000  H
  H24      1.0000 0.66140  0.06180  0.39880  Biso   1.000  H
  C33      1.0000 0.08300  0.44490  0.42880  Biso   1.000  C
  C34      1.0000 0.91700  0.94490  0.57120  Biso   1.000  C
  C35      1.0000 0.59250  0.62760  0.00430  Biso   1.000  C
  C36      1.0000 0.40750  0.12760  0.99570  Biso   1.000  C
  H25      1.0000 0.51530  0.66500  0.99050  Biso   1.000  H
  H26      1.0000 0.48470  0.16500  0.00950  Biso   1.000  H
  C37      1.0000 0.36550  0.40400  0.40180  Biso   1.000  C
  C38      1.0000 0.63450  0.90400  0.59820  Biso   1.000  C
  H27      1.0000 0.45410  0.39740  0.35840  Biso   1.000  H
  H28      1.0000 0.54590  0.89740  0.64160  Biso   1.000  H
  C39      1.0000 0.38820  0.38360  0.50620  Biso   1.000  C
  C40      1.0000 0.61180  0.88360  0.49380  Biso   1.000  C
  H29      1.0000 0.49060  0.36050  0.53520  Biso   1.000  H
  H30      1.0000 0.50940  0.86050  0.46480  Biso   1.000  H
  C41      1.0000 0.82070  0.52180  0.03630  Biso   1.000  C
  C42      1.0000 0.17930  0.02180  0.96370  Biso   1.000  C
  C43      1.0000 0.68940  0.53130  0.10630  Biso   1.000  C
  C44      1.0000 0.31060  0.03130  0.89370  Biso   1.000  C
  H31      1.0000 0.68190  0.50120  0.16450  Biso   1.000  H
  H32      1.0000 0.31810  0.00120  0.83550  Biso   1.000  H
  C45      1.0000 0.26170  0.39680  0.56910  Biso   1.000  C
  C46      1.0000 0.73830  0.89680  0.43090  Biso   1.000  C
  H33      1.0000 0.28040  0.38300  0.64180  Biso   1.000  H
  H34      1.0000 0.71960  0.88300  0.35820  Biso   1.000  H
  C47      1.0000 0.67760  0.71900  0.63840  Biso   1.000  C
  C48      1.0000 0.32240  0.21900  0.36160  Biso   1.000  C
  H35      1.0000 0.61890  0.68090  0.66880  Biso   1.000  H
  H36      1.0000 0.38110  0.18090  0.33120  Biso   1.000  H
  H37      1.0000 0.60970  0.73380  0.57140  Biso   1.000  H
  H38      1.0000 0.39030  0.23380  0.42860  Biso   1.000  H
  H39      1.0000 0.69010  0.75710  0.68920  Biso   1.000  H
  H40      1.0000 0.30990  0.25710  0.31080  Biso   1.000  H
  C49      1.0000 0.92460  0.72930  0.52580  Biso   1.000  C
  C50      1.0000 0.07540  0.22930  0.47420  Biso   1.000  C
  H41      1.0000 0.92490  0.77900  0.53600  Biso   1.000  H
  H42      1.0000 0.07510  0.27900  0.46400  Biso   1.000  H
  H43      1.0000 0.85170  0.71770  0.45880  Biso   1.000  H
  H44      1.0000 0.14830  0.21770  0.54120  Biso   1.000  H
  H45      1.0000 0.04250  0.71350  0.52250  Biso   1.000  H
  H46      1.0000 0.95750  0.21350  0.47750  Biso   1.000  H
  C51      1.0000 0.01300  0.26200  0.95270  Biso   1.000  C
  C52      1.0000 0.98700  0.76200  0.04730  Biso   1.000  C
  H47      1.0000 0.08780  0.27310  0.01910  Biso   1.000  H
  H48      1.0000 0.91220  0.77310  0.98090  Biso   1.000  H
  H49      1.0000 0.00920  0.21220  0.94290  Biso   1.000  H
  H50      1.0000 0.99080  0.71220  0.05710  Biso   1.000  H
  H51      1.0000 0.89650  0.27910  0.95660  Biso   1.000  H
  H52      1.0000 0.10350  0.77910  0.04340  Biso   1.000  H
  C53      1.0000 0.91110  0.47800  0.38380  Biso   1.000  C
  C54      1.0000 0.08890  0.97800  0.61620  Biso   1.000  C
  H53      1.0000 0.91920  0.49440  0.31040  Biso   1.000  H
  H54      1.0000 0.08080  0.99440  0.68960  Biso   1.000  H
  H55      1.0000 0.81980  0.44270  0.37870  Biso   1.000  H
  H56      1.0000 0.18020  0.94270  0.62130  Biso   1.000  H
  C55      1.0000 0.93670  0.46160  0.05370  Biso   1.000  C
  C56      1.0000 0.06330  0.96160  0.94630  Biso   1.000  C
  H57      1.0000 0.90380  0.42790  0.99610  Biso   1.000  H
  H58      1.0000 0.09620  0.92790  0.00390  Biso   1.000  H
  H59      1.0000 0.92130  0.43980  0.12250  Biso   1.000  H
  H60      1.0000 0.07870  0.93980  0.87750  Biso   1.000  H
  C57      1.0000 0.20750  0.43520  0.35910  Biso   1.000  C
  C58      1.0000 0.79250  0.93520  0.64090  Biso   1.000  C
  H61      1.0000 0.18620  0.44910  0.28640  Biso   1.000  H
  H62      1.0000 0.81380  0.94910  0.71360  Biso   1.000  H
  C59      1.0000 0.24900  0.26790  0.83540  Biso   1.000  C
  C60      1.0000 0.75100  0.76790  0.16460  Biso   1.000  C
  H63      1.0000 0.28510  0.29440  0.77640  Biso   1.000  H
  H64      1.0000 0.71490  0.79440  0.22360  Biso   1.000  H
  H65      1.0000 0.23610  0.21970  0.81460  Biso   1.000  H
  H66      1.0000 0.76390  0.71970  0.18540  Biso   1.000  H
  H67      1.0000 0.33620  0.27210  0.89850  Biso   1.000  H
  H68      1.0000 0.66380  0.77210  0.10150  Biso   1.000  H
  Cu3      1.0000 0.00460  0.54938  0.84928  Biso   1.000  Cu
  Cu4      1.0000 0.99540  0.04938  0.15072  Biso   1.000  Cu
  O19      1.0000 0.13540  0.53310  0.73370  Biso   1.000  O
  O20      1.0000 0.86460  0.03310  0.26630  Biso   1.000  O
