data_image0
_cell_length_a       10.9255
_cell_length_b       7.96493
_cell_length_c       18.3689
_cell_angle_alpha    90
_cell_angle_beta     116.075
_cell_angle_gamma    90

_symmetry_space_group_name_H-M    "P 1"
_symmetry_int_tables_number       1

loop_
  _symmetry_equiv_pos_as_xyz
  'x, y, z'

loop_
  _atom_site_label
  _atom_site_occupancy
  _atom_site_fract_x
  _atom_site_fract_y
  _atom_site_fract_z
  _atom_site_thermal_displace_type
  _atom_site_B_iso_or_equiv
  _atom_site_type_symbol
  Cu1      1.0000 0.92175  0.00243  0.05060  Biso   1.000  Cu
  Cu2      1.0000 0.07825  0.50243  0.44940  Biso   1.000  Cu
  Cu3      1.0000 0.07825  0.99757  0.94940  Biso   1.000  Cu
  Cu4      1.0000 0.92175  0.49757  0.55060  Biso   1.000  Cu
  S1       1.0000 0.23032  0.00500  0.21914  Biso   1.000  S
  S2       1.0000 0.76968  0.50500  0.28086  Biso   1.000  S
  S3       1.0000 0.76968  0.99500  0.78086  Biso   1.000  S
  S4       1.0000 0.23032  0.49500  0.71914  Biso   1.000  S
  F1       1.0000 0.33742  0.70424  0.22527  Biso   1.000  F
  F2       1.0000 0.66258  0.20424  0.27473  Biso   1.000  F
  F3       1.0000 0.66258  0.29576  0.77473  Biso   1.000  F
  F4       1.0000 0.33742  0.79576  0.72527  Biso   1.000  F
  F5       1.0000 0.31127  0.85026  0.12091  Biso   1.000  F
  F6       1.0000 0.68873  0.35026  0.37909  Biso   1.000  F
  F7       1.0000 0.68873  0.14974  0.87909  Biso   1.000  F
  F8       1.0000 0.31127  0.64974  0.62091  Biso   1.000  F
  F9       1.0000 0.46233  0.91197  0.24078  Biso   1.000  F
  F10      1.0000 0.53767  0.41197  0.25922  Biso   1.000  F
  F11      1.0000 0.53767  0.08803  0.75922  Biso   1.000  F
  F12      1.0000 0.46233  0.58803  0.74078  Biso   1.000  F
  O1       1.0000 0.00968  0.14655  0.00411  Biso   1.000  O
  O2       1.0000 0.99032  0.64655  0.49589  Biso   1.000  O
  O3       1.0000 0.99032  0.85345  0.99589  Biso   1.000  O
  O4       1.0000 0.00968  0.35345  0.50411  Biso   1.000  O
  O5       1.0000 0.10149  0.92913  0.17427  Biso   1.000  O
  O6       1.0000 0.89851  0.42913  0.32573  Biso   1.000  O
  O7       1.0000 0.89851  0.07087  0.82573  Biso   1.000  O
  O8       1.0000 0.10149  0.57087  0.67427  Biso   1.000  O
  O9       1.0000 0.25112  0.16531  0.19085  Biso   1.000  O
  O10      1.0000 0.74888  0.66531  0.30915  Biso   1.000  O
  O11      1.0000 0.74888  0.83469  0.80915  Biso   1.000  O
  O12      1.0000 0.25112  0.33469  0.69085  Biso   1.000  O
  O13      1.0000 0.28548  0.99390  0.30467  Biso   1.000  O
  O14      1.0000 0.71452  0.49390  0.19533  Biso   1.000  O
  O15      1.0000 0.71452  0.00610  0.69533  Biso   1.000  O
  O16      1.0000 0.28548  0.50610  0.80467  Biso   1.000  O
  N1       1.0000 0.75955  0.86807  0.04273  Biso   1.000  N
  N2       1.0000 0.24045  0.36807  0.45727  Biso   1.000  N
  N3       1.0000 0.24045  0.13193  0.95727  Biso   1.000  N
  N4       1.0000 0.75955  0.63193  0.54273  Biso   1.000  N
  N5       1.0000 0.89156  0.18529  0.11061  Biso   1.000  N
  N6       1.0000 0.10844  0.68529  0.38939  Biso   1.000  N
  N7       1.0000 0.10844  0.81471  0.88939  Biso   1.000  N
  N8       1.0000 0.89156  0.31471  0.61061  Biso   1.000  N
  C1       1.0000 0.68141  0.79661  0.97127  Biso   1.000  C
  C2       1.0000 0.31859  0.29661  0.52873  Biso   1.000  C
  C3       1.0000 0.31859  0.20339  0.02873  Biso   1.000  C
  C4       1.0000 0.68141  0.70339  0.47127  Biso   1.000  C
  H1       1.0000 0.71352  0.79210  0.92919  Biso   1.000  H
  H2       1.0000 0.28648  0.29210  0.57081  Biso   1.000  H
  H3       1.0000 0.28648  0.20790  0.07081  Biso   1.000  H
  H4       1.0000 0.71352  0.70790  0.42919  Biso   1.000  H
  C5       1.0000 0.55454  0.73046  0.95656  Biso   1.000  C
  C6       1.0000 0.44546  0.23046  0.54344  Biso   1.000  C
  C7       1.0000 0.44546  0.26954  0.04344  Biso   1.000  C
  C8       1.0000 0.55454  0.76954  0.45656  Biso   1.000  C
  H5       1.0000 0.49442  0.67950  0.90419  Biso   1.000  H
  H6       1.0000 0.50558  0.17950  0.59581  Biso   1.000  H
  H7       1.0000 0.50558  0.32050  0.09581  Biso   1.000  H
  H8       1.0000 0.49442  0.82050  0.40419  Biso   1.000  H
  C9       1.0000 0.51657  0.74102  0.01903  Biso   1.000  C
  C10      1.0000 0.48343  0.24102  0.48097  Biso   1.000  C
  C11      1.0000 0.48343  0.25898  0.98097  Biso   1.000  C
  C12      1.0000 0.51657  0.75898  0.51903  Biso   1.000  C
  H9       1.0000 0.42839  0.69470  0.01131  Biso   1.000  H
  H10      1.0000 0.57161  0.19470  0.48869  Biso   1.000  H
  H11      1.0000 0.57161  0.30530  0.98869  Biso   1.000  H
  H12      1.0000 0.42839  0.80530  0.51131  Biso   1.000  H
  C13      1.0000 0.60205  0.81285  0.09234  Biso   1.000  C
  C14      1.0000 0.39795  0.31285  0.40766  Biso   1.000  C
  C15      1.0000 0.39795  0.18715  0.90766  Biso   1.000  C
  C16      1.0000 0.60205  0.68715  0.59234  Biso   1.000  C
  H13      1.0000 0.57734  0.81990  0.13731  Biso   1.000  H
  H14      1.0000 0.42266  0.31990  0.36269  Biso   1.000  H
  H15      1.0000 0.42266  0.18010  0.86269  Biso   1.000  H
  H16      1.0000 0.57734  0.68010  0.63731  Biso   1.000  H
  C17      1.0000 0.72927  0.87522  0.10546  Biso   1.000  C
  C18      1.0000 0.27073  0.37522  0.39454  Biso   1.000  C
  C19      1.0000 0.27073  0.12478  0.89454  Biso   1.000  C
  C20      1.0000 0.72927  0.62478  0.60546  Biso   1.000  C
  C21      1.0000 0.81592  0.96013  0.18146  Biso   1.000  C
  C22      1.0000 0.18408  0.46013  0.31854  Biso   1.000  C
  C23      1.0000 0.18408  0.03987  0.81854  Biso   1.000  C
  C24      1.0000 0.81592  0.53987  0.68146  Biso   1.000  C
  H17      1.0000 0.78057  0.94550  0.22266  Biso   1.000  H
  H18      1.0000 0.21943  0.44550  0.27734  Biso   1.000  H
  H19      1.0000 0.21943  0.05450  0.77734  Biso   1.000  H
  H20      1.0000 0.78057  0.55450  0.72266  Biso   1.000  H
  H21      1.0000 0.90702  0.90700  0.20292  Biso   1.000  H
  H22      1.0000 0.09298  0.40700  0.29708  Biso   1.000  H
  H23      1.0000 0.09298  0.09300  0.79708  Biso   1.000  H
  H24      1.0000 0.90702  0.59300  0.70292  Biso   1.000  H
  C25      1.0000 0.82808  0.14812  0.16603  Biso   1.000  C
  C26      1.0000 0.17192  0.64812  0.33397  Biso   1.000  C
  C27      1.0000 0.17192  0.85188  0.83397  Biso   1.000  C
  C28      1.0000 0.82808  0.35188  0.66603  Biso   1.000  C
  H25      1.0000 0.88050  0.20200  0.22030  Biso   1.000  H
  H26      1.0000 0.11950  0.70200  0.27970  Biso   1.000  H
  H27      1.0000 0.11950  0.79800  0.77970  Biso   1.000  H
  H28      1.0000 0.88050  0.29800  0.72030  Biso   1.000  H
  H29      1.0000 0.73513  0.19900  0.14237  Biso   1.000  H
  H30      1.0000 0.26487  0.69900  0.35763  Biso   1.000  H
  H31      1.0000 0.26487  0.80100  0.85763  Biso   1.000  H
  H32      1.0000 0.73513  0.30100  0.64237  Biso   1.000  H
  C29      1.0000 0.91733  0.33759  0.10376  Biso   1.000  C
  C30      1.0000 0.08267  0.83759  0.39624  Biso   1.000  C
  C31      1.0000 0.08267  0.66241  0.89624  Biso   1.000  C
  C32      1.0000 0.91733  0.16241  0.60376  Biso   1.000  C
  H33      1.0000 0.89327  0.41784  0.13563  Biso   1.000  H
  H34      1.0000 0.10673  0.91784  0.36437  Biso   1.000  H
  H35      1.0000 0.10673  0.58216  0.86437  Biso   1.000  H
  H36      1.0000 0.89327  0.08216  0.63563  Biso   1.000  H
  C33      1.0000 0.96174  0.41425  0.05202  Biso   1.000  C
  C34      1.0000 0.03826  0.91425  0.44798  Biso   1.000  C
  C35      1.0000 0.03826  0.58575  0.94798  Biso   1.000  C
  C36      1.0000 0.96174  0.08575  0.55202  Biso   1.000  C
  C37      1.0000 0.00058  0.32223  0.99989  Biso   1.000  C
  C38      1.0000 0.99942  0.82223  0.50011  Biso   1.000  C
  C39      1.0000 0.99942  0.67777  0.00011  Biso   1.000  C
  C40      1.0000 0.00058  0.17777  0.49989  Biso   1.000  C
  C41      1.0000 0.04331  0.41104  0.95064  Biso   1.000  C
  C42      1.0000 0.95669  0.91104  0.54936  Biso   1.000  C
  C43      1.0000 0.95669  0.58896  0.04936  Biso   1.000  C
  C44      1.0000 0.04331  0.08896  0.45064  Biso   1.000  C
  H37      1.0000 0.07163  0.34780  0.91553  Biso   1.000  H
  H38      1.0000 0.92837  0.84780  0.58447  Biso   1.000  H
  H39      1.0000 0.92837  0.65220  0.08447  Biso   1.000  H
  H40      1.0000 0.07163  0.15220  0.41553  Biso   1.000  H
  C45      1.0000 0.34096  0.85981  0.20035  Biso   1.000  C
  C46      1.0000 0.65904  0.35981  0.29965  Biso   1.000  C
  C47      1.0000 0.65904  0.14019  0.79965  Biso   1.000  C
  C48      1.0000 0.34096  0.64019  0.70035  Biso   1.000  C
