data_image0
_cell_length_a       8.488
_cell_length_b       8.782
_cell_length_c       8.799
_cell_angle_alpha    91.632
_cell_angle_beta     102.516
_cell_angle_gamma    96.535

_symmetry_space_group_name_H-M    "P 1"
_symmetry_int_tables_number       1

loop_
  _symmetry_equiv_pos_as_xyz
  'x, y, z'

loop_
  _atom_site_label
  _atom_site_occupancy
  _atom_site_fract_x
  _atom_site_fract_y
  _atom_site_fract_z
  _atom_site_thermal_displace_type
  _atom_site_B_iso_or_equiv
  _atom_site_type_symbol
  Cu1      1.0000 0.50000  0.50000  0.50000  Biso   1.000  Cu
  Ni1      1.0000 0.00000  0.50000  0.50000  Biso   1.000  Ni
  N1       1.0000 0.55950  0.67820  0.37730  Biso   1.000  N
  N2       1.0000 0.44050  0.32180  0.62270  Biso   1.000  N
  H1       1.0000 0.55100  0.76880  0.42830  Biso   1.000  H
  H2       1.0000 0.44900  0.23120  0.57170  Biso   1.000  H
  H3       1.0000 0.66520  0.67930  0.36690  Biso   1.000  H
  H4       1.0000 0.33480  0.32070  0.63310  Biso   1.000  H
  C1       1.0000 0.44810  0.66260  0.22250  Biso   1.000  C
  C2       1.0000 0.55190  0.33740  0.77750  Biso   1.000  C
  H5       1.0000 0.49710  0.72380  0.14780  Biso   1.000  H
  H6       1.0000 0.50290  0.27620  0.85220  Biso   1.000  H
  H7       1.0000 0.34430  0.70090  0.22870  Biso   1.000  H
  H8       1.0000 0.65570  0.29910  0.77130  Biso   1.000  H
  C3       1.0000 0.41790  0.49600  0.16840  Biso   1.000  C
  C4       1.0000 0.58210  0.50400  0.83160  Biso   1.000  C
  H9       1.0000 0.33040  0.48010  0.07250  Biso   1.000  H
  H10      1.0000 0.66960  0.51990  0.92750  Biso   1.000  H
  H11      1.0000 0.51780  0.46260  0.14440  Biso   1.000  H
  H12      1.0000 0.48220  0.53740  0.85560  Biso   1.000  H
  N3       1.0000 0.36990  0.40600  0.29290  Biso   1.000  N
  N4       1.0000 0.63010  0.59400  0.70710  Biso   1.000  N
  H13      1.0000 0.38940  0.30600  0.28090  Biso   1.000  H
  H14      1.0000 0.61060  0.69400  0.71910  Biso   1.000  H
  H15      1.0000 0.26060  0.40650  0.28820  Biso   1.000  H
  H16      1.0000 0.73940  0.59350  0.71180  Biso   1.000  H
  O1       1.0000 0.02560  0.40720  0.28910  Biso   1.000  O
  O2       1.0000 0.97440  0.59280  0.71090  Biso   1.000  O
  O3       1.0000 0.76810  0.31920  0.17970  Biso   1.000  O
  O4       1.0000 0.23190  0.68080  0.82030  Biso   1.000  O
  C5       1.0000 0.91720  0.33830  0.17990  Biso   1.000  C
  C6       1.0000 0.08280  0.66170  0.82010  Biso   1.000  C
  C7       1.0000 0.97040  0.27710  0.03910  Biso   1.000  C
  C8       1.0000 0.02960  0.72290  0.96090  Biso   1.000  C
  H17      1.0000 0.89120  0.19120  0.98740  Biso   1.000  H
  H18      1.0000 0.10880  0.80880  0.01260  Biso   1.000  H
  H19      1.0000 0.07730  0.24170  0.07230  Biso   1.000  H
  H20      1.0000 0.92270  0.75830  0.92770  Biso   1.000  H
  H21      1.0000 0.97700  0.35870  0.96630  Biso   1.000  H
  H22      1.0000 0.02300  0.64130  0.03370  Biso   1.000  H
  O5       1.0000 0.09000  0.31300  0.60930  Biso   1.000  O
  O6       1.0000 0.91000  0.68700  0.39070  Biso   1.000  O
  O7       1.0000 0.86130  0.17220  0.62980  Biso   1.000  O
  O8       1.0000 0.13870  0.82780  0.37020  Biso   1.000  O
  C9       1.0000 0.01290  0.19440  0.64820  Biso   1.000  C
  C10      1.0000 0.98710  0.80560  0.35180  Biso   1.000  C
  C11      1.0000 0.11070  0.07130  0.72050  Biso   1.000  C
  C12      1.0000 0.88930  0.92870  0.27950  Biso   1.000  C
  H23      1.0000 0.03840  0.99020  0.75390  Biso   1.000  H
  H24      1.0000 0.96160  0.00980  0.24610  Biso   1.000  H
  H25      1.0000 0.19370  0.11610  0.81100  Biso   1.000  H
  H26      1.0000 0.80630  0.88390  0.18900  Biso   1.000  H
  H27      1.0000 0.16350  0.02770  0.64370  Biso   1.000  H
  H28      1.0000 0.83650  0.97230  0.35630  Biso   1.000  H
  O9       1.0000 0.75910  0.39900  0.46610  Biso   1.000  O
  O10      1.0000 0.24090  0.60100  0.53390  Biso   1.000  O
  H29      1.0000 0.74900  0.37800  0.37200  Biso   1.000  H
  H30      1.0000 0.25100  0.62200  0.62800  Biso   1.000  H
  H31      1.0000 0.78000  0.32400  0.51500  Biso   1.000  H
  H32      1.0000 0.22000  0.67600  0.48500  Biso   1.000  H
  O11      1.0000 0.50150  0.09850  0.08060  Biso   1.000  O
  O12      1.0000 0.49850  0.90150  0.91940  Biso   1.000  O
  H33      1.0000 0.56700  0.17200  0.12400  Biso   1.000  H
  H34      1.0000 0.43300  0.82800  0.87600  Biso   1.000  H
  H35      1.0000 0.54400  0.02300  0.07400  Biso   1.000  H
  H36      1.0000 0.45600  0.97700  0.92600  Biso   1.000  H
  O13      1.0000 0.59100  0.96730  0.59550  Biso   1.000  O
  O14      1.0000 0.40900  0.03270  0.40450  Biso   1.000  O
  H37      1.0000 0.68700  0.01200  0.61800  Biso   1.000  H
  H38      1.0000 0.31300  0.98800  0.38200  Biso   1.000  H
  H39      1.0000 0.57500  0.94400  0.68400  Biso   1.000  H
  H40      1.0000 0.42500  0.05600  0.31600  Biso   1.000  H
  H41      1.0000 0.71700  0.98800  0.67600  Biso   1.000  H
  H42      1.0000 0.28300  0.01200  0.32400  Biso   1.000  H
  H43      1.0000 0.56900  0.98200  0.57700  Biso   1.000  H
  H44      1.0000 0.43100  0.01800  0.42300  Biso   1.000  H
  O15      1.0000 0.62480  0.94530  0.65630  Biso   1.000  O
  O16      1.0000 0.37520  0.05470  0.34370  Biso   1.000  O
