data_image0
_cell_length_a       10.357
_cell_length_b       11.245
_cell_length_c       27.541
_cell_angle_alpha    90
_cell_angle_beta     94.2
_cell_angle_gamma    90

_symmetry_space_group_name_H-M    "P 1"
_symmetry_int_tables_number       1

loop_
  _symmetry_equiv_pos_as_xyz
  'x, y, z'

loop_
  _atom_site_label
  _atom_site_occupancy
  _atom_site_fract_x
  _atom_site_fract_y
  _atom_site_fract_z
  _atom_site_thermal_displace_type
  _atom_site_B_iso_or_equiv
  _atom_site_type_symbol
  Cu1      1.0000 0.28795  0.10771  0.35966  Biso   1.000  Cu
  Cu2      1.0000 0.21205  0.60771  0.14034  Biso   1.000  Cu
  Cu3      1.0000 0.71205  0.89229  0.64034  Biso   1.000  Cu
  Cu4      1.0000 0.78795  0.39229  0.85966  Biso   1.000  Cu
  S1       1.0000 0.86770  0.46800  0.44806  Biso   1.000  S
  S2       1.0000 0.63230  0.96800  0.05194  Biso   1.000  S
  S3       1.0000 0.13230  0.53200  0.55194  Biso   1.000  S
  S4       1.0000 0.36770  0.03200  0.94806  Biso   1.000  S
  S5       1.0000 0.75180  0.37830  0.49123  Biso   1.000  S
  S6       1.0000 0.74820  0.87830  0.00877  Biso   1.000  S
  S7       1.0000 0.24820  0.62170  0.50877  Biso   1.000  S
  S8       1.0000 0.25180  0.12170  0.99123  Biso   1.000  S
  S9       1.0000 0.69770  0.86540  0.21762  Biso   1.000  S
  S10      1.0000 0.80230  0.36540  0.28238  Biso   1.000  S
  S11      1.0000 0.30230  0.13460  0.78238  Biso   1.000  S
  S12      1.0000 0.19770  0.63460  0.71762  Biso   1.000  S
  S13      1.0000 0.82840  0.76860  0.25836  Biso   1.000  S
  S14      1.0000 0.67160  0.26860  0.24164  Biso   1.000  S
  S15      1.0000 0.17160  0.23140  0.74164  Biso   1.000  S
  S16      1.0000 0.32840  0.73140  0.75836  Biso   1.000  S
  C1       1.0000 0.35610  0.59380  0.32933  Biso   1.000  C
  C2       1.0000 0.14390  0.09380  0.17067  Biso   1.000  C
  C3       1.0000 0.64390  0.40620  0.67067  Biso   1.000  C
  C4       1.0000 0.85610  0.90620  0.82933  Biso   1.000  C
  C5       1.0000 0.74870  0.96060  0.44924  Biso   1.000  C
  C6       1.0000 0.75130  0.46060  0.05076  Biso   1.000  C
  C7       1.0000 0.25130  0.03940  0.55076  Biso   1.000  C
  C8       1.0000 0.24870  0.53940  0.94924  Biso   1.000  C
  F1       1.0000 0.80720  0.00740  0.49350  Biso   1.000  F
  F2       1.0000 0.69280  0.50740  0.00650  Biso   1.000  F
  F3       1.0000 0.19280  0.99260  0.50650  Biso   1.000  F
  F4       1.0000 0.30720  0.49260  0.99350  Biso   1.000  F
  F5       1.0000 0.77660  0.02380  0.40670  Biso   1.000  F
  F6       1.0000 0.72340  0.52380  0.09330  Biso   1.000  F
  F7       1.0000 0.22340  0.97620  0.59330  Biso   1.000  F
  F8       1.0000 0.27660  0.47620  0.90670  Biso   1.000  F
  F9       1.0000 0.61530  0.92550  0.45140  Biso   1.000  F
  F10      1.0000 0.88470  0.42550  0.04860  Biso   1.000  F
  F11      1.0000 0.38470  0.07450  0.54860  Biso   1.000  F
  F12      1.0000 0.11530  0.57450  0.95140  Biso   1.000  F
  F13      1.0000 0.38280  0.47510  0.31280  Biso   1.000  F
  F14      1.0000 0.11720  0.97510  0.18720  Biso   1.000  F
  F15      1.0000 0.61720  0.52490  0.68720  Biso   1.000  F
  F16      1.0000 0.88280  0.02490  0.81280  Biso   1.000  F
  F17      1.0000 0.37520  0.68590  0.29500  Biso   1.000  F
  F18      1.0000 0.12480  0.18590  0.20500  Biso   1.000  F
  F19      1.0000 0.62480  0.31410  0.70500  Biso   1.000  F
  F20      1.0000 0.87520  0.81410  0.79500  Biso   1.000  F
  F21      1.0000 0.23920  0.60690  0.35350  Biso   1.000  F
  F22      1.0000 0.26080  0.10690  0.14650  Biso   1.000  F
  F23      1.0000 0.76080  0.39310  0.64650  Biso   1.000  F
  F24      1.0000 0.73920  0.89310  0.85350  Biso   1.000  F
  O1       1.0000 0.27020  0.25690  0.29210  Biso   1.000  O
  O2       1.0000 0.22980  0.75690  0.20790  Biso   1.000  O
  O3       1.0000 0.72980  0.74310  0.70790  Biso   1.000  O
  O4       1.0000 0.77020  0.24310  0.79210  Biso   1.000  O
  O5       1.0000 0.32360  0.95330  0.42280  Biso   1.000  O
  O6       1.0000 0.17640  0.45330  0.07720  Biso   1.000  O
  O7       1.0000 0.67640  0.04670  0.57720  Biso   1.000  O
  O8       1.0000 0.82360  0.54670  0.92280  Biso   1.000  O
  O9       1.0000 0.80370  0.74490  0.47830  Biso   1.000  O
  O10      1.0000 0.69630  0.24490  0.02170  Biso   1.000  O
  O11      1.0000 0.19630  0.25510  0.52170  Biso   1.000  O
  O12      1.0000 0.30370  0.75510  0.97830  Biso   1.000  O
  O13      1.0000 0.95770  0.83410  0.44570  Biso   1.000  O
  O14      1.0000 0.54230  0.33410  0.05430  Biso   1.000  O
  O15      1.0000 0.04230  0.16590  0.55430  Biso   1.000  O
  O16      1.0000 0.45770  0.66590  0.94570  Biso   1.000  O
  O17      1.0000 0.79700  0.76810  0.40040  Biso   1.000  O
  O18      1.0000 0.70300  0.26810  0.09960  Biso   1.000  O
  O19      1.0000 0.20300  0.23190  0.59960  Biso   1.000  O
  O20      1.0000 0.29700  0.73190  0.90040  Biso   1.000  O
  O21      1.0000 0.47300  0.54600  0.41210  Biso   1.000  O
  O22      1.0000 0.02700  0.04600  0.08790  Biso   1.000  O
  O23      1.0000 0.52700  0.45400  0.58790  Biso   1.000  O
  O24      1.0000 0.97300  0.95400  0.91210  Biso   1.000  O
  O25      1.0000 0.59810  0.60300  0.35830  Biso   1.000  O
  O26      1.0000 0.90190  0.10300  0.14170  Biso   1.000  O
  O27      1.0000 0.40190  0.39700  0.64170  Biso   1.000  O
  O28      1.0000 0.09810  0.89700  0.85830  Biso   1.000  O
  O29      1.0000 0.48000  0.73030  0.39280  Biso   1.000  O
  O30      1.0000 0.02000  0.23030  0.10720  Biso   1.000  O
  O31      1.0000 0.52000  0.26970  0.60720  Biso   1.000  O
  O32      1.0000 0.98000  0.76970  0.89280  Biso   1.000  O
  N1       1.0000 0.41190  0.02240  0.31740  Biso   1.000  N
  N2       1.0000 0.08810  0.52240  0.18260  Biso   1.000  N
  N3       1.0000 0.58810  0.97760  0.68260  Biso   1.000  N
  N4       1.0000 0.91190  0.47760  0.81740  Biso   1.000  N
  N5       1.0000 0.14010  0.00950  0.32920  Biso   1.000  N
  N6       1.0000 0.35990  0.50950  0.17080  Biso   1.000  N
  N7       1.0000 0.85990  0.99050  0.67080  Biso   1.000  N
  N8       1.0000 0.64010  0.49050  0.82920  Biso   1.000  N
  N9       1.0000 0.43600  0.19740  0.39600  Biso   1.000  N
  N10      1.0000 0.06400  0.69740  0.10400  Biso   1.000  N
  N11      1.0000 0.56400  0.80260  0.60400  Biso   1.000  N
  N12      1.0000 0.93600  0.30260  0.89600  Biso   1.000  N
  N13      1.0000 0.16060  0.20900  0.39340  Biso   1.000  N
  N14      1.0000 0.33940  0.70900  0.10660  Biso   1.000  N
  N15      1.0000 0.83940  0.79100  0.60660  Biso   1.000  N
  N16      1.0000 0.66060  0.29100  0.89340  Biso   1.000  N
  C9       1.0000 0.43530  0.19940  0.44500  Biso   1.000  C
  C10      1.0000 0.06470  0.69940  0.05500  Biso   1.000  C
  C11      1.0000 0.56470  0.80060  0.55500  Biso   1.000  C
  C12      1.0000 0.93530  0.30060  0.94500  Biso   1.000  C
  H1       1.0000 0.36980  0.16060  0.46020  Biso   1.000  H
  H2       1.0000 0.13020  0.66060  0.03980  Biso   1.000  H
  H3       1.0000 0.63020  0.83940  0.53980  Biso   1.000  H
  H4       1.0000 0.86980  0.33940  0.96020  Biso   1.000  H
  C13      1.0000 0.53090  0.25850  0.47280  Biso   1.000  C
  C14      1.0000 0.96910  0.75850  0.02720  Biso   1.000  C
  C15      1.0000 0.46910  0.74150  0.52720  Biso   1.000  C
  C16      1.0000 0.03090  0.24150  0.97280  Biso   1.000  C
  H5       1.0000 0.52780  0.26190  0.50640  Biso   1.000  H
  H6       1.0000 0.97220  0.76190  0.99360  Biso   1.000  H
  H7       1.0000 0.47220  0.73810  0.49360  Biso   1.000  H
  H8       1.0000 0.02780  0.23810  0.00640  Biso   1.000  H
  C17      1.0000 0.63120  0.31250  0.45110  Biso   1.000  C
  C18      1.0000 0.86880  0.81250  0.04890  Biso   1.000  C
  C19      1.0000 0.36880  0.68750  0.54890  Biso   1.000  C
  C20      1.0000 0.13120  0.18750  0.95110  Biso   1.000  C
  C21      1.0000 0.63260  0.30730  0.40060  Biso   1.000  C
  C22      1.0000 0.86740  0.80730  0.09940  Biso   1.000  C
  C23      1.0000 0.36740  0.69270  0.59940  Biso   1.000  C
  C24      1.0000 0.13260  0.19270  0.90060  Biso   1.000  C
  H9       1.0000 0.69950  0.34120  0.38450  Biso   1.000  H
  H10      1.0000 0.80050  0.84120  0.11550  Biso   1.000  H
  H11      1.0000 0.30050  0.65880  0.61550  Biso   1.000  H
  H12      1.0000 0.19950  0.15880  0.88450  Biso   1.000  H
  C25      1.0000 0.53300  0.25140  0.37580  Biso   1.000  C
  C26      1.0000 0.96700  0.75140  0.12420  Biso   1.000  C
  C27      1.0000 0.46700  0.74860  0.62420  Biso   1.000  C
  C28      1.0000 0.03300  0.24860  0.87580  Biso   1.000  C
  H13      1.0000 0.53220  0.25050  0.34200  Biso   1.000  H
  H14      1.0000 0.96780  0.75050  0.15800  Biso   1.000  H
  H15      1.0000 0.46780  0.74950  0.65800  Biso   1.000  H
  H16      1.0000 0.03220  0.24950  0.84200  Biso   1.000  H
  C29      1.0000 0.97970  0.35650  0.43020  Biso   1.000  C
  C30      1.0000 0.52030  0.85650  0.06980  Biso   1.000  C
  C31      1.0000 0.02030  0.64350  0.56980  Biso   1.000  C
  C32      1.0000 0.47970  0.14350  0.93020  Biso   1.000  C
  C33      1.0000 0.08660  0.40560  0.40890  Biso   1.000  C
  C34      1.0000 0.41340  0.90560  0.09110  Biso   1.000  C
  C35      1.0000 0.91340  0.59440  0.59110  Biso   1.000  C
  C36      1.0000 0.58660  0.09440  0.90890  Biso   1.000  C
  H17      1.0000 0.09860  0.48740  0.40660  Biso   1.000  H
  H18      1.0000 0.40140  0.98740  0.09340  Biso   1.000  H
  H19      1.0000 0.90140  0.51260  0.59340  Biso   1.000  H
  H20      1.0000 0.59860  0.01260  0.90660  Biso   1.000  H
  C37      1.0000 0.17380  0.32470  0.39130  Biso   1.000  C
  C38      1.0000 0.32620  0.82470  0.10870  Biso   1.000  C
  C39      1.0000 0.82620  0.67530  0.60870  Biso   1.000  C
  C40      1.0000 0.67380  0.17530  0.89130  Biso   1.000  C
  H21      1.0000 0.24590  0.35480  0.37720  Biso   1.000  H
  H22      1.0000 0.25410  0.85480  0.12280  Biso   1.000  H
  H23      1.0000 0.75410  0.64520  0.62280  Biso   1.000  H
  H24      1.0000 0.74590  0.14520  0.87720  Biso   1.000  H
  C41      1.0000 0.05820  0.16900  0.41540  Biso   1.000  C
  C42      1.0000 0.44180  0.66900  0.08460  Biso   1.000  C
  C43      1.0000 0.94180  0.83100  0.58460  Biso   1.000  C
  C44      1.0000 0.55820  0.33100  0.91540  Biso   1.000  C
  H25      1.0000 0.04970  0.08700  0.41790  Biso   1.000  H
  H26      1.0000 0.45030  0.58700  0.08210  Biso   1.000  H
  H27      1.0000 0.95030  0.91300  0.58210  Biso   1.000  H
  H28      1.0000 0.54970  0.41300  0.91790  Biso   1.000  H
  C45      1.0000 0.96710  0.23500  0.43420  Biso   1.000  C
  C46      1.0000 0.53290  0.73500  0.06580  Biso   1.000  C
  C47      1.0000 0.03290  0.76500  0.56580  Biso   1.000  C
  C48      1.0000 0.46710  0.26500  0.93420  Biso   1.000  C
  H29      1.0000 0.89870  0.20070  0.44930  Biso   1.000  H
  H30      1.0000 0.60130  0.70070  0.05070  Biso   1.000  H
  H31      1.0000 0.10130  0.79930  0.55070  Biso   1.000  H
  H32      1.0000 0.39870  0.29930  0.94930  Biso   1.000  H
  C49      1.0000 0.14280  0.89150  0.33200  Biso   1.000  C
  C50      1.0000 0.35720  0.39150  0.16800  Biso   1.000  C
  C51      1.0000 0.85720  0.10850  0.66800  Biso   1.000  C
  C52      1.0000 0.64280  0.60850  0.83200  Biso   1.000  C
  H33      1.0000 0.21310  0.85650  0.34950  Biso   1.000  H
  H34      1.0000 0.28690  0.35650  0.15050  Biso   1.000  H
  H35      1.0000 0.78690  0.14350  0.65050  Biso   1.000  H
  H36      1.0000 0.71310  0.64350  0.84950  Biso   1.000  H
  C53      1.0000 0.04920  0.81750  0.31110  Biso   1.000  C
  C54      1.0000 0.45080  0.31750  0.18890  Biso   1.000  C
  C55      1.0000 0.95080  0.18250  0.68890  Biso   1.000  C
  C56      1.0000 0.54920  0.68250  0.81110  Biso   1.000  C
  H37      1.0000 0.05610  0.73530  0.31440  Biso   1.000  H
  H38      1.0000 0.44390  0.23530  0.18560  Biso   1.000  H
  H39      1.0000 0.94390  0.26470  0.68560  Biso   1.000  H
  H40      1.0000 0.55610  0.76470  0.81440  Biso   1.000  H
  C57      1.0000 0.94480  0.86840  0.28500  Biso   1.000  C
  C58      1.0000 0.55520  0.36840  0.21500  Biso   1.000  C
  C59      1.0000 0.05520  0.13160  0.71500  Biso   1.000  C
  C60      1.0000 0.44480  0.63160  0.78500  Biso   1.000  C
  C61      1.0000 0.93960  0.98840  0.28120  Biso   1.000  C
  C62      1.0000 0.56040  0.48840  0.21880  Biso   1.000  C
  C63      1.0000 0.06040  0.01160  0.71880  Biso   1.000  C
  C64      1.0000 0.43960  0.51160  0.78120  Biso   1.000  C
  H41      1.0000 0.87030  0.02360  0.26330  Biso   1.000  H
  H42      1.0000 0.62970  0.52360  0.23670  Biso   1.000  H
  H43      1.0000 0.12970  0.97640  0.73670  Biso   1.000  H
  H44      1.0000 0.37030  0.47640  0.76330  Biso   1.000  H
  C65      1.0000 0.03640  0.06050  0.30380  Biso   1.000  C
  C66      1.0000 0.46360  0.56050  0.19620  Biso   1.000  C
  C67      1.0000 0.96360  0.93950  0.69620  Biso   1.000  C
  C68      1.0000 0.53640  0.43950  0.80380  Biso   1.000  C
  H45      1.0000 0.03010  0.14280  0.30140  Biso   1.000  H
  H46      1.0000 0.46990  0.64280  0.19860  Biso   1.000  H
  H47      1.0000 0.96990  0.85720  0.69860  Biso   1.000  H
  H48      1.0000 0.53010  0.35720  0.80140  Biso   1.000  H
  C69      1.0000 0.58830  0.92020  0.25900  Biso   1.000  C
  C70      1.0000 0.91170  0.42020  0.24100  Biso   1.000  C
  C71      1.0000 0.41170  0.07980  0.74100  Biso   1.000  C
  C72      1.0000 0.08830  0.57980  0.75900  Biso   1.000  C
  C73      1.0000 0.61330  0.92490  0.30780  Biso   1.000  C
  C74      1.0000 0.88670  0.42490  0.19220  Biso   1.000  C
  C75      1.0000 0.38670  0.07510  0.69220  Biso   1.000  C
  C76      1.0000 0.11330  0.57510  0.80780  Biso   1.000  C
  H49      1.0000 0.69060  0.89490  0.32220  Biso   1.000  H
  H50      1.0000 0.80940  0.39490  0.17780  Biso   1.000  H
  H51      1.0000 0.30940  0.10510  0.67780  Biso   1.000  H
  H52      1.0000 0.19060  0.60510  0.82220  Biso   1.000  H
  C77      1.0000 0.52310  0.97440  0.33590  Biso   1.000  C
  C78      1.0000 0.97690  0.47440  0.16410  Biso   1.000  C
  C79      1.0000 0.47690  0.02560  0.66410  Biso   1.000  C
  C80      1.0000 0.02310  0.52560  0.83590  Biso   1.000  C
  H53      1.0000 0.54010  0.97450  0.36960  Biso   1.000  H
  H54      1.0000 0.95990  0.47450  0.13040  Biso   1.000  H
  H55      1.0000 0.45990  0.02550  0.63040  Biso   1.000  H
  H56      1.0000 0.04010  0.52550  0.86960  Biso   1.000  H
  C81      1.0000 0.39050  0.01560  0.26960  Biso   1.000  C
  C82      1.0000 0.10950  0.51560  0.23040  Biso   1.000  C
  C83      1.0000 0.60950  0.98440  0.73040  Biso   1.000  C
  C84      1.0000 0.89050  0.48440  0.76960  Biso   1.000  C
  H57      1.0000 0.31260  0.04550  0.25570  Biso   1.000  H
  H58      1.0000 0.18740  0.54550  0.24430  Biso   1.000  H
  H59      1.0000 0.68740  0.95450  0.74430  Biso   1.000  H
  H60      1.0000 0.81260  0.45450  0.75570  Biso   1.000  H
  C85      1.0000 0.47370  0.96830  0.23970  Biso   1.000  C
  C86      1.0000 0.02630  0.46830  0.26030  Biso   1.000  C
  C87      1.0000 0.52630  0.03170  0.76030  Biso   1.000  C
  C88      1.0000 0.97370  0.53170  0.73970  Biso   1.000  C
  H61      1.0000 0.45390  0.96810  0.20620  Biso   1.000  H
  H62      1.0000 0.04610  0.46810  0.29380  Biso   1.000  H
  H63      1.0000 0.54610  0.03190  0.79380  Biso   1.000  H
  H64      1.0000 0.95390  0.53190  0.70620  Biso   1.000  H
  S17      1.0000 0.48700  0.62100  0.37610  Biso   1.000  S
  S18      1.0000 0.01300  0.12100  0.12390  Biso   1.000  S
  S19      1.0000 0.51300  0.37900  0.62390  Biso   1.000  S
  S20      1.0000 0.98700  0.87900  0.87610  Biso   1.000  S
  S21      1.0000 0.82880  0.81490  0.44290  Biso   1.000  S
  S22      1.0000 0.67120  0.31490  0.05710  Biso   1.000  S
  S23      1.0000 0.17120  0.18510  0.55710  Biso   1.000  S
  S24      1.0000 0.32880  0.68510  0.94290  Biso   1.000  S
  H65      1.0000 0.31230  0.96000  0.45610  Biso   1.000  H
  H66      1.0000 0.18770  0.46000  0.04390  Biso   1.000  H
  H67      1.0000 0.68770  0.04000  0.54390  Biso   1.000  H
  H68      1.0000 0.81230  0.54000  0.95610  Biso   1.000  H
  H69      1.0000 0.41750  0.96420  0.43110  Biso   1.000  H
  H70      1.0000 0.08250  0.46420  0.06890  Biso   1.000  H
  H71      1.0000 0.58250  0.03580  0.56890  Biso   1.000  H
  H72      1.0000 0.91750  0.53580  0.93110  Biso   1.000  H
  H73      1.0000 0.34390  0.27690  0.29370  Biso   1.000  H
  H74      1.0000 0.15610  0.77690  0.20630  Biso   1.000  H
  H75      1.0000 0.65610  0.72310  0.70630  Biso   1.000  H
  H76      1.0000 0.84390  0.22310  0.79370  Biso   1.000  H
  H77      1.0000 0.21730  0.30460  0.28370  Biso   1.000  H
  H78      1.0000 0.28270  0.80460  0.21630  Biso   1.000  H
  H79      1.0000 0.78270  0.69540  0.71630  Biso   1.000  H
  H80      1.0000 0.71730  0.19540  0.78370  Biso   1.000  H
