data_image0
_cell_length_a       9.9329
_cell_length_b       13.7791
_cell_length_c       11.0195
_cell_angle_alpha    90
_cell_angle_beta     91.222
_cell_angle_gamma    90

_symmetry_space_group_name_H-M    "P 1"
_symmetry_int_tables_number       1

loop_
  _symmetry_equiv_pos_as_xyz
  'x, y, z'

loop_
  _atom_site_label
  _atom_site_occupancy
  _atom_site_fract_x
  _atom_site_fract_y
  _atom_site_fract_z
  _atom_site_thermal_displace_type
  _atom_site_B_iso_or_equiv
  _atom_site_type_symbol
  Cu1      1.0000 0.65009  0.81197  0.08428  Biso   1.000  Cu
  Cu2      1.0000 0.65009  0.68803  0.58428  Biso   1.000  Cu
  Cu3      1.0000 0.34991  0.18803  0.91572  Biso   1.000  Cu
  Cu4      1.0000 0.34991  0.31197  0.41572  Biso   1.000  Cu
  Cu5      1.0000 0.50000  0.00000  0.00000  Biso   1.000  Cu
  Cu6      1.0000 0.50000  0.50000  0.50000  Biso   1.000  Cu
  S1       1.0000 0.46740  0.75384  0.80946  Biso   1.000  S
  S2       1.0000 0.46740  0.74616  0.30946  Biso   1.000  S
  S3       1.0000 0.53260  0.24616  0.19054  Biso   1.000  S
  S4       1.0000 0.53260  0.25384  0.69054  Biso   1.000  S
  O1       1.0000 0.79590  0.88320  0.00170  Biso   1.000  O
  O2       1.0000 0.79590  0.61680  0.50170  Biso   1.000  O
  O3       1.0000 0.20410  0.11680  0.99830  Biso   1.000  O
  O4       1.0000 0.20410  0.38320  0.49830  Biso   1.000  O
  O5       1.0000 0.67820  0.01180  0.92670  Biso   1.000  O
  O6       1.0000 0.67820  0.48820  0.42670  Biso   1.000  O
  O7       1.0000 0.32180  0.98820  0.07330  Biso   1.000  O
  O8       1.0000 0.32180  0.51180  0.57330  Biso   1.000  O
  O9       1.0000 0.42240  0.06760  0.86810  Biso   1.000  O
  O10      1.0000 0.42240  0.43240  0.36810  Biso   1.000  O
  O11      1.0000 0.57760  0.93240  0.13190  Biso   1.000  O
  O12      1.0000 0.57760  0.56760  0.63190  Biso   1.000  O
  H1       1.0000 0.42000  0.04460  0.78870  Biso   1.000  H
  H2       1.0000 0.42000  0.45540  0.28870  Biso   1.000  H
  H3       1.0000 0.58000  0.95540  0.21130  Biso   1.000  H
  H4       1.0000 0.58000  0.54460  0.71130  Biso   1.000  H
  O13      1.0000 0.49560  0.82070  0.90850  Biso   1.000  O
  O14      1.0000 0.49560  0.67930  0.40850  Biso   1.000  O
  O15      1.0000 0.50440  0.17930  0.09150  Biso   1.000  O
  O16      1.0000 0.50440  0.32070  0.59150  Biso   1.000  O
  O17      1.0000 0.47850  0.65180  0.83940  Biso   1.000  O
  O18      1.0000 0.47850  0.84820  0.33940  Biso   1.000  O
  O19      1.0000 0.52150  0.34820  0.16060  Biso   1.000  O
  O20      1.0000 0.52150  0.15180  0.66060  Biso   1.000  O
  N1       1.0000 0.72400  0.81220  0.52490  Biso   1.000  N
  N2       1.0000 0.72400  0.68780  0.02490  Biso   1.000  N
  N3       1.0000 0.27600  0.18780  0.47510  Biso   1.000  N
  N4       1.0000 0.27600  0.31220  0.97510  Biso   1.000  N
  N5       1.0000 0.55670  0.77540  0.69570  Biso   1.000  N
  N6       1.0000 0.55670  0.72460  0.19570  Biso   1.000  N
  N7       1.0000 0.44330  0.22460  0.30430  Biso   1.000  N
  N8       1.0000 0.44330  0.27540  0.80430  Biso   1.000  N
  C1       1.0000 0.81470  0.82250  0.43630  Biso   1.000  C
  C2       1.0000 0.81470  0.67750  0.93630  Biso   1.000  C
  C3       1.0000 0.18530  0.17750  0.56370  Biso   1.000  C
  C4       1.0000 0.18530  0.32250  0.06370  Biso   1.000  C
  H5       1.0000 0.84970  0.76770  0.39910  Biso   1.000  H
  H6       1.0000 0.84970  0.73230  0.89910  Biso   1.000  H
  H7       1.0000 0.15030  0.23230  0.60090  Biso   1.000  H
  H8       1.0000 0.15030  0.26770  0.10090  Biso   1.000  H
  C5       1.0000 0.85560  0.91280  0.40080  Biso   1.000  C
  C6       1.0000 0.85560  0.58720  0.90080  Biso   1.000  C
  C7       1.0000 0.14440  0.08720  0.59920  Biso   1.000  C
  C8       1.0000 0.14440  0.41280  0.09920  Biso   1.000  C
  H9       1.0000 0.91950  0.91880  0.34070  Biso   1.000  H
  H10      1.0000 0.91950  0.58120  0.84070  Biso   1.000  H
  H11      1.0000 0.08050  0.08120  0.65930  Biso   1.000  H
  H12      1.0000 0.08050  0.41880  0.15930  Biso   1.000  H
  C9       1.0000 0.80340  0.99380  0.45260  Biso   1.000  C
  C10      1.0000 0.80340  0.50620  0.95260  Biso   1.000  C
  C11      1.0000 0.19660  0.00620  0.54740  Biso   1.000  C
  C12      1.0000 0.19660  0.49380  0.04740  Biso   1.000  C
  H13      1.0000 0.83150  0.05500  0.42820  Biso   1.000  H
  H14      1.0000 0.83150  0.44500  0.92820  Biso   1.000  H
  H15      1.0000 0.16850  0.94500  0.57180  Biso   1.000  H
  H16      1.0000 0.16850  0.55500  0.07180  Biso   1.000  H
  C13      1.0000 0.71010  0.98470  0.54030  Biso   1.000  C
  C14      1.0000 0.71010  0.51530  0.04030  Biso   1.000  C
  C15      1.0000 0.28990  0.01530  0.45970  Biso   1.000  C
  C16      1.0000 0.28990  0.48470  0.95970  Biso   1.000  C
  H17      1.0000 0.67390  0.03930  0.57690  Biso   1.000  H
  H18      1.0000 0.67390  0.46070  0.07690  Biso   1.000  H
  H19      1.0000 0.32610  0.96070  0.42310  Biso   1.000  H
  H20      1.0000 0.32610  0.53930  0.92310  Biso   1.000  H
  C17      1.0000 0.67040  0.89330  0.57350  Biso   1.000  C
  C18      1.0000 0.67040  0.60670  0.07350  Biso   1.000  C
  C19      1.0000 0.32960  0.10670  0.42650  Biso   1.000  C
  C20      1.0000 0.32960  0.39330  0.92650  Biso   1.000  C
  C21      1.0000 0.56300  0.87920  0.66220  Biso   1.000  C
  C22      1.0000 0.56300  0.62080  0.16220  Biso   1.000  C
  C23      1.0000 0.43700  0.12080  0.33780  Biso   1.000  C
  C24      1.0000 0.43700  0.37920  0.83780  Biso   1.000  C
  H21      1.0000 0.47720  0.89970  0.62710  Biso   1.000  H
  H22      1.0000 0.47720  0.60030  0.12710  Biso   1.000  H
  H23      1.0000 0.52280  0.10030  0.37290  Biso   1.000  H
  H24      1.0000 0.52280  0.39970  0.87290  Biso   1.000  H
  H25      1.0000 0.58150  0.91810  0.73390  Biso   1.000  H
  H26      1.0000 0.58150  0.58190  0.23390  Biso   1.000  H
  H27      1.0000 0.41850  0.08190  0.26610  Biso   1.000  H
  H28      1.0000 0.41850  0.41810  0.76610  Biso   1.000  H
  C25      1.0000 0.29600  0.77320  0.77240  Biso   1.000  C
  C26      1.0000 0.29600  0.72680  0.27240  Biso   1.000  C
  C27      1.0000 0.70400  0.22680  0.22760  Biso   1.000  C
  C28      1.0000 0.70400  0.27320  0.72760  Biso   1.000  C
  C29      1.0000 0.23550  0.72380  0.68130  Biso   1.000  C
  C30      1.0000 0.23550  0.77620  0.18130  Biso   1.000  C
  C31      1.0000 0.76450  0.27620  0.31870  Biso   1.000  C
  C32      1.0000 0.76450  0.22380  0.81870  Biso   1.000  C
  H29      1.0000 0.28560  0.67990  0.63680  Biso   1.000  H
  H30      1.0000 0.28560  0.82010  0.13680  Biso   1.000  H
  H31      1.0000 0.71440  0.32010  0.36320  Biso   1.000  H
  H32      1.0000 0.71440  0.17990  0.86320  Biso   1.000  H
  C33      1.0000 0.10370  0.73640  0.65290  Biso   1.000  C
  C34      1.0000 0.10370  0.76360  0.15290  Biso   1.000  C
  C35      1.0000 0.89630  0.26360  0.34710  Biso   1.000  C
  C36      1.0000 0.89630  0.23640  0.84710  Biso   1.000  C
  H33      1.0000 0.06550  0.70280  0.58760  Biso   1.000  H
  H34      1.0000 0.06550  0.79720  0.08760  Biso   1.000  H
  H35      1.0000 0.93450  0.29720  0.41240  Biso   1.000  H
  H36      1.0000 0.93450  0.20280  0.91240  Biso   1.000  H
  C37      1.0000 0.02930  0.79500  0.71590  Biso   1.000  C
  C38      1.0000 0.02930  0.70500  0.21590  Biso   1.000  C
  C39      1.0000 0.97070  0.20500  0.28410  Biso   1.000  C
  C40      1.0000 0.97070  0.29500  0.78410  Biso   1.000  C
  H37      1.0000 0.93650  0.79690  0.70290  Biso   1.000  H
  H38      1.0000 0.93650  0.70310  0.20290  Biso   1.000  H
  H39      1.0000 0.06350  0.20310  0.29710  Biso   1.000  H
  H40      1.0000 0.06350  0.29690  0.79710  Biso   1.000  H
  C41      1.0000 0.08750  0.85190  0.79870  Biso   1.000  C
  C42      1.0000 0.08750  0.64810  0.29870  Biso   1.000  C
  C43      1.0000 0.91250  0.14810  0.20130  Biso   1.000  C
  C44      1.0000 0.91250  0.35190  0.70130  Biso   1.000  C
  H41      1.0000 0.03790  0.90020  0.83610  Biso   1.000  H
  H42      1.0000 0.03790  0.59980  0.33610  Biso   1.000  H
  H43      1.0000 0.96210  0.09980  0.16390  Biso   1.000  H
  H44      1.0000 0.96210  0.40020  0.66390  Biso   1.000  H
  C45      1.0000 0.22380  0.83890  0.82970  Biso   1.000  C
  C46      1.0000 0.22380  0.66110  0.32970  Biso   1.000  C
  C47      1.0000 0.77620  0.16110  0.17030  Biso   1.000  C
  C48      1.0000 0.77620  0.33890  0.67030  Biso   1.000  C
  H45      1.0000 0.26370  0.87660  0.89060  Biso   1.000  H
  H46      1.0000 0.26370  0.62340  0.39060  Biso   1.000  H
  H47      1.0000 0.73630  0.12340  0.10940  Biso   1.000  H
  H48      1.0000 0.73630  0.37660  0.60940  Biso   1.000  H
  C49      1.0000 0.78080  0.96370  0.94740  Biso   1.000  C
  C50      1.0000 0.78080  0.53630  0.44740  Biso   1.000  C
  C51      1.0000 0.21920  0.03630  0.05260  Biso   1.000  C
  C52      1.0000 0.21920  0.46370  0.55260  Biso   1.000  C
  H49      1.0000 0.85970  0.99080  0.91860  Biso   1.000  H
  H50      1.0000 0.85970  0.50920  0.41860  Biso   1.000  H
  H51      1.0000 0.14030  0.00920  0.08140  Biso   1.000  H
  H52      1.0000 0.14030  0.49080  0.58140  Biso   1.000  H
