data_image0
_cell_length_a       15.2723
_cell_length_b       8.8743
_cell_length_c       17.946
_cell_angle_alpha    90
_cell_angle_beta     90
_cell_angle_gamma    90

_symmetry_space_group_name_H-M    "P 1"
_symmetry_int_tables_number       1

loop_
  _symmetry_equiv_pos_as_xyz
  'x, y, z'

loop_
  _atom_site_label
  _atom_site_occupancy
  _atom_site_fract_x
  _atom_site_fract_y
  _atom_site_fract_z
  _atom_site_thermal_displace_type
  _atom_site_B_iso_or_equiv
  _atom_site_type_symbol
  Re1      1.0000 0.40994  0.85934  0.35502  Biso   1.000  Re
  Re2      1.0000 0.09006  0.14066  0.85502  Biso   1.000  Re
  Re3      1.0000 0.90994  0.14066  0.85502  Biso   1.000  Re
  Re4      1.0000 0.59006  0.85934  0.35502  Biso   1.000  Re
  Re5      1.0000 0.50000  0.86089  0.22124  Biso   1.000  Re
  Re6      1.0000 0.00000  0.13911  0.72124  Biso   1.000  Re
  Re7      1.0000 0.50000  0.11264  0.30950  Biso   1.000  Re
  Re8      1.0000 0.00000  0.88736  0.80950  Biso   1.000  Re
  S1       1.0000 0.50000  0.65290  0.30970  Biso   1.000  S
  S2       1.0000 0.00000  0.34710  0.80970  Biso   1.000  S
  S3       1.0000 0.37660  0.00620  0.25060  Biso   1.000  S
  S4       1.0000 0.12340  0.99380  0.75060  Biso   1.000  S
  S5       1.0000 0.87660  0.99380  0.75060  Biso   1.000  S
  S6       1.0000 0.62340  0.00620  0.25060  Biso   1.000  S
  S7       1.0000 0.50000  0.00900  0.42990  Biso   1.000  S
  S8       1.0000 0.00000  0.99100  0.92990  Biso   1.000  S
  C1       1.0000 0.30770  0.72100  0.32100  Biso   1.000  C
  C2       1.0000 0.19230  0.27900  0.82100  Biso   1.000  C
  C3       1.0000 0.80770  0.27900  0.82100  Biso   1.000  C
  C4       1.0000 0.69230  0.72100  0.32100  Biso   1.000  C
  N1       1.0000 0.24750  0.65800  0.29990  Biso   1.000  N
  N2       1.0000 0.25250  0.34200  0.79990  Biso   1.000  N
  N3       1.0000 0.74750  0.34200  0.79990  Biso   1.000  N
  N4       1.0000 0.75250  0.65800  0.29990  Biso   1.000  N
  C5       1.0000 0.39310  0.72300  0.44760  Biso   1.000  C
  C6       1.0000 0.10690  0.27700  0.94760  Biso   1.000  C
  C7       1.0000 0.89310  0.27700  0.94760  Biso   1.000  C
  C8       1.0000 0.60690  0.72300  0.44760  Biso   1.000  C
  N5       1.0000 0.38330  0.65500  0.50200  Biso   1.000  N
  N6       1.0000 0.11670  0.34500  0.00200  Biso   1.000  N
  N7       1.0000 0.88330  0.34500  0.00200  Biso   1.000  N
  N8       1.0000 0.61670  0.65500  0.50200  Biso   1.000  N
  C9       1.0000 0.30340  0.98100  0.40860  Biso   1.000  C
  C10      1.0000 0.19660  0.01900  0.90860  Biso   1.000  C
  C11      1.0000 0.80340  0.01900  0.90860  Biso   1.000  C
  C12      1.0000 0.69660  0.98100  0.40860  Biso   1.000  C
  N9       1.0000 0.25200  0.04300  0.44220  Biso   1.000  N
  N10      1.0000 0.24800  0.95700  0.94220  Biso   1.000  N
  N11      1.0000 0.75200  0.95700  0.94220  Biso   1.000  N
  N12      1.0000 0.74800  0.04300  0.44220  Biso   1.000  N
  C13      1.0000 0.40900  0.73000  0.15780  Biso   1.000  C
  C14      1.0000 0.09100  0.27000  0.65780  Biso   1.000  C
  C15      1.0000 0.90900  0.27000  0.65780  Biso   1.000  C
  C16      1.0000 0.59100  0.73000  0.15780  Biso   1.000  C
  N13      1.0000 0.35390  0.66900  0.12470  Biso   1.000  N
  N14      1.0000 0.14610  0.33100  0.62470  Biso   1.000  N
  N15      1.0000 0.85390  0.33100  0.62470  Biso   1.000  N
  N16      1.0000 0.64610  0.66900  0.12470  Biso   1.000  N
  C17      1.0000 0.50000  0.97100  0.11710  Biso   1.000  C
  C18      1.0000 0.00000  0.02900  0.61710  Biso   1.000  C
  N17      1.0000 0.50000  0.03400  0.05950  Biso   1.000  N
  N18      1.0000 0.00000  0.96600  0.55950  Biso   1.000  N
  C19      1.0000 0.50000  0.26000  0.21990  Biso   1.000  C
  C20      1.0000 0.00000  0.74000  0.71990  Biso   1.000  C
  N19      1.0000 0.50000  0.34900  0.17970  Biso   1.000  N
  N20      1.0000 0.00000  0.65100  0.67970  Biso   1.000  N
  C21      1.0000 0.40710  0.27300  0.35260  Biso   1.000  C
  C22      1.0000 0.09290  0.72700  0.85260  Biso   1.000  C
  C23      1.0000 0.90710  0.72700  0.85260  Biso   1.000  C
  C24      1.0000 0.59290  0.27300  0.35260  Biso   1.000  C
  N21      1.0000 0.36550  0.35900  0.37140  Biso   1.000  N
  N22      1.0000 0.13450  0.64100  0.87140  Biso   1.000  N
  N23      1.0000 0.86550  0.64100  0.87140  Biso   1.000  N
  N24      1.0000 0.63450  0.35900  0.37140  Biso   1.000  N
  Cu1      1.0000 0.25130  0.54020  0.06716  Biso   1.000  Cu
  Cu2      1.0000 0.24870  0.45980  0.56716  Biso   1.000  Cu
  Cu3      1.0000 0.75130  0.45980  0.56716  Biso   1.000  Cu
  Cu4      1.0000 0.74870  0.54020  0.06716  Biso   1.000  Cu
  N25      1.0000 0.20350  0.43900  0.15430  Biso   1.000  N
  N26      1.0000 0.29650  0.56100  0.65430  Biso   1.000  N
  N27      1.0000 0.70350  0.56100  0.65430  Biso   1.000  N
  N28      1.0000 0.79650  0.43900  0.15430  Biso   1.000  N
  H1       1.0000 0.20660  0.50110  0.19390  Biso   1.000  H
  H2       1.0000 0.29340  0.49890  0.69390  Biso   1.000  H
  H3       1.0000 0.70660  0.49890  0.69390  Biso   1.000  H
  H4       1.0000 0.79340  0.50110  0.19390  Biso   1.000  H
  H5       1.0000 0.14670  0.41730  0.14630  Biso   1.000  H
  H6       1.0000 0.35330  0.58270  0.64630  Biso   1.000  H
  H7       1.0000 0.64670  0.58270  0.64630  Biso   1.000  H
  H8       1.0000 0.85330  0.41730  0.14630  Biso   1.000  H
  C25      1.0000 0.25170  0.29900  0.17060  Biso   1.000  C
  C26      1.0000 0.24830  0.70100  0.67060  Biso   1.000  C
  C27      1.0000 0.75170  0.70100  0.67060  Biso   1.000  C
  C28      1.0000 0.74830  0.29900  0.17060  Biso   1.000  C
  H9       1.0000 0.30190  0.32140  0.20180  Biso   1.000  H
  H10      1.0000 0.19810  0.67860  0.70180  Biso   1.000  H
  H11      1.0000 0.80190  0.67860  0.70180  Biso   1.000  H
  H12      1.0000 0.69810  0.32140  0.20180  Biso   1.000  H
  H13      1.0000 0.21410  0.22970  0.19740  Biso   1.000  H
  H14      1.0000 0.28590  0.77030  0.69740  Biso   1.000  H
  H15      1.0000 0.71410  0.77030  0.69740  Biso   1.000  H
  H16      1.0000 0.78590  0.22970  0.19740  Biso   1.000  H
  C29      1.0000 0.28060  0.23000  0.10220  Biso   1.000  C
  C30      1.0000 0.21940  0.77000  0.60220  Biso   1.000  C
  C31      1.0000 0.78060  0.77000  0.60220  Biso   1.000  C
  C32      1.0000 0.71940  0.23000  0.10220  Biso   1.000  C
  H17      1.0000 0.23190  0.19540  0.07220  Biso   1.000  H
  H18      1.0000 0.26810  0.80460  0.57220  Biso   1.000  H
  H19      1.0000 0.73190  0.80460  0.57220  Biso   1.000  H
  H20      1.0000 0.76810  0.19540  0.07220  Biso   1.000  H
  H21      1.0000 0.32090  0.14780  0.11110  Biso   1.000  H
  H22      1.0000 0.17910  0.85220  0.61110  Biso   1.000  H
  H23      1.0000 0.82090  0.85220  0.61110  Biso   1.000  H
  H24      1.0000 0.67910  0.14780  0.11110  Biso   1.000  H
  N29      1.0000 0.32490  0.36200  0.06800  Biso   1.000  N
  N30      1.0000 0.17510  0.63800  0.56800  Biso   1.000  N
  N31      1.0000 0.82490  0.63800  0.56800  Biso   1.000  N
  N32      1.0000 0.67510  0.36200  0.06800  Biso   1.000  N
  H25      1.0000 0.37320  0.38260  0.09580  Biso   1.000  H
  H26      1.0000 0.12680  0.61740  0.59580  Biso   1.000  H
  H27      1.0000 0.87320  0.61740  0.59580  Biso   1.000  H
  H28      1.0000 0.62680  0.38260  0.09580  Biso   1.000  H
  C33      1.0000 0.35490  0.33800  0.98710  Biso   1.000  C
  C34      1.0000 0.14510  0.66200  0.48710  Biso   1.000  C
  C35      1.0000 0.85490  0.66200  0.48710  Biso   1.000  C
  C36      1.0000 0.64510  0.33800  0.98710  Biso   1.000  C
  H29      1.0000 0.40470  0.27020  0.98630  Biso   1.000  H
  H30      1.0000 0.09530  0.72980  0.48630  Biso   1.000  H
  H31      1.0000 0.90470  0.72980  0.48630  Biso   1.000  H
  H32      1.0000 0.59530  0.27020  0.98630  Biso   1.000  H
  H33      1.0000 0.30790  0.29170  0.95880  Biso   1.000  H
  H34      1.0000 0.19210  0.70830  0.45880  Biso   1.000  H
  H35      1.0000 0.80790  0.70830  0.45880  Biso   1.000  H
  H36      1.0000 0.69210  0.29170  0.95880  Biso   1.000  H
  N33      1.0000 0.29610  0.57200  0.96190  Biso   1.000  N
  N34      1.0000 0.20390  0.42800  0.46190  Biso   1.000  N
  N35      1.0000 0.79610  0.42800  0.46190  Biso   1.000  N
  N36      1.0000 0.70390  0.57200  0.96190  Biso   1.000  N
  H37      1.0000 0.25570  0.54100  0.92880  Biso   1.000  H
  H38      1.0000 0.24430  0.45900  0.42880  Biso   1.000  H
  H39      1.0000 0.75570  0.45900  0.42880  Biso   1.000  H
  H40      1.0000 0.74430  0.54100  0.92880  Biso   1.000  H
  H41      1.0000 0.30580  0.67120  0.95400  Biso   1.000  H
  H42      1.0000 0.19420  0.32880  0.45400  Biso   1.000  H
  H43      1.0000 0.80580  0.32880  0.45400  Biso   1.000  H
  H44      1.0000 0.69420  0.67120  0.95400  Biso   1.000  H
  C37      1.0000 0.38010  0.48500  0.95100  Biso   1.000  C
  C38      1.0000 0.11990  0.51500  0.45100  Biso   1.000  C
  C39      1.0000 0.88010  0.51500  0.45100  Biso   1.000  C
  C40      1.0000 0.61990  0.48500  0.95100  Biso   1.000  C
  H45      1.0000 0.39410  0.47240  0.89860  Biso   1.000  H
  H46      1.0000 0.10590  0.52760  0.39860  Biso   1.000  H
  H47      1.0000 0.89410  0.52760  0.39860  Biso   1.000  H
  H48      1.0000 0.60590  0.47240  0.89860  Biso   1.000  H
  H49      1.0000 0.42900  0.53260  0.97630  Biso   1.000  H
  H50      1.0000 0.07100  0.46740  0.47630  Biso   1.000  H
  H51      1.0000 0.92900  0.46740  0.47630  Biso   1.000  H
  H52      1.0000 0.57100  0.53260  0.97630  Biso   1.000  H
  N37      1.0000 0.16540  0.70500  0.05940  Biso   1.000  N
  N38      1.0000 0.33460  0.29500  0.55940  Biso   1.000  N
  N39      1.0000 0.66540  0.29500  0.55940  Biso   1.000  N
  N40      1.0000 0.83460  0.70500  0.05940  Biso   1.000  N
  H53      1.0000 0.17210  0.74910  0.01450  Biso   1.000  H
  H54      1.0000 0.32790  0.25090  0.51450  Biso   1.000  H
  H55      1.0000 0.67210  0.25090  0.51450  Biso   1.000  H
  H56      1.0000 0.82790  0.74910  0.01450  Biso   1.000  H
  H57      1.0000 0.11150  0.66440  0.06040  Biso   1.000  H
  H58      1.0000 0.38850  0.33560  0.56040  Biso   1.000  H
  H59      1.0000 0.61150  0.33560  0.56040  Biso   1.000  H
  H60      1.0000 0.88850  0.66440  0.06040  Biso   1.000  H
  C41      1.0000 0.16850  0.82500  0.11650  Biso   1.000  C
  C42      1.0000 0.33150  0.17500  0.61650  Biso   1.000  C
  C43      1.0000 0.66850  0.17500  0.61650  Biso   1.000  C
  C44      1.0000 0.83150  0.82500  0.11650  Biso   1.000  C
  H61      1.0000 0.21890  0.88930  0.10730  Biso   1.000  H
  H62      1.0000 0.28110  0.11070  0.60730  Biso   1.000  H
  H63      1.0000 0.71890  0.11070  0.60730  Biso   1.000  H
  H64      1.0000 0.78110  0.88930  0.10730  Biso   1.000  H
  H65      1.0000 0.17560  0.77990  0.16530  Biso   1.000  H
  H66      1.0000 0.32440  0.22010  0.66530  Biso   1.000  H
  H67      1.0000 0.67560  0.22010  0.66530  Biso   1.000  H
  H68      1.0000 0.82440  0.77990  0.16530  Biso   1.000  H
  C45      1.0000 0.07390  0.93600  0.11610  Biso   1.000  C
  C46      1.0000 0.42610  0.06400  0.61610  Biso   1.000  C
  C47      1.0000 0.57390  0.06400  0.61610  Biso   1.000  C
  C48      1.0000 0.92610  0.93600  0.11610  Biso   1.000  C
  H69      1.0000 0.07500  0.00670  0.15720  Biso   1.000  H
  H70      1.0000 0.42500  0.99330  0.65720  Biso   1.000  H
  H71      1.0000 0.57500  0.99330  0.65720  Biso   1.000  H
  H72      1.0000 0.92500  0.00670  0.15720  Biso   1.000  H
  H73      1.0000 0.06940  0.99150  0.06980  Biso   1.000  H
  H74      1.0000 0.43060  0.00850  0.56980  Biso   1.000  H
  H75      1.0000 0.56940  0.00850  0.56980  Biso   1.000  H
  H76      1.0000 0.93060  0.99150  0.06980  Biso   1.000  H
  N41      1.0000 0.00000  0.83200  0.12400  Biso   1.000  N
  N42      1.0000 0.50000  0.16800  0.62400  Biso   1.000  N
  H77      1.0000 0.00000  0.78710  0.16880  Biso   1.000  H
  H78      1.0000 0.50000  0.21290  0.66880  Biso   1.000  H
  H79      1.0000 0.00000  0.76200  0.08790  Biso   1.000  H
  H80      1.0000 0.50000  0.23800  0.58790  Biso   1.000  H
