data_image0
_cell_length_a       13.547
_cell_length_b       13.622
_cell_length_c       14.126
_cell_angle_alpha    68.55
_cell_angle_beta     64.58
_cell_angle_gamma    87.69

_symmetry_space_group_name_H-M    "P 1"
_symmetry_int_tables_number       1

loop_
  _symmetry_equiv_pos_as_xyz
  'x, y, z'

loop_
  _atom_site_label
  _atom_site_occupancy
  _atom_site_fract_x
  _atom_site_fract_y
  _atom_site_fract_z
  _atom_site_thermal_displace_type
  _atom_site_B_iso_or_equiv
  _atom_site_type_symbol
  Re1      1.0000 0.76328  0.29834  0.66779  Biso   1.000  Re
  Re2      1.0000 0.23672  0.70166  0.33221  Biso   1.000  Re
  Re3      1.0000 0.58211  0.28116  0.87205  Biso   1.000  Re
  Re4      1.0000 0.41789  0.71884  0.12795  Biso   1.000  Re
  Re5      1.0000 0.73824  0.46551  0.74384  Biso   1.000  Re
  Re6      1.0000 0.26176  0.53449  0.25616  Biso   1.000  Re
  Re7      1.0000 0.79525  0.27412  0.85812  Biso   1.000  Re
  Re8      1.0000 0.20475  0.72588  0.14188  Biso   1.000  Re
  Se1      1.0000 0.91519  0.39913  0.66144  Biso   1.000  Se
  Se2      1.0000 0.08481  0.60087  0.33856  Biso   1.000  Se
  Se3      1.0000 0.65709  0.37504  0.95283  Biso   1.000  Se
  Se4      1.0000 0.34291  0.62496  0.04717  Biso   1.000  Se
  Se5      1.0000 0.69267  0.13710  0.84548  Biso   1.000  Se
  Se6      1.0000 0.30733  0.86290  0.15452  Biso   1.000  Se
  Se7      1.0000 0.61349  0.40939  0.68248  Biso   1.000  Se
  Se8      1.0000 0.38651  0.59061  0.31752  Biso   1.000  Se
  C1       1.0000 0.83110  0.39530  0.49150  Biso   1.000  C
  C2       1.0000 0.16890  0.60470  0.50850  Biso   1.000  C
  C3       1.0000 0.67930  0.21720  0.61560  Biso   1.000  C
  C4       1.0000 0.32070  0.78280  0.38440  Biso   1.000  C
  C5       1.0000 0.88500  0.20440  0.60450  Biso   1.000  C
  C6       1.0000 0.11500  0.79560  0.39550  Biso   1.000  C
  C7       1.0000 0.46730  0.19990  0.85490  Biso   1.000  C
  C8       1.0000 0.53270  0.80010  0.14510  Biso   1.000  C
  C9       1.0000 0.50130  0.83210  0.96300  Biso   1.000  C
  C10      1.0000 0.49870  0.16790  0.03700  Biso   1.000  C
  C11      1.0000 0.43800  0.35770  0.93290  Biso   1.000  C
  C12      1.0000 0.56200  0.64230  0.06710  Biso   1.000  C
  C13      1.0000 0.62870  0.57400  0.77460  Biso   1.000  C
  C14      1.0000 0.37130  0.42600  0.22540  Biso   1.000  C
  C15      1.0000 0.79830  0.58880  0.58420  Biso   1.000  C
  C16      1.0000 0.20170  0.41120  0.41580  Biso   1.000  C
  C17      1.0000 0.83340  0.56410  0.76970  Biso   1.000  C
  C18      1.0000 0.16660  0.43590  0.23030  Biso   1.000  C
  C19      1.0000 0.91030  0.33660  0.89690  Biso   1.000  C
  C20      1.0000 0.08970  0.66340  0.10310  Biso   1.000  C
  C21      1.0000 0.25170  0.83460  0.97540  Biso   1.000  C
  C22      1.0000 0.74830  0.16540  0.02460  Biso   1.000  C
  C23      1.0000 0.91750  0.17610  0.83130  Biso   1.000  C
  C24      1.0000 0.08250  0.82390  0.16870  Biso   1.000  C
  N1       1.0000 0.86740  0.43920  0.39510  Biso   1.000  N
  N2       1.0000 0.13260  0.56080  0.60490  Biso   1.000  N
  N3       1.0000 0.63850  0.17810  0.58010  Biso   1.000  N
  N4       1.0000 0.36150  0.82190  0.41990  Biso   1.000  N
  N5       1.0000 0.94880  0.15510  0.56800  Biso   1.000  N
  N6       1.0000 0.05120  0.84490  0.43200  Biso   1.000  N
  N7       1.0000 0.40270  0.15460  0.84400  Biso   1.000  N
  N8       1.0000 0.59730  0.84540  0.15600  Biso   1.000  N
  N9       1.0000 0.55590  0.89270  0.87150  Biso   1.000  N
  N10      1.0000 0.44410  0.10730  0.12850  Biso   1.000  N
  N11      1.0000 0.36800  0.39890  0.95920  Biso   1.000  N
  N12      1.0000 0.63200  0.60110  0.04080  Biso   1.000  N
  N13      1.0000 0.56940  0.63920  0.78540  Biso   1.000  N
  N14      1.0000 0.43060  0.36080  0.21460  Biso   1.000  N
  N15      1.0000 0.83180  0.66030  0.49260  Biso   1.000  N
  N16      1.0000 0.16820  0.33970  0.50740  Biso   1.000  N
  N17      1.0000 0.88710  0.61630  0.78240  Biso   1.000  N
  N18      1.0000 0.11290  0.38370  0.21760  Biso   1.000  N
  N19      1.0000 0.02840  0.63470  0.07940  Biso   1.000  N
  N20      1.0000 0.97160  0.36530  0.92060  Biso   1.000  N
  N21      1.0000 0.26700  0.88970  0.88510  Biso   1.000  N
  N22      1.0000 0.73300  0.11030  0.11490  Biso   1.000  N
  N23      1.0000 0.98630  0.12000  0.82230  Biso   1.000  N
  N24      1.0000 0.01370  0.88000  0.17770  Biso   1.000  N
  K1       1.0000 0.46540  0.01130  0.72360  Biso   1.000  K
  K2       1.0000 0.53460  0.98870  0.27640  Biso   1.000  K
  Cu1      1.0000 0.00000  0.00000  0.50000  Biso   1.000  Cu
  Cu2      1.0000 0.14490  0.35078  0.93210  Biso   1.000  Cu
  Cu3      1.0000 0.85510  0.64922  0.06790  Biso   1.000  Cu
  C25      1.0000 0.22600  0.29100  0.73690  Biso   1.000  C
  C26      1.0000 0.77400  0.70900  0.26310  Biso   1.000  C
  H1       1.0000 0.16710  0.30430  0.71460  Biso   1.000  H
  H2       1.0000 0.83290  0.69570  0.28540  Biso   1.000  H
  H3       1.0000 0.27170  0.24530  0.70170  Biso   1.000  H
  H4       1.0000 0.72830  0.75470  0.29830  Biso   1.000  H
  C27      1.0000 0.20000  0.57590  0.85900  Biso   1.000  C
  C28      1.0000 0.80000  0.42410  0.14100  Biso   1.000  C
  H5       1.0000 0.23840  0.63070  0.86510  Biso   1.000  H
  H6       1.0000 0.76160  0.36930  0.13490  Biso   1.000  H
  H7       1.0000 0.13870  0.60390  0.84520  Biso   1.000  H
  H8       1.0000 0.86130  0.39610  0.15480  Biso   1.000  H
  C29      1.0000 0.29500  0.39400  0.70100  Biso   1.000  C
  C30      1.0000 0.70500  0.60600  0.29900  Biso   1.000  C
  H9       1.0000 0.35890  0.37960  0.71490  Biso   1.000  H
  H10      1.0000 0.64110  0.62040  0.28510  Biso   1.000  H
  H11      1.0000 0.31970  0.43460  0.62020  Biso   1.000  H
  H12      1.0000 0.68030  0.56540  0.37980  Biso   1.000  H
  C31      1.0000 0.16100  0.16970  0.12600  Biso   1.000  C
  C32      1.0000 0.83900  0.83030  0.87400  Biso   1.000  C
  H13      1.0000 0.22260  0.21000  0.11890  Biso   1.000  H
  H14      1.0000 0.77740  0.79000  0.88110  Biso   1.000  H
  H15      1.0000 0.18990  0.13560  0.07190  Biso   1.000  H
  H16      1.0000 0.81010  0.86440  0.92810  Biso   1.000  H
  C33      1.0000 0.27700  0.54540  0.76490  Biso   1.000  C
  C34      1.0000 0.72300  0.45460  0.23510  Biso   1.000  C
  H17      1.0000 0.29650  0.60440  0.69270  Biso   1.000  H
  H18      1.0000 0.70350  0.39560  0.30730  Biso   1.000  H
  H19      1.0000 0.34410  0.52900  0.77270  Biso   1.000  H
  H20      1.0000 0.65590  0.47100  0.22730  Biso   1.000  H
  C35      1.0000 0.23520  0.05430  0.39580  Biso   1.000  C
  C36      1.0000 0.76480  0.94570  0.60420  Biso   1.000  C
  H21      1.0000 0.29790  0.07430  0.40450  Biso   1.000  H
  H22      1.0000 0.70210  0.92570  0.59550  Biso   1.000  H
  H23      1.0000 0.25740  0.00940  0.35250  Biso   1.000  H
  H24      1.0000 0.74260  0.99060  0.64750  Biso   1.000  H
  C37      1.0000 0.19520  0.15370  0.33550  Biso   1.000  C
  C38      1.0000 0.80480  0.84630  0.66450  Biso   1.000  C
  H25      1.0000 0.18100  0.20210  0.37440  Biso   1.000  H
  H26      1.0000 0.81900  0.79790  0.62560  Biso   1.000  H
  H27      1.0000 0.25090  0.19030  0.25780  Biso   1.000  H
  H28      1.0000 0.74910  0.80970  0.74220  Biso   1.000  H
  C39      1.0000 0.10890  0.08490  0.24220  Biso   1.000  C
  C40      1.0000 0.89110  0.91510  0.75780  Biso   1.000  C
  H29      1.0000 0.03840  0.05470  0.25530  Biso   1.000  H
  H30      1.0000 0.96160  0.94530  0.74470  Biso   1.000  H
  H31      1.0000 0.15530  0.02880  0.24450  Biso   1.000  H
  H32      1.0000 0.84470  0.97120  0.75550  Biso   1.000  H
  N25      1.0000 0.18030  0.23830  0.86340  Biso   1.000  N
  N26      1.0000 0.81970  0.76170  0.13660  Biso   1.000  N
  H33      1.0000 0.22960  0.20030  0.88220  Biso   1.000  H
  H34      1.0000 0.77040  0.79970  0.11780  Biso   1.000  H
  H35      1.0000 0.11850  0.19350  0.89130  Biso   1.000  H
  H36      1.0000 0.88150  0.80650  0.10870  Biso   1.000  H
  N27      1.0000 0.15960  0.48060  0.96580  Biso   1.000  N
  N28      1.0000 0.84040  0.51940  0.03420  Biso   1.000  N
  H37      1.0000 0.09370  0.48760  0.01610  Biso   1.000  H
  H38      1.0000 0.90630  0.51240  0.98390  Biso   1.000  H
  H39      1.0000 0.20720  0.47280  0.99630  Biso   1.000  H
  H40      1.0000 0.79280  0.52720  0.00370  Biso   1.000  H
  N29      1.0000 0.22460  0.45350  0.76740  Biso   1.000  N
  N30      1.0000 0.77540  0.54650  0.23260  Biso   1.000  N
  H41      1.0000 0.17270  0.47570  0.74240  Biso   1.000  H
  H42      1.0000 0.82730  0.52430  0.25760  Biso   1.000  H
  N31      1.0000 0.08920  0.24550  0.09300  Biso   1.000  N
  N32      1.0000 0.91080  0.75450  0.90700  Biso   1.000  N
  H43      1.0000 0.06970  0.28270  0.13790  Biso   1.000  H
  H44      1.0000 0.93030  0.71730  0.86210  Biso   1.000  H
  H45      1.0000 0.02710  0.20700  0.11000  Biso   1.000  H
  H46      1.0000 0.97290  0.79300  0.89000  Biso   1.000  H
  N33      1.0000 0.14150  0.99720  0.50840  Biso   1.000  N
  N34      1.0000 0.85850  0.00280  0.49160  Biso   1.000  N
  H47      1.0000 0.15250  0.92910  0.53640  Biso   1.000  H
  H48      1.0000 0.84750  0.07090  0.46360  Biso   1.000  H
  H49      1.0000 0.13860  0.02740  0.55640  Biso   1.000  H
  H50      1.0000 0.86140  0.97260  0.44360  Biso   1.000  H
  N35      1.0000 0.09030  0.11750  0.33680  Biso   1.000  N
  N36      1.0000 0.90970  0.88250  0.66320  Biso   1.000  N
  H51      1.0000 0.05140  0.17370  0.33040  Biso   1.000  H
  H52      1.0000 0.94860  0.82630  0.66960  Biso   1.000  H
  O1       1.0000 0.10550  0.75730  0.68200  Biso   1.000  O
  O2       1.0000 0.89450  0.24270  0.31800  Biso   1.000  O
  O3       1.0000 0.38070  0.05840  0.57060  Biso   1.000  O
  O4       1.0000 0.61930  0.94160  0.42940  Biso   1.000  O
  O5       1.0000 0.17490  0.12770  0.62310  Biso   1.000  O
  O6       1.0000 0.82510  0.87230  0.37690  Biso   1.000  O
  O7       1.0000 0.49900  0.82900  0.67020  Biso   1.000  O
  O8       1.0000 0.50100  0.17100  0.32980  Biso   1.000  O
  O9       1.0000 0.96630  0.08670  0.07770  Biso   1.000  O
  O10      1.0000 0.03370  0.91330  0.92230  Biso   1.000  O
  O11      1.0000 0.31500  0.84190  0.63280  Biso   1.000  O
  O12      1.0000 0.68500  0.15810  0.36720  Biso   1.000  O
