data_image0
_cell_length_a       13.619
_cell_length_b       13.66
_cell_length_c       14.166
_cell_angle_alpha    68.33
_cell_angle_beta     64.94
_cell_angle_gamma    87.42

_symmetry_space_group_name_H-M    "P 1"
_symmetry_int_tables_number       1

loop_
  _symmetry_equiv_pos_as_xyz
  'x, y, z'

loop_
  _atom_site_label
  _atom_site_occupancy
  _atom_site_fract_x
  _atom_site_fract_y
  _atom_site_fract_z
  _atom_site_thermal_displace_type
  _atom_site_B_iso_or_equiv
  _atom_site_type_symbol
  Re1      1.0000 0.75998  0.29427  0.66960  Biso   1.000  Re
  Re2      1.0000 0.24002  0.70573  0.33040  Biso   1.000  Re
  Re3      1.0000 0.57612  0.27872  0.87671  Biso   1.000  Re
  Re4      1.0000 0.42388  0.72128  0.12329  Biso   1.000  Re
  Re5      1.0000 0.73559  0.46639  0.74543  Biso   1.000  Re
  Re6      1.0000 0.26441  0.53361  0.25457  Biso   1.000  Re
  Re7      1.0000 0.79318  0.27043  0.86351  Biso   1.000  Re
  Re8      1.0000 0.20682  0.72957  0.13649  Biso   1.000  Re
  Te1      1.0000 0.92519  0.40013  0.65651  Biso   1.000  Te
  Te2      1.0000 0.07481  0.59987  0.34349  Biso   1.000  Te
  Te3      1.0000 0.64952  0.37716  0.96765  Biso   1.000  Te
  Te4      1.0000 0.35048  0.62284  0.03235  Biso   1.000  Te
  Te5      1.0000 0.68681  0.11907  0.85531  Biso   1.000  Te
  Te6      1.0000 0.31319  0.88093  0.14469  Biso   1.000  Te
  Te7      1.0000 0.60262  0.41442  0.67611  Biso   1.000  Te
  Te8      1.0000 0.39738  0.58558  0.32389  Biso   1.000  Te
  C1       1.0000 0.82680  0.38910  0.49520  Biso   1.000  C
  C2       1.0000 0.17320  0.61090  0.50480  Biso   1.000  C
  C3       1.0000 0.68020  0.21590  0.61550  Biso   1.000  C
  C4       1.0000 0.31980  0.78410  0.38450  Biso   1.000  C
  C5       1.0000 0.88120  0.20300  0.60490  Biso   1.000  C
  C6       1.0000 0.11880  0.79700  0.39510  Biso   1.000  C
  C7       1.0000 0.46150  0.19460  0.86240  Biso   1.000  C
  C8       1.0000 0.53850  0.80540  0.13760  Biso   1.000  C
  C9       1.0000 0.49040  0.16820  0.04400  Biso   1.000  C
  C10      1.0000 0.50960  0.83180  0.95600  Biso   1.000  C
  C11      1.0000 0.43990  0.35790  0.93010  Biso   1.000  C
  C12      1.0000 0.56010  0.64210  0.06990  Biso   1.000  C
  C13      1.0000 0.62880  0.57770  0.77640  Biso   1.000  C
  C14      1.0000 0.37120  0.42230  0.22360  Biso   1.000  C
  C15      1.0000 0.79680  0.59030  0.58560  Biso   1.000  C
  C16      1.0000 0.20320  0.40970  0.41440  Biso   1.000  C
  C17      1.0000 0.83150  0.56440  0.76800  Biso   1.000  C
  C18      1.0000 0.16850  0.43560  0.23200  Biso   1.000  C
  C19      1.0000 0.90430  0.33270  0.90410  Biso   1.000  C
  C20      1.0000 0.09570  0.66730  0.09590  Biso   1.000  C
  C21      1.0000 0.74860  0.16300  0.03030  Biso   1.000  C
  C22      1.0000 0.25140  0.83700  0.96970  Biso   1.000  C
  C23      1.0000 0.91590  0.17220  0.83710  Biso   1.000  C
  C24      1.0000 0.08410  0.82780  0.16290  Biso   1.000  C
  N1       1.0000 0.86290  0.43640  0.39760  Biso   1.000  N
  N2       1.0000 0.13710  0.56360  0.60240  Biso   1.000  N
  N3       1.0000 0.63760  0.17580  0.58120  Biso   1.000  N
  N4       1.0000 0.36240  0.82420  0.41880  Biso   1.000  N
  N5       1.0000 0.94400  0.15290  0.56950  Biso   1.000  N
  N6       1.0000 0.05600  0.84710  0.43050  Biso   1.000  N
  N7       1.0000 0.39630  0.14970  0.85500  Biso   1.000  N
  N8       1.0000 0.60370  0.85030  0.14500  Biso   1.000  N
  N9       1.0000 0.44400  0.10540  0.13520  Biso   1.000  N
  N10      1.0000 0.55600  0.89460  0.86480  Biso   1.000  N
  N11      1.0000 0.36420  0.39690  0.96420  Biso   1.000  N
  N12      1.0000 0.63580  0.60310  0.03580  Biso   1.000  N
  N13      1.0000 0.56970  0.64250  0.78650  Biso   1.000  N
  N14      1.0000 0.43030  0.35750  0.21350  Biso   1.000  N
  N15      1.0000 0.82820  0.66030  0.49840  Biso   1.000  N
  N16      1.0000 0.17180  0.33970  0.50160  Biso   1.000  N
  N17      1.0000 0.88370  0.61640  0.78290  Biso   1.000  N
  N18      1.0000 0.11630  0.38360  0.21710  Biso   1.000  N
  N19      1.0000 0.03300  0.63960  0.07430  Biso   1.000  N
  N20      1.0000 0.96700  0.36040  0.92570  Biso   1.000  N
  N21      1.0000 0.73060  0.10640  0.12090  Biso   1.000  N
  N22      1.0000 0.26940  0.89360  0.87910  Biso   1.000  N
  N23      1.0000 0.98560  0.11950  0.82480  Biso   1.000  N
  N24      1.0000 0.01440  0.88050  0.17520  Biso   1.000  N
  K1       1.0000 0.46410  0.01220  0.72210  Biso   1.000  K
  K2       1.0000 0.53590  0.98780  0.27790  Biso   1.000  K
  Cu1      1.0000 0.00000  0.00000  0.50000  Biso   1.000  Cu
  Cu2      1.0000 0.13709  0.34822  0.93593  Biso   1.000  Cu
  Cu3      1.0000 0.86291  0.65178  0.06407  Biso   1.000  Cu
  C25      1.0000 0.21580  0.28610  0.74770  Biso   1.000  C
  C26      1.0000 0.78420  0.71390  0.25230  Biso   1.000  C
  H1       1.0000 0.15600  0.29960  0.72630  Biso   1.000  H
  H2       1.0000 0.84400  0.70040  0.27370  Biso   1.000  H
  H3       1.0000 0.25970  0.24020  0.71280  Biso   1.000  H
  H4       1.0000 0.74030  0.75980  0.28720  Biso   1.000  H
  C27      1.0000 0.19200  0.57340  0.85980  Biso   1.000  C
  C28      1.0000 0.80800  0.42660  0.14020  Biso   1.000  C
  H5       1.0000 0.22740  0.63020  0.86470  Biso   1.000  H
  H6       1.0000 0.77260  0.36980  0.13530  Biso   1.000  H
  H7       1.0000 0.12930  0.59770  0.84650  Biso   1.000  H
  H8       1.0000 0.87070  0.40230  0.15350  Biso   1.000  H
  C29      1.0000 0.28410  0.38840  0.70750  Biso   1.000  C
  C30      1.0000 0.71590  0.61160  0.29250  Biso   1.000  C
  H9       1.0000 0.34860  0.37540  0.72080  Biso   1.000  H
  H10      1.0000 0.65140  0.62460  0.27920  Biso   1.000  H
  H11      1.0000 0.30710  0.42760  0.62720  Biso   1.000  H
  H12      1.0000 0.69290  0.57240  0.37280  Biso   1.000  H
  C31      1.0000 0.15820  0.17200  0.12710  Biso   1.000  C
  C32      1.0000 0.84180  0.82800  0.87290  Biso   1.000  C
  H13      1.0000 0.21960  0.21230  0.11980  Biso   1.000  H
  H14      1.0000 0.78040  0.78770  0.88020  Biso   1.000  H
  H15      1.0000 0.18650  0.13830  0.07300  Biso   1.000  H
  H16      1.0000 0.81350  0.86170  0.92700  Biso   1.000  H
  C33      1.0000 0.27180  0.54220  0.76420  Biso   1.000  C
  C34      1.0000 0.72820  0.45780  0.23580  Biso   1.000  C
  H17      1.0000 0.29090  0.59990  0.69150  Biso   1.000  H
  H18      1.0000 0.70910  0.40010  0.30850  Biso   1.000  H
  H19      1.0000 0.33820  0.52540  0.77290  Biso   1.000  H
  H20      1.0000 0.66180  0.47460  0.22710  Biso   1.000  H
  C35      1.0000 0.23060  0.05690  0.39680  Biso   1.000  C
  C36      1.0000 0.76940  0.94310  0.60320  Biso   1.000  C
  H21      1.0000 0.25260  0.01340  0.35230  Biso   1.000  H
  H22      1.0000 0.74740  0.98660  0.64770  Biso   1.000  H
  H23      1.0000 0.29380  0.07840  0.40310  Biso   1.000  H
  H24      1.0000 0.70620  0.92160  0.59690  Biso   1.000  H
  C37      1.0000 0.18740  0.15230  0.34160  Biso   1.000  C
  C38      1.0000 0.81260  0.84770  0.65840  Biso   1.000  C
  H25      1.0000 0.17270  0.19900  0.38220  Biso   1.000  H
  H26      1.0000 0.82730  0.80100  0.61780  Biso   1.000  H
  H27      1.0000 0.24170  0.19110  0.26470  Biso   1.000  H
  H28      1.0000 0.75830  0.80890  0.73530  Biso   1.000  H
  C39      1.0000 0.10520  0.08570  0.24590  Biso   1.000  C
  C40      1.0000 0.89480  0.91430  0.75410  Biso   1.000  C
  H29      1.0000 0.03540  0.05600  0.25820  Biso   1.000  H
  H30      1.0000 0.96460  0.94400  0.74180  Biso   1.000  H
  H31      1.0000 0.15100  0.02930  0.24940  Biso   1.000  H
  H32      1.0000 0.84900  0.97070  0.75060  Biso   1.000  H
  N25      1.0000 0.17160  0.23320  0.87210  Biso   1.000  N
  N26      1.0000 0.82840  0.76680  0.12790  Biso   1.000  N
  H33      1.0000 0.22110  0.19570  0.89100  Biso   1.000  H
  H34      1.0000 0.77890  0.80430  0.10900  Biso   1.000  H
  H35      1.0000 0.11060  0.18840  0.90010  Biso   1.000  H
  H36      1.0000 0.88940  0.81160  0.09990  Biso   1.000  H
  N27      1.0000 0.15730  0.47700  0.96570  Biso   1.000  N
  N28      1.0000 0.84270  0.52300  0.03430  Biso   1.000  N
  H37      1.0000 0.09400  0.48370  0.01870  Biso   1.000  H
  H38      1.0000 0.90600  0.51630  0.98130  Biso   1.000  H
  H39      1.0000 0.20820  0.46950  0.99170  Biso   1.000  H
  H40      1.0000 0.79180  0.53050  0.00830  Biso   1.000  H
  N29      1.0000 0.21480  0.44830  0.77240  Biso   1.000  N
  N30      1.0000 0.78520  0.55170  0.22760  Biso   1.000  N
  H41      1.0000 0.16320  0.47060  0.74710  Biso   1.000  H
  H42      1.0000 0.83680  0.52940  0.25290  Biso   1.000  H
  N31      1.0000 0.08320  0.24660  0.09790  Biso   1.000  N
  N32      1.0000 0.91680  0.75340  0.90210  Biso   1.000  N
  H43      1.0000 0.06610  0.28500  0.14110  Biso   1.000  H
  H44      1.0000 0.93390  0.71500  0.85890  Biso   1.000  H
  H45      1.0000 0.02100  0.20780  0.11720  Biso   1.000  H
  H46      1.0000 0.97900  0.79220  0.88280  Biso   1.000  H
  N33      1.0000 0.14150  0.99520  0.51180  Biso   1.000  N
  N34      1.0000 0.85850  0.00480  0.48820  Biso   1.000  N
  H47      1.0000 0.15440  0.92740  0.53710  Biso   1.000  H
  H48      1.0000 0.84560  0.07260  0.46290  Biso   1.000  H
  H49      1.0000 0.13860  0.02390  0.56070  Biso   1.000  H
  H50      1.0000 0.86140  0.97610  0.43930  Biso   1.000  H
  N35      1.0000 0.08610  0.11990  0.34070  Biso   1.000  N
  N36      1.0000 0.91390  0.88010  0.65930  Biso   1.000  N
  H51      1.0000 0.04710  0.17590  0.33470  Biso   1.000  H
  H52      1.0000 0.95290  0.82410  0.66530  Biso   1.000  H
  O1       1.0000 0.10800  0.75810  0.67930  Biso   1.000  O
  O2       1.0000 0.89200  0.24190  0.32070  Biso   1.000  O
  O3       1.0000 0.37410  0.05870  0.57130  Biso   1.000  O
  O4       1.0000 0.62590  0.94130  0.42870  Biso   1.000  O
  O5       1.0000 0.17170  0.12530  0.62730  Biso   1.000  O
  O6       1.0000 0.82830  0.87470  0.37270  Biso   1.000  O
  O7       1.0000 0.50350  0.83070  0.66800  Biso   1.000  O
  O8       1.0000 0.49650  0.16930  0.33200  Biso   1.000  O
  O9       1.0000 0.96160  0.08620  0.08680  Biso   1.000  O
  O10      1.0000 0.03840  0.91380  0.91320  Biso   1.000  O
  O11      1.0000 0.31510  0.83930  0.63450  Biso   1.000  O
  O12      1.0000 0.68490  0.16070  0.36550  Biso   1.000  O
