data_image0
_cell_length_a       19.873
_cell_length_b       19.873
_cell_length_c       12.5477
_cell_angle_alpha    90
_cell_angle_beta     90
_cell_angle_gamma    90

_symmetry_space_group_name_H-M    "P 1"
_symmetry_int_tables_number       1

loop_
  _symmetry_equiv_pos_as_xyz
  'x, y, z'

loop_
  _atom_site_label
  _atom_site_occupancy
  _atom_site_fract_x
  _atom_site_fract_y
  _atom_site_fract_z
  _atom_site_thermal_displace_type
  _atom_site_B_iso_or_equiv
  _atom_site_type_symbol
  W1       1.0000 0.50000  0.75000  0.12500  Biso   1.000  W
  W2       1.0000 0.00000  0.75000  0.37500  Biso   1.000  W
  W3       1.0000 0.00000  0.25000  0.62500  Biso   1.000  W
  W4       1.0000 0.50000  0.25000  0.87500  Biso   1.000  W
  Cu1      1.0000 0.50000  0.50000  0.00000  Biso   1.000  Cu
  Cu2      1.0000 0.25000  0.75000  0.25000  Biso   1.000  Cu
  Cu3      1.0000 0.00000  0.50000  0.50000  Biso   1.000  Cu
  Cu4      1.0000 0.25000  0.25000  0.75000  Biso   1.000  Cu
  Cu5      1.0000 0.00000  0.00000  0.50000  Biso   1.000  Cu
  Cu6      1.0000 0.75000  0.25000  0.75000  Biso   1.000  Cu
  Cu7      1.0000 0.50000  0.00000  0.00000  Biso   1.000  Cu
  Cu8      1.0000 0.75000  0.75000  0.25000  Biso   1.000  Cu
  N1       1.0000 0.47080  0.54380  0.82160  Biso   1.000  N
  N2       1.0000 0.20620  0.72080  0.07160  Biso   1.000  N
  N3       1.0000 0.02920  0.45620  0.32160  Biso   1.000  N
  N4       1.0000 0.29380  0.27920  0.57160  Biso   1.000  N
  N5       1.0000 0.97080  0.04380  0.32160  Biso   1.000  N
  N6       1.0000 0.70620  0.22080  0.57160  Biso   1.000  N
  N7       1.0000 0.52920  0.95620  0.82160  Biso   1.000  N
  N8       1.0000 0.79380  0.77920  0.07160  Biso   1.000  N
  N9       1.0000 0.52920  0.45620  0.17840  Biso   1.000  N
  N10      1.0000 0.29380  0.77920  0.42840  Biso   1.000  N
  N11      1.0000 0.97080  0.54380  0.67840  Biso   1.000  N
  N12      1.0000 0.20620  0.22080  0.92840  Biso   1.000  N
  N13      1.0000 0.02920  0.95620  0.67840  Biso   1.000  N
  N14      1.0000 0.79380  0.27920  0.92840  Biso   1.000  N
  N15      1.0000 0.47080  0.04380  0.17840  Biso   1.000  N
  N16      1.0000 0.70620  0.72080  0.42840  Biso   1.000  N
  N17      1.0000 0.39810  0.48840  0.03850  Biso   1.000  N
  N18      1.0000 0.26160  0.64810  0.28850  Biso   1.000  N
  N19      1.0000 0.10190  0.51160  0.53850  Biso   1.000  N
  N20      1.0000 0.23840  0.35190  0.78850  Biso   1.000  N
  N21      1.0000 0.89810  0.98840  0.53850  Biso   1.000  N
  N22      1.0000 0.76160  0.14810  0.78850  Biso   1.000  N
  N23      1.0000 0.60190  0.01160  0.03850  Biso   1.000  N
  N24      1.0000 0.73840  0.85190  0.28850  Biso   1.000  N
  N25      1.0000 0.60190  0.51160  0.96150  Biso   1.000  N
  N26      1.0000 0.23840  0.85190  0.21150  Biso   1.000  N
  N27      1.0000 0.89810  0.48840  0.46150  Biso   1.000  N
  N28      1.0000 0.26160  0.14810  0.71150  Biso   1.000  N
  N29      1.0000 0.10190  0.01160  0.46150  Biso   1.000  N
  N30      1.0000 0.73840  0.35190  0.71150  Biso   1.000  N
  N31      1.0000 0.39810  0.98840  0.96150  Biso   1.000  N
  N32      1.0000 0.76160  0.64810  0.21150  Biso   1.000  N
  N33      1.0000 0.49720  0.59170  0.05380  Biso   1.000  N
  N34      1.0000 0.15830  0.74720  0.30380  Biso   1.000  N
  N35      1.0000 0.00280  0.40830  0.55380  Biso   1.000  N
  N36      1.0000 0.34170  0.25280  0.80380  Biso   1.000  N
  N37      1.0000 0.99720  0.09170  0.55380  Biso   1.000  N
  N38      1.0000 0.65830  0.24720  0.80380  Biso   1.000  N
  N39      1.0000 0.50280  0.90830  0.05380  Biso   1.000  N
  N40      1.0000 0.84170  0.75280  0.30380  Biso   1.000  N
  N41      1.0000 0.50280  0.40830  0.94620  Biso   1.000  N
  N42      1.0000 0.34170  0.75280  0.19620  Biso   1.000  N
  N43      1.0000 0.99720  0.59170  0.44620  Biso   1.000  N
  N44      1.0000 0.15830  0.24720  0.69620  Biso   1.000  N
  N45      1.0000 0.00280  0.90830  0.44620  Biso   1.000  N
  N46      1.0000 0.84170  0.25280  0.69620  Biso   1.000  N
  N47      1.0000 0.49720  0.09170  0.94620  Biso   1.000  N
  N48      1.0000 0.65830  0.74720  0.19620  Biso   1.000  N
  N49      1.0000 0.59740  0.74210  0.90800  Biso   1.000  N
  N50      1.0000 0.00790  0.84740  0.15800  Biso   1.000  N
  N51      1.0000 0.90260  0.25790  0.40800  Biso   1.000  N
  N52      1.0000 0.49210  0.15260  0.65800  Biso   1.000  N
  N53      1.0000 0.09740  0.24210  0.40800  Biso   1.000  N
  N54      1.0000 0.50790  0.34740  0.65800  Biso   1.000  N
  N55      1.0000 0.40260  0.75790  0.90800  Biso   1.000  N
  N56      1.0000 0.99210  0.65260  0.15800  Biso   1.000  N
  N57      1.0000 0.40260  0.25790  0.09200  Biso   1.000  N
  N58      1.0000 0.49210  0.65260  0.34200  Biso   1.000  N
  N59      1.0000 0.09740  0.74210  0.59200  Biso   1.000  N
  N60      1.0000 0.00790  0.34740  0.84200  Biso   1.000  N
  N61      1.0000 0.90260  0.75790  0.59200  Biso   1.000  N
  N62      1.0000 0.99210  0.15260  0.84200  Biso   1.000  N
  N63      1.0000 0.59740  0.24210  0.09200  Biso   1.000  N
  N64      1.0000 0.50790  0.84740  0.34200  Biso   1.000  N
  C1       1.0000 0.49730  0.64720  0.07960  Biso   1.000  C
  C2       1.0000 0.10280  0.74730  0.32960  Biso   1.000  C
  C3       1.0000 0.00270  0.35280  0.57960  Biso   1.000  C
  C4       1.0000 0.39720  0.25270  0.82960  Biso   1.000  C
  C5       1.0000 0.99730  0.14720  0.57960  Biso   1.000  C
  C6       1.0000 0.60280  0.24730  0.82960  Biso   1.000  C
  C7       1.0000 0.50270  0.85280  0.07960  Biso   1.000  C
  C8       1.0000 0.89720  0.75270  0.32960  Biso   1.000  C
  C9       1.0000 0.50270  0.35280  0.92040  Biso   1.000  C
  C10      1.0000 0.39720  0.75270  0.17040  Biso   1.000  C
  C11      1.0000 0.99730  0.64720  0.42040  Biso   1.000  C
  C12      1.0000 0.10280  0.24730  0.67040  Biso   1.000  C
  C13      1.0000 0.00270  0.85280  0.42040  Biso   1.000  C
  C14      1.0000 0.89720  0.25270  0.67040  Biso   1.000  C
  C15      1.0000 0.49730  0.14720  0.92040  Biso   1.000  C
  C16      1.0000 0.60280  0.74730  0.17040  Biso   1.000  C
  C17      1.0000 0.35380  0.53980  0.03410  Biso   1.000  C
  C18      1.0000 0.21020  0.60380  0.28410  Biso   1.000  C
  C19      1.0000 0.14620  0.46020  0.53410  Biso   1.000  C
  C20      1.0000 0.28980  0.39620  0.78410  Biso   1.000  C
  C21      1.0000 0.85380  0.03980  0.53410  Biso   1.000  C
  C22      1.0000 0.71020  0.10380  0.78410  Biso   1.000  C
  C23      1.0000 0.64620  0.96020  0.03410  Biso   1.000  C
  C24      1.0000 0.78980  0.89620  0.28410  Biso   1.000  C
  C25      1.0000 0.64620  0.46020  0.96590  Biso   1.000  C
  C26      1.0000 0.28980  0.89620  0.21590  Biso   1.000  C
  C27      1.0000 0.85380  0.53980  0.46590  Biso   1.000  C
  C28      1.0000 0.21020  0.10380  0.71590  Biso   1.000  C
  C29      1.0000 0.14620  0.96020  0.46590  Biso   1.000  C
  C30      1.0000 0.78980  0.39620  0.71590  Biso   1.000  C
  C31      1.0000 0.35380  0.03980  0.96590  Biso   1.000  C
  C32      1.0000 0.71020  0.60380  0.21590  Biso   1.000  C
  H1       1.0000 0.37020  0.58340  0.01690  Biso   1.000  H
  H2       1.0000 0.16660  0.62020  0.26690  Biso   1.000  H
  H3       1.0000 0.12980  0.41660  0.51690  Biso   1.000  H
  H4       1.0000 0.33340  0.37980  0.76690  Biso   1.000  H
  H5       1.0000 0.87020  0.08340  0.51690  Biso   1.000  H
  H6       1.0000 0.66660  0.12020  0.76690  Biso   1.000  H
  H7       1.0000 0.62980  0.91660  0.01690  Biso   1.000  H
  H8       1.0000 0.83340  0.87980  0.26690  Biso   1.000  H
  H9       1.0000 0.62980  0.41660  0.98310  Biso   1.000  H
  H10      1.0000 0.33340  0.87980  0.23310  Biso   1.000  H
  H11      1.0000 0.87020  0.58340  0.48310  Biso   1.000  H
  H12      1.0000 0.16660  0.12020  0.73310  Biso   1.000  H
  H13      1.0000 0.12980  0.91660  0.48310  Biso   1.000  H
  H14      1.0000 0.83340  0.37980  0.73310  Biso   1.000  H
  H15      1.0000 0.37020  0.08340  0.98310  Biso   1.000  H
  H16      1.0000 0.66660  0.62020  0.23310  Biso   1.000  H
  C33      1.0000 0.45820  0.52090  0.63550  Biso   1.000  C
  C34      1.0000 0.22910  0.70820  0.88550  Biso   1.000  C
  C35      1.0000 0.04180  0.47910  0.13550  Biso   1.000  C
  C36      1.0000 0.27090  0.29180  0.38550  Biso   1.000  C
  C37      1.0000 0.95820  0.02090  0.13550  Biso   1.000  C
  C38      1.0000 0.72910  0.20820  0.38550  Biso   1.000  C
  C39      1.0000 0.54180  0.97910  0.63550  Biso   1.000  C
  C40      1.0000 0.77090  0.79180  0.88550  Biso   1.000  C
  C41      1.0000 0.54180  0.47910  0.36450  Biso   1.000  C
  C42      1.0000 0.27090  0.79180  0.61450  Biso   1.000  C
  C43      1.0000 0.95820  0.52090  0.86450  Biso   1.000  C
  C44      1.0000 0.22910  0.20820  0.11450  Biso   1.000  C
  C45      1.0000 0.04180  0.97910  0.86450  Biso   1.000  C
  C46      1.0000 0.77090  0.29180  0.11450  Biso   1.000  C
  C47      1.0000 0.45820  0.02090  0.36450  Biso   1.000  C
  C48      1.0000 0.72910  0.70820  0.61450  Biso   1.000  C
  H17      1.0000 0.45840  0.48860  0.57970  Biso   1.000  H
  H18      1.0000 0.26140  0.70840  0.82970  Biso   1.000  H
  H19      1.0000 0.04160  0.51140  0.07970  Biso   1.000  H
  H20      1.0000 0.23860  0.29160  0.32970  Biso   1.000  H
  H21      1.0000 0.95840  0.98860  0.07970  Biso   1.000  H
  H22      1.0000 0.76140  0.20840  0.32970  Biso   1.000  H
  H23      1.0000 0.54160  0.01140  0.57970  Biso   1.000  H
  H24      1.0000 0.73860  0.79160  0.82970  Biso   1.000  H
  H25      1.0000 0.54160  0.51140  0.42030  Biso   1.000  H
  H26      1.0000 0.23860  0.79160  0.67030  Biso   1.000  H
  H27      1.0000 0.95840  0.48860  0.92030  Biso   1.000  H
  H28      1.0000 0.26140  0.20840  0.17030  Biso   1.000  H
  H29      1.0000 0.04160  0.01140  0.92030  Biso   1.000  H
  H30      1.0000 0.73860  0.29160  0.17030  Biso   1.000  H
  H31      1.0000 0.45840  0.98860  0.42030  Biso   1.000  H
  H32      1.0000 0.76140  0.70840  0.67030  Biso   1.000  H
  C49      1.0000 0.44470  0.58760  0.61330  Biso   1.000  C
  C50      1.0000 0.16240  0.69470  0.86330  Biso   1.000  C
  C51      1.0000 0.05530  0.41240  0.11330  Biso   1.000  C
  C52      1.0000 0.33760  0.30530  0.36330  Biso   1.000  C
  C53      1.0000 0.94470  0.08760  0.11330  Biso   1.000  C
  C54      1.0000 0.66240  0.19470  0.36330  Biso   1.000  C
  C55      1.0000 0.55530  0.91240  0.61330  Biso   1.000  C
  C56      1.0000 0.83760  0.80530  0.86330  Biso   1.000  C
  C57      1.0000 0.55530  0.41240  0.38670  Biso   1.000  C
  C58      1.0000 0.33760  0.80530  0.63670  Biso   1.000  C
  C59      1.0000 0.94470  0.58760  0.88670  Biso   1.000  C
  C60      1.0000 0.16240  0.19470  0.13670  Biso   1.000  C
  C61      1.0000 0.05530  0.91240  0.88670  Biso   1.000  C
  C62      1.0000 0.83760  0.30530  0.13670  Biso   1.000  C
  C63      1.0000 0.44470  0.08760  0.38670  Biso   1.000  C
  C64      1.0000 0.66240  0.69470  0.63670  Biso   1.000  C
  H33      1.0000 0.43630  0.60240  0.54250  Biso   1.000  H
  H34      1.0000 0.14760  0.68630  0.79250  Biso   1.000  H
  H35      1.0000 0.06370  0.39760  0.04250  Biso   1.000  H
  H36      1.0000 0.35240  0.31370  0.29250  Biso   1.000  H
  H37      1.0000 0.93630  0.10240  0.04250  Biso   1.000  H
  H38      1.0000 0.64760  0.18630  0.29250  Biso   1.000  H
  H39      1.0000 0.56370  0.89760  0.54250  Biso   1.000  H
  H40      1.0000 0.85240  0.81370  0.79250  Biso   1.000  H
  H41      1.0000 0.56370  0.39760  0.45750  Biso   1.000  H
  H42      1.0000 0.35240  0.81370  0.70750  Biso   1.000  H
  H43      1.0000 0.93630  0.60240  0.95750  Biso   1.000  H
  H44      1.0000 0.14760  0.18630  0.20750  Biso   1.000  H
  H45      1.0000 0.06370  0.89760  0.95750  Biso   1.000  H
  H46      1.0000 0.85240  0.31370  0.20750  Biso   1.000  H
  H47      1.0000 0.43630  0.10240  0.45750  Biso   1.000  H
  H48      1.0000 0.64760  0.68630  0.70750  Biso   1.000  H
  C65      1.0000 0.44390  0.63200  0.69790  Biso   1.000  C
  C66      1.0000 0.11800  0.69390  0.94790  Biso   1.000  C
  C67      1.0000 0.05610  0.36800  0.19790  Biso   1.000  C
  C68      1.0000 0.38200  0.30610  0.44790  Biso   1.000  C
  C69      1.0000 0.94390  0.13200  0.19790  Biso   1.000  C
  C70      1.0000 0.61800  0.19390  0.44790  Biso   1.000  C
  C71      1.0000 0.55610  0.86800  0.69790  Biso   1.000  C
  C72      1.0000 0.88200  0.80610  0.94790  Biso   1.000  C
  C73      1.0000 0.55610  0.36800  0.30210  Biso   1.000  C
  C74      1.0000 0.38200  0.80610  0.55210  Biso   1.000  C
  C75      1.0000 0.94390  0.63200  0.80210  Biso   1.000  C
  C76      1.0000 0.11800  0.19390  0.05210  Biso   1.000  C
  C77      1.0000 0.05610  0.86800  0.80210  Biso   1.000  C
  C78      1.0000 0.88200  0.30610  0.05210  Biso   1.000  C
  C79      1.0000 0.44390  0.13200  0.30210  Biso   1.000  C
  C80      1.0000 0.61800  0.69390  0.55210  Biso   1.000  C
  H49      1.0000 0.43440  0.67830  0.68670  Biso   1.000  H
  H50      1.0000 0.07170  0.68440  0.93670  Biso   1.000  H
  H51      1.0000 0.06560  0.32170  0.18670  Biso   1.000  H
  H52      1.0000 0.42830  0.31560  0.43670  Biso   1.000  H
  H53      1.0000 0.93440  0.17830  0.18670  Biso   1.000  H
  H54      1.0000 0.57170  0.18440  0.43670  Biso   1.000  H
  H55      1.0000 0.56560  0.82170  0.68670  Biso   1.000  H
  H56      1.0000 0.92830  0.81560  0.93670  Biso   1.000  H
  H57      1.0000 0.56560  0.32170  0.31330  Biso   1.000  H
  H58      1.0000 0.42830  0.81560  0.56330  Biso   1.000  H
  H59      1.0000 0.93440  0.67830  0.81330  Biso   1.000  H
  H60      1.0000 0.07170  0.18440  0.06330  Biso   1.000  H
  H61      1.0000 0.06560  0.82170  0.81330  Biso   1.000  H
  H62      1.0000 0.92830  0.31560  0.06330  Biso   1.000  H
  H63      1.0000 0.43440  0.17830  0.31330  Biso   1.000  H
  H64      1.0000 0.57170  0.68440  0.56330  Biso   1.000  H
  C81      1.0000 0.45710  0.60820  0.79880  Biso   1.000  C
  C82      1.0000 0.14180  0.70710  0.04880  Biso   1.000  C
  C83      1.0000 0.04290  0.39180  0.29880  Biso   1.000  C
  C84      1.0000 0.35820  0.29290  0.54880  Biso   1.000  C
  C85      1.0000 0.95710  0.10820  0.29880  Biso   1.000  C
  C86      1.0000 0.64180  0.20710  0.54880  Biso   1.000  C
  C87      1.0000 0.54290  0.89180  0.79880  Biso   1.000  C
  C88      1.0000 0.85820  0.79290  0.04880  Biso   1.000  C
  C89      1.0000 0.54290  0.39180  0.20120  Biso   1.000  C
  C90      1.0000 0.35820  0.79290  0.45120  Biso   1.000  C
  C91      1.0000 0.95710  0.60820  0.70120  Biso   1.000  C
  C92      1.0000 0.14180  0.20710  0.95120  Biso   1.000  C
  C93      1.0000 0.04290  0.89180  0.70120  Biso   1.000  C
  C94      1.0000 0.85820  0.29290  0.95120  Biso   1.000  C
  C95      1.0000 0.45710  0.10820  0.20120  Biso   1.000  C
  C96      1.0000 0.64180  0.70710  0.45120  Biso   1.000  C
  H65      1.0000 0.45640  0.63950  0.85600  Biso   1.000  H
  H66      1.0000 0.11050  0.70640  0.10600  Biso   1.000  H
  H67      1.0000 0.04360  0.36050  0.35600  Biso   1.000  H
  H68      1.0000 0.38950  0.29360  0.60600  Biso   1.000  H
  H69      1.0000 0.95640  0.13950  0.35600  Biso   1.000  H
  H70      1.0000 0.61050  0.20640  0.60600  Biso   1.000  H
  H71      1.0000 0.54360  0.86050  0.85600  Biso   1.000  H
  H72      1.0000 0.88950  0.79360  0.10600  Biso   1.000  H
  H73      1.0000 0.54360  0.36050  0.14400  Biso   1.000  H
  H74      1.0000 0.38950  0.79360  0.39400  Biso   1.000  H
  H75      1.0000 0.95640  0.63950  0.64400  Biso   1.000  H
  H76      1.0000 0.11050  0.20640  0.89400  Biso   1.000  H
  H77      1.0000 0.04360  0.86050  0.64400  Biso   1.000  H
  H78      1.0000 0.88950  0.29360  0.89400  Biso   1.000  H
  H79      1.0000 0.45640  0.13950  0.14400  Biso   1.000  H
  H80      1.0000 0.61050  0.70640  0.39400  Biso   1.000  H
  C97      1.0000 0.47120  0.50160  0.73840  Biso   1.000  C
  C98      1.0000 0.24840  0.72120  0.98840  Biso   1.000  C
  C99      1.0000 0.02880  0.49840  0.23840  Biso   1.000  C
  C100     1.0000 0.25160  0.27880  0.48840  Biso   1.000  C
  C101     1.0000 0.97120  0.00160  0.23840  Biso   1.000  C
  C102     1.0000 0.74840  0.22120  0.48840  Biso   1.000  C
  C103     1.0000 0.52880  0.99840  0.73840  Biso   1.000  C
  C104     1.0000 0.75160  0.77880  0.98840  Biso   1.000  C
  C105     1.0000 0.52880  0.49840  0.26160  Biso   1.000  C
  C106     1.0000 0.25160  0.77880  0.51160  Biso   1.000  C
  C107     1.0000 0.97120  0.50160  0.76160  Biso   1.000  C
  C108     1.0000 0.24840  0.22120  0.01160  Biso   1.000  C
  C109     1.0000 0.02880  0.99840  0.76160  Biso   1.000  C
  C110     1.0000 0.75160  0.27880  0.01160  Biso   1.000  C
  C111     1.0000 0.47120  0.00160  0.26160  Biso   1.000  C
  C112     1.0000 0.74840  0.72120  0.51160  Biso   1.000  C
  H81      1.0000 0.48110  0.45550  0.75130  Biso   1.000  H
  H82      1.0000 0.29450  0.73110  0.00130  Biso   1.000  H
  H83      1.0000 0.01890  0.54450  0.25130  Biso   1.000  H
  H84      1.0000 0.20550  0.26890  0.50130  Biso   1.000  H
  H85      1.0000 0.98110  0.95550  0.25130  Biso   1.000  H
  H86      1.0000 0.79450  0.23110  0.50130  Biso   1.000  H
  H87      1.0000 0.51890  0.04450  0.75130  Biso   1.000  H
  H88      1.0000 0.70550  0.76890  0.00130  Biso   1.000  H
  H89      1.0000 0.51890  0.54450  0.24870  Biso   1.000  H
  H90      1.0000 0.20550  0.76890  0.49870  Biso   1.000  H
  H91      1.0000 0.98110  0.45550  0.74870  Biso   1.000  H
  H92      1.0000 0.29450  0.23110  0.99870  Biso   1.000  H
  H93      1.0000 0.01890  0.04450  0.74870  Biso   1.000  H
  H94      1.0000 0.70550  0.26890  0.99870  Biso   1.000  H
  H95      1.0000 0.48110  0.95550  0.24870  Biso   1.000  H
  H96      1.0000 0.79450  0.73110  0.49870  Biso   1.000  H
  C113     1.0000 0.56400  0.74600  0.98400  Biso   1.000  C
  C114     1.0000 0.00400  0.81400  0.23400  Biso   1.000  C
  C115     1.0000 0.93600  0.25400  0.48400  Biso   1.000  C
  C116     1.0000 0.49600  0.18600  0.73400  Biso   1.000  C
  C117     1.0000 0.06400  0.24600  0.48400  Biso   1.000  C
  C118     1.0000 0.50400  0.31400  0.73400  Biso   1.000  C
  C119     1.0000 0.43600  0.75400  0.98400  Biso   1.000  C
  C120     1.0000 0.99600  0.68600  0.23400  Biso   1.000  C
  C121     1.0000 0.43600  0.25400  0.01600  Biso   1.000  C
  C122     1.0000 0.49600  0.68600  0.26600  Biso   1.000  C
  C123     1.0000 0.06400  0.74600  0.51600  Biso   1.000  C
  C124     1.0000 0.00400  0.31400  0.76600  Biso   1.000  C
  C125     1.0000 0.93600  0.75400  0.51600  Biso   1.000  C
  C126     1.0000 0.99600  0.18600  0.76600  Biso   1.000  C
  C127     1.0000 0.56400  0.24600  0.01600  Biso   1.000  C
  C128     1.0000 0.50400  0.81400  0.26600  Biso   1.000  C
  C129     1.0000 0.37250  0.42720  0.06370  Biso   1.000  C
  C130     1.0000 0.32280  0.62250  0.31370  Biso   1.000  C
  C131     1.0000 0.12750  0.57280  0.56370  Biso   1.000  C
  C132     1.0000 0.17720  0.37750  0.81370  Biso   1.000  C
  C133     1.0000 0.87250  0.92720  0.56370  Biso   1.000  C
  C134     1.0000 0.82280  0.12250  0.81370  Biso   1.000  C
  C135     1.0000 0.62750  0.07280  0.06370  Biso   1.000  C
  C136     1.0000 0.67720  0.87750  0.31370  Biso   1.000  C
  C137     1.0000 0.62750  0.57280  0.93630  Biso   1.000  C
  C138     1.0000 0.17720  0.87750  0.18630  Biso   1.000  C
  C139     1.0000 0.87250  0.42720  0.43630  Biso   1.000  C
  C140     1.0000 0.32280  0.12250  0.68630  Biso   1.000  C
  C141     1.0000 0.12750  0.07280  0.43630  Biso   1.000  C
  C142     1.0000 0.67720  0.37750  0.68630  Biso   1.000  C
  C143     1.0000 0.37250  0.92720  0.93630  Biso   1.000  C
  C144     1.0000 0.82280  0.62250  0.18630  Biso   1.000  C
  H97      1.0000 0.40240  0.39000  0.06860  Biso   1.000  H
  H98      1.0000 0.36000  0.65240  0.31860  Biso   1.000  H
  H99      1.0000 0.09760  0.61000  0.56860  Biso   1.000  H
  H100     1.0000 0.14000  0.34760  0.81860  Biso   1.000  H
  H101     1.0000 0.90240  0.89000  0.56860  Biso   1.000  H
  H102     1.0000 0.86000  0.15240  0.81860  Biso   1.000  H
  H103     1.0000 0.59760  0.11000  0.06860  Biso   1.000  H
  H104     1.0000 0.64000  0.84760  0.31860  Biso   1.000  H
  H105     1.0000 0.59760  0.61000  0.93140  Biso   1.000  H
  H106     1.0000 0.14000  0.84760  0.18140  Biso   1.000  H
  H107     1.0000 0.90240  0.39000  0.43140  Biso   1.000  H
  H108     1.0000 0.36000  0.15240  0.68140  Biso   1.000  H
  H109     1.0000 0.09760  0.11000  0.43140  Biso   1.000  H
  H110     1.0000 0.64000  0.34760  0.68140  Biso   1.000  H
  H111     1.0000 0.40240  0.89000  0.93140  Biso   1.000  H
  H112     1.0000 0.86000  0.65240  0.18140  Biso   1.000  H
  C145     1.0000 0.30480  0.41660  0.08270  Biso   1.000  C
  C146     1.0000 0.33340  0.55480  0.33270  Biso   1.000  C
  C147     1.0000 0.19520  0.58340  0.58270  Biso   1.000  C
  C148     1.0000 0.16660  0.44520  0.83270  Biso   1.000  C
  C149     1.0000 0.80480  0.91660  0.58270  Biso   1.000  C
  C150     1.0000 0.83340  0.05480  0.83270  Biso   1.000  C
  C151     1.0000 0.69520  0.08340  0.08270  Biso   1.000  C
  C152     1.0000 0.66660  0.94520  0.33270  Biso   1.000  C
  C153     1.0000 0.69520  0.58340  0.91730  Biso   1.000  C
  C154     1.0000 0.16660  0.94520  0.16730  Biso   1.000  C
  C155     1.0000 0.80480  0.41660  0.41730  Biso   1.000  C
  C156     1.0000 0.33340  0.05480  0.66730  Biso   1.000  C
  C157     1.0000 0.19520  0.08340  0.41730  Biso   1.000  C
  C158     1.0000 0.66660  0.44520  0.66730  Biso   1.000  C
  C159     1.0000 0.30480  0.91660  0.91730  Biso   1.000  C
  C160     1.0000 0.83340  0.55480  0.16730  Biso   1.000  C
  H113     1.0000 0.28880  0.37270  0.09890  Biso   1.000  H
  H114     1.0000 0.37730  0.53880  0.34890  Biso   1.000  H
  H115     1.0000 0.21120  0.62730  0.59890  Biso   1.000  H
  H116     1.0000 0.12270  0.46120  0.84890  Biso   1.000  H
  H117     1.0000 0.78880  0.87270  0.59890  Biso   1.000  H
  H118     1.0000 0.87730  0.03880  0.84890  Biso   1.000  H
  H119     1.0000 0.71120  0.12730  0.09890  Biso   1.000  H
  H120     1.0000 0.62270  0.96120  0.34890  Biso   1.000  H
  H121     1.0000 0.71120  0.62730  0.90110  Biso   1.000  H
  H122     1.0000 0.12270  0.96120  0.15110  Biso   1.000  H
  H123     1.0000 0.78880  0.37270  0.40110  Biso   1.000  H
  H124     1.0000 0.37730  0.03880  0.65110  Biso   1.000  H
  H125     1.0000 0.21120  0.12730  0.40110  Biso   1.000  H
  H126     1.0000 0.62270  0.46120  0.65110  Biso   1.000  H
  H127     1.0000 0.28880  0.87270  0.90110  Biso   1.000  H
  H128     1.0000 0.87730  0.53880  0.15110  Biso   1.000  H
  C161     1.0000 0.26160  0.46910  0.07810  Biso   1.000  C
  C162     1.0000 0.28090  0.51160  0.32810  Biso   1.000  C
  C163     1.0000 0.23840  0.53090  0.57810  Biso   1.000  C
  C164     1.0000 0.21910  0.48840  0.82810  Biso   1.000  C
  C165     1.0000 0.76160  0.96910  0.57810  Biso   1.000  C
  C166     1.0000 0.78090  0.01160  0.82810  Biso   1.000  C
  C167     1.0000 0.73840  0.03090  0.07810  Biso   1.000  C
  C168     1.0000 0.71910  0.98840  0.32810  Biso   1.000  C
  C169     1.0000 0.73840  0.53090  0.92190  Biso   1.000  C
  C170     1.0000 0.21910  0.98840  0.17190  Biso   1.000  C
  C171     1.0000 0.76160  0.46910  0.42190  Biso   1.000  C
  C172     1.0000 0.28090  0.01160  0.67190  Biso   1.000  C
  C173     1.0000 0.23840  0.03090  0.42190  Biso   1.000  C
  C174     1.0000 0.71910  0.48840  0.67190  Biso   1.000  C
  C175     1.0000 0.26160  0.96910  0.92190  Biso   1.000  C
  C176     1.0000 0.78090  0.51160  0.17190  Biso   1.000  C
  H129     1.0000 0.21500  0.46270  0.09150  Biso   1.000  H
  H130     1.0000 0.28730  0.46500  0.34150  Biso   1.000  H
  H131     1.0000 0.28500  0.53730  0.59150  Biso   1.000  H
  H132     1.0000 0.21270  0.53500  0.84150  Biso   1.000  H
  H133     1.0000 0.71500  0.96270  0.59150  Biso   1.000  H
  H134     1.0000 0.78730  0.96500  0.84150  Biso   1.000  H
  H135     1.0000 0.78500  0.03730  0.09150  Biso   1.000  H
  H136     1.0000 0.71270  0.03500  0.34150  Biso   1.000  H
  H137     1.0000 0.78500  0.53730  0.90850  Biso   1.000  H
  H138     1.0000 0.21270  0.03500  0.15850  Biso   1.000  H
  H139     1.0000 0.71500  0.46270  0.40850  Biso   1.000  H
  H140     1.0000 0.28730  0.96500  0.65850  Biso   1.000  H
  H141     1.0000 0.28500  0.03730  0.40850  Biso   1.000  H
  H142     1.0000 0.71270  0.53500  0.65850  Biso   1.000  H
  H143     1.0000 0.21500  0.96270  0.90850  Biso   1.000  H
  H144     1.0000 0.78730  0.46500  0.15850  Biso   1.000  H
  C177     1.0000 0.28670  0.53260  0.05330  Biso   1.000  C
  C178     1.0000 0.21740  0.53670  0.30330  Biso   1.000  C
  C179     1.0000 0.21330  0.46740  0.55330  Biso   1.000  C
  C180     1.0000 0.28260  0.46330  0.80330  Biso   1.000  C
  C181     1.0000 0.78670  0.03260  0.55330  Biso   1.000  C
  C182     1.0000 0.71740  0.03670  0.80330  Biso   1.000  C
  C183     1.0000 0.71330  0.96740  0.05330  Biso   1.000  C
  C184     1.0000 0.78260  0.96330  0.30330  Biso   1.000  C
  C185     1.0000 0.71330  0.46740  0.94670  Biso   1.000  C
  C186     1.0000 0.28260  0.96330  0.19670  Biso   1.000  C
  C187     1.0000 0.78670  0.53260  0.44670  Biso   1.000  C
  C188     1.0000 0.21740  0.03670  0.69670  Biso   1.000  C
  C189     1.0000 0.21330  0.96740  0.44670  Biso   1.000  C
  C190     1.0000 0.78260  0.46330  0.69670  Biso   1.000  C
  C191     1.0000 0.28670  0.03260  0.94670  Biso   1.000  C
  C192     1.0000 0.71740  0.53670  0.19670  Biso   1.000  C
  H145     1.0000 0.25740  0.57040  0.04970  Biso   1.000  H
  H146     1.0000 0.17960  0.50740  0.29970  Biso   1.000  H
  H147     1.0000 0.24260  0.42960  0.54970  Biso   1.000  H
  H148     1.0000 0.32040  0.49260  0.79970  Biso   1.000  H
  H149     1.0000 0.75740  0.07040  0.54970  Biso   1.000  H
  H150     1.0000 0.67960  0.00740  0.79970  Biso   1.000  H
  H151     1.0000 0.74260  0.92960  0.04970  Biso   1.000  H
  H152     1.0000 0.82040  0.99260  0.29970  Biso   1.000  H
  H153     1.0000 0.74260  0.42960  0.95030  Biso   1.000  H
  H154     1.0000 0.32040  0.99260  0.20030  Biso   1.000  H
  H155     1.0000 0.75740  0.57040  0.45030  Biso   1.000  H
  H156     1.0000 0.17960  0.00740  0.70030  Biso   1.000  H
  H157     1.0000 0.24260  0.92960  0.45030  Biso   1.000  H
  H158     1.0000 0.82040  0.49260  0.70030  Biso   1.000  H
  H159     1.0000 0.25740  0.07040  0.95030  Biso   1.000  H
  H160     1.0000 0.67960  0.50740  0.20030  Biso   1.000  H
