data_image0
_cell_length_a       20.7624
_cell_length_b       11.4376
_cell_length_c       16.7341
_cell_angle_alpha    90
_cell_angle_beta     102.662
_cell_angle_gamma    90

_symmetry_space_group_name_H-M    "P 1"
_symmetry_int_tables_number       1

loop_
  _symmetry_equiv_pos_as_xyz
  'x, y, z'

loop_
  _atom_site_label
  _atom_site_occupancy
  _atom_site_fract_x
  _atom_site_fract_y
  _atom_site_fract_z
  _atom_site_thermal_displace_type
  _atom_site_B_iso_or_equiv
  _atom_site_type_symbol
  O1       1.0000 0.04740  0.34410  0.88890  Biso   1.000  O
  O2       1.0000 0.95260  0.34410  0.61110  Biso   1.000  O
  O3       1.0000 0.54740  0.84410  0.88890  Biso   1.000  O
  O4       1.0000 0.45260  0.84410  0.61110  Biso   1.000  O
  O5       1.0000 0.95260  0.65590  0.11110  Biso   1.000  O
  O6       1.0000 0.04740  0.65590  0.38890  Biso   1.000  O
  O7       1.0000 0.45260  0.15590  0.11110  Biso   1.000  O
  O8       1.0000 0.54740  0.15590  0.38890  Biso   1.000  O
  H1       1.0000 0.01010  0.31080  0.87400  Biso   1.000  H
  H2       1.0000 0.98990  0.31080  0.62600  Biso   1.000  H
  H3       1.0000 0.51010  0.81080  0.87400  Biso   1.000  H
  H4       1.0000 0.48990  0.81080  0.62600  Biso   1.000  H
  H5       1.0000 0.98990  0.68920  0.12600  Biso   1.000  H
  H6       1.0000 0.01010  0.68920  0.37400  Biso   1.000  H
  H7       1.0000 0.48990  0.18920  0.12600  Biso   1.000  H
  H8       1.0000 0.51010  0.18920  0.37400  Biso   1.000  H
  H9       1.0000 0.05690  0.38090  0.93410  Biso   1.000  H
  H10      1.0000 0.94310  0.38090  0.56590  Biso   1.000  H
  H11      1.0000 0.55690  0.88090  0.93410  Biso   1.000  H
  H12      1.0000 0.44310  0.88090  0.56590  Biso   1.000  H
  H13      1.0000 0.94310  0.61910  0.06590  Biso   1.000  H
  H14      1.0000 0.05690  0.61910  0.43410  Biso   1.000  H
  H15      1.0000 0.44310  0.11910  0.06590  Biso   1.000  H
  H16      1.0000 0.55690  0.11910  0.43410  Biso   1.000  H
  Mo1      1.0000 0.07907  0.89245  0.21859  Biso   1.000  Mo
  Mo2      1.0000 0.92093  0.89245  0.28141  Biso   1.000  Mo
  Mo3      1.0000 0.57907  0.39245  0.21859  Biso   1.000  Mo
  Mo4      1.0000 0.42093  0.39245  0.28141  Biso   1.000  Mo
  Mo5      1.0000 0.92093  0.10755  0.78141  Biso   1.000  Mo
  Mo6      1.0000 0.07907  0.10755  0.71859  Biso   1.000  Mo
  Mo7      1.0000 0.42093  0.60755  0.78141  Biso   1.000  Mo
  Mo8      1.0000 0.57907  0.60755  0.71859  Biso   1.000  Mo
  Mo9      1.0000 0.00000  0.34939  0.25000  Biso   1.000  Mo
  Mo10     1.0000 0.50000  0.84939  0.25000  Biso   1.000  Mo
  Mo11     1.0000 0.00000  0.65061  0.75000  Biso   1.000  Mo
  Mo12     1.0000 0.50000  0.15061  0.75000  Biso   1.000  Mo
  Mo13     1.0000 0.09799  0.17059  0.16452  Biso   1.000  Mo
  Mo14     1.0000 0.90201  0.17059  0.33548  Biso   1.000  Mo
  Mo15     1.0000 0.59799  0.67059  0.16452  Biso   1.000  Mo
  Mo16     1.0000 0.40201  0.67059  0.33548  Biso   1.000  Mo
  Mo17     1.0000 0.90201  0.82941  0.83548  Biso   1.000  Mo
  Mo18     1.0000 0.09799  0.82941  0.66452  Biso   1.000  Mo
  Mo19     1.0000 0.40201  0.32941  0.83548  Biso   1.000  Mo
  Mo20     1.0000 0.59799  0.32941  0.66452  Biso   1.000  Mo
  Cu1      1.0000 0.88888  0.23945  0.97364  Biso   1.000  Cu
  Cu2      1.0000 0.11112  0.23945  0.52636  Biso   1.000  Cu
  Cu3      1.0000 0.38888  0.73945  0.97364  Biso   1.000  Cu
  Cu4      1.0000 0.61112  0.73945  0.52636  Biso   1.000  Cu
  Cu5      1.0000 0.11112  0.76055  0.02636  Biso   1.000  Cu
  Cu6      1.0000 0.88888  0.76055  0.47364  Biso   1.000  Cu
  Cu7      1.0000 0.61112  0.26055  0.02636  Biso   1.000  Cu
  Cu8      1.0000 0.38888  0.26055  0.47364  Biso   1.000  Cu
  P1       1.0000 0.93872  0.09153  0.14721  Biso   1.000  P
  P2       1.0000 0.06128  0.09153  0.35279  Biso   1.000  P
  P3       1.0000 0.43872  0.59153  0.14721  Biso   1.000  P
  P4       1.0000 0.56128  0.59153  0.35279  Biso   1.000  P
  P5       1.0000 0.06128  0.90847  0.85279  Biso   1.000  P
  P6       1.0000 0.93872  0.90847  0.64721  Biso   1.000  P
  P7       1.0000 0.56128  0.40847  0.85279  Biso   1.000  P
  P8       1.0000 0.43872  0.40847  0.64721  Biso   1.000  P
  Mg1      1.0000 0.00000  0.00000  0.00000  Biso   1.000  Mg
  Mg2      1.0000 0.00000  0.00000  0.50000  Biso   1.000  Mg
  Mg3      1.0000 0.50000  0.50000  0.00000  Biso   1.000  Mg
  Mg4      1.0000 0.50000  0.50000  0.50000  Biso   1.000  Mg
  O9       1.0000 0.00000  0.84160  0.25000  Biso   1.000  O
  O10      1.0000 0.50000  0.34160  0.25000  Biso   1.000  O
  O11      1.0000 0.00000  0.15840  0.75000  Biso   1.000  O
  O12      1.0000 0.50000  0.65840  0.75000  Biso   1.000  O
  O13      1.0000 0.01397  0.06130  0.16860  Biso   1.000  O
  O14      1.0000 0.98603  0.06130  0.33140  Biso   1.000  O
  O15      1.0000 0.51397  0.56130  0.16860  Biso   1.000  O
  O16      1.0000 0.48603  0.56130  0.33140  Biso   1.000  O
  O17      1.0000 0.98603  0.93870  0.83140  Biso   1.000  O
  O18      1.0000 0.01397  0.93870  0.66860  Biso   1.000  O
  O19      1.0000 0.48603  0.43870  0.83140  Biso   1.000  O
  O20      1.0000 0.51397  0.43870  0.66860  Biso   1.000  O
  O21      1.0000 0.96640  0.29720  0.34070  Biso   1.000  O
  O22      1.0000 0.03360  0.29720  0.15930  Biso   1.000  O
  O23      1.0000 0.46640  0.79720  0.34070  Biso   1.000  O
  O24      1.0000 0.53360  0.79720  0.15930  Biso   1.000  O
  O25      1.0000 0.03360  0.70280  0.65930  Biso   1.000  O
  O26      1.0000 0.96640  0.70280  0.84070  Biso   1.000  O
  O27      1.0000 0.53360  0.20280  0.65930  Biso   1.000  O
  O28      1.0000 0.46640  0.20280  0.84070  Biso   1.000  O
  O29      1.0000 0.90326  0.98110  0.16410  Biso   1.000  O
  O30      1.0000 0.09674  0.98110  0.33590  Biso   1.000  O
  O31      1.0000 0.40326  0.48110  0.16410  Biso   1.000  O
  O32      1.0000 0.59674  0.48110  0.33590  Biso   1.000  O
  O33      1.0000 0.09674  0.01890  0.83590  Biso   1.000  O
  O34      1.0000 0.90326  0.01890  0.66410  Biso   1.000  O
  O35      1.0000 0.59674  0.51890  0.83590  Biso   1.000  O
  O36      1.0000 0.40326  0.51890  0.66410  Biso   1.000  O
  O37      1.0000 0.92040  0.12560  0.05760  Biso   1.000  O
  O38      1.0000 0.07960  0.12560  0.44240  Biso   1.000  O
  O39      1.0000 0.42040  0.62560  0.05760  Biso   1.000  O
  O40      1.0000 0.57960  0.62560  0.44240  Biso   1.000  O
  O41      1.0000 0.07960  0.87440  0.94240  Biso   1.000  O
  O42      1.0000 0.92040  0.87440  0.55760  Biso   1.000  O
  O43      1.0000 0.57960  0.37440  0.94240  Biso   1.000  O
  O44      1.0000 0.42040  0.37440  0.55760  Biso   1.000  O
  O45      1.0000 0.13553  0.02310  0.20270  Biso   1.000  O
  O46      1.0000 0.86447  0.02310  0.29730  Biso   1.000  O
  O47      1.0000 0.63553  0.52310  0.20270  Biso   1.000  O
  O48      1.0000 0.36447  0.52310  0.29730  Biso   1.000  O
  O49      1.0000 0.86447  0.97690  0.79730  Biso   1.000  O
  O50      1.0000 0.13553  0.97690  0.70270  Biso   1.000  O
  O51      1.0000 0.36447  0.47690  0.79730  Biso   1.000  O
  O52      1.0000 0.63553  0.47690  0.70270  Biso   1.000  O
  O53      1.0000 0.05850  0.85120  0.11640  Biso   1.000  O
  O54      1.0000 0.94150  0.85120  0.38360  Biso   1.000  O
  O55      1.0000 0.55850  0.35120  0.11640  Biso   1.000  O
  O56      1.0000 0.44150  0.35120  0.38360  Biso   1.000  O
  O57      1.0000 0.94150  0.14880  0.88360  Biso   1.000  O
  O58      1.0000 0.05850  0.14880  0.61640  Biso   1.000  O
  O59      1.0000 0.44150  0.64880  0.88360  Biso   1.000  O
  O60      1.0000 0.55850  0.64880  0.61640  Biso   1.000  O
  O61      1.0000 0.09000  0.15750  0.06110  Biso   1.000  O
  O62      1.0000 0.91000  0.15750  0.43890  Biso   1.000  O
  O63      1.0000 0.59000  0.65750  0.06110  Biso   1.000  O
  O64      1.0000 0.41000  0.65750  0.43890  Biso   1.000  O
  O65      1.0000 0.91000  0.84250  0.93890  Biso   1.000  O
  O66      1.0000 0.09000  0.84250  0.56110  Biso   1.000  O
  O67      1.0000 0.41000  0.34250  0.93890  Biso   1.000  O
  O68      1.0000 0.59000  0.34250  0.56110  Biso   1.000  O
  O69      1.0000 0.16910  0.24850  0.19910  Biso   1.000  O
  O70      1.0000 0.83090  0.24850  0.30090  Biso   1.000  O
  O71      1.0000 0.66910  0.74850  0.19910  Biso   1.000  O
  O72      1.0000 0.33090  0.74850  0.30090  Biso   1.000  O
  O73      1.0000 0.83090  0.75150  0.80090  Biso   1.000  O
  O74      1.0000 0.16910  0.75150  0.69910  Biso   1.000  O
  O75      1.0000 0.33090  0.25150  0.80090  Biso   1.000  O
  O76      1.0000 0.66910  0.25150  0.69910  Biso   1.000  O
  O77      1.0000 0.06020  0.44090  0.30050  Biso   1.000  O
  O78      1.0000 0.93980  0.44090  0.19950  Biso   1.000  O
  O79      1.0000 0.56020  0.94090  0.30050  Biso   1.000  O
  O80      1.0000 0.43980  0.94090  0.19950  Biso   1.000  O
  O81      1.0000 0.93980  0.55910  0.69950  Biso   1.000  O
  O82      1.0000 0.06020  0.55910  0.80050  Biso   1.000  O
  O83      1.0000 0.43980  0.05910  0.69950  Biso   1.000  O
  O84      1.0000 0.56020  0.05910  0.80050  Biso   1.000  O
  O85      1.0000 0.92440  0.19360  0.20260  Biso   1.000  O
  O86      1.0000 0.07560  0.19360  0.29740  Biso   1.000  O
  O87      1.0000 0.42440  0.69360  0.20260  Biso   1.000  O
  O88      1.0000 0.57560  0.69360  0.29740  Biso   1.000  O
  O89      1.0000 0.07560  0.80640  0.79740  Biso   1.000  O
  O90      1.0000 0.92440  0.80640  0.70260  Biso   1.000  O
  O91      1.0000 0.57560  0.30640  0.79740  Biso   1.000  O
  O92      1.0000 0.42440  0.30640  0.70260  Biso   1.000  O
  N1       1.0000 0.80050  0.16460  0.94450  Biso   1.000  N
  N2       1.0000 0.19950  0.16460  0.55550  Biso   1.000  N
  N3       1.0000 0.30050  0.66460  0.94450  Biso   1.000  N
  N4       1.0000 0.69950  0.66460  0.55550  Biso   1.000  N
  N5       1.0000 0.19950  0.83540  0.05550  Biso   1.000  N
  N6       1.0000 0.80050  0.83540  0.44450  Biso   1.000  N
  N7       1.0000 0.69950  0.33540  0.05550  Biso   1.000  N
  N8       1.0000 0.30050  0.33540  0.44450  Biso   1.000  N
  O93      1.0000 0.96600  0.34430  0.00560  Biso   1.000  O
  O94      1.0000 0.03400  0.34430  0.49440  Biso   1.000  O
  O95      1.0000 0.46600  0.84430  0.00560  Biso   1.000  O
  O96      1.0000 0.53400  0.84430  0.49440  Biso   1.000  O
  O97      1.0000 0.03400  0.65570  0.99440  Biso   1.000  O
  O98      1.0000 0.96600  0.65570  0.50560  Biso   1.000  O
  O99      1.0000 0.53400  0.15570  0.99440  Biso   1.000  O
  O100     1.0000 0.46600  0.15570  0.50560  Biso   1.000  O
  H17      1.0000 0.98490  0.33070  0.05300  Biso   1.000  H
  H18      1.0000 0.01510  0.33070  0.44700  Biso   1.000  H
  H19      1.0000 0.48490  0.83070  0.05300  Biso   1.000  H
  H20      1.0000 0.51510  0.83070  0.44700  Biso   1.000  H
  H21      1.0000 0.01510  0.66930  0.94700  Biso   1.000  H
  H22      1.0000 0.98490  0.66930  0.55300  Biso   1.000  H
  H23      1.0000 0.51510  0.16930  0.94700  Biso   1.000  H
  H24      1.0000 0.48490  0.16930  0.55300  Biso   1.000  H
  O101     1.0000 0.13530  0.79010  0.25970  Biso   1.000  O
  O102     1.0000 0.86470  0.79010  0.24030  Biso   1.000  O
  O103     1.0000 0.63530  0.29010  0.25970  Biso   1.000  O
  O104     1.0000 0.36470  0.29010  0.24030  Biso   1.000  O
  O105     1.0000 0.86470  0.20990  0.74030  Biso   1.000  O
  O106     1.0000 0.13530  0.20990  0.75970  Biso   1.000  O
  O107     1.0000 0.36470  0.70990  0.74030  Biso   1.000  O
  O108     1.0000 0.63530  0.70990  0.75970  Biso   1.000  O
  N9       1.0000 0.84350  0.35860  0.89530  Biso   1.000  N
  N10      1.0000 0.15650  0.35860  0.60470  Biso   1.000  N
  N11      1.0000 0.34350  0.85860  0.89530  Biso   1.000  N
  N12      1.0000 0.65650  0.85860  0.60470  Biso   1.000  N
  N13      1.0000 0.15650  0.64140  0.10470  Biso   1.000  N
  N14      1.0000 0.84350  0.64140  0.39530  Biso   1.000  N
  N15      1.0000 0.65650  0.14140  0.10470  Biso   1.000  N
  N16      1.0000 0.34350  0.14140  0.39530  Biso   1.000  N
  C1       1.0000 0.75580  0.22620  0.89310  Biso   1.000  C
  C2       1.0000 0.24420  0.22620  0.60690  Biso   1.000  C
  C3       1.0000 0.25580  0.72620  0.89310  Biso   1.000  C
  C4       1.0000 0.74420  0.72620  0.60690  Biso   1.000  C
  C5       1.0000 0.24420  0.77380  0.10690  Biso   1.000  C
  C6       1.0000 0.75580  0.77380  0.39310  Biso   1.000  C
  C7       1.0000 0.74420  0.27380  0.10690  Biso   1.000  C
  C8       1.0000 0.25580  0.27380  0.39310  Biso   1.000  C
  C9       1.0000 0.77980  0.33430  0.86470  Biso   1.000  C
  C10      1.0000 0.22020  0.33430  0.63530  Biso   1.000  C
  C11      1.0000 0.27980  0.83430  0.86470  Biso   1.000  C
  C12      1.0000 0.72020  0.83430  0.63530  Biso   1.000  C
  C13      1.0000 0.22020  0.66570  0.13530  Biso   1.000  C
  C14      1.0000 0.77980  0.66570  0.36470  Biso   1.000  C
  C15      1.0000 0.72020  0.16570  0.13530  Biso   1.000  C
  C16      1.0000 0.27980  0.16570  0.36470  Biso   1.000  C
  N17      1.0000 0.69650  0.17370  0.87770  Biso   1.000  N
  N18      1.0000 0.30350  0.17370  0.62230  Biso   1.000  N
  N19      1.0000 0.19650  0.67370  0.87770  Biso   1.000  N
  N20      1.0000 0.80350  0.67370  0.62230  Biso   1.000  N
  N21      1.0000 0.30350  0.82630  0.12230  Biso   1.000  N
  N22      1.0000 0.69650  0.82630  0.37770  Biso   1.000  N
  N23      1.0000 0.80350  0.32630  0.12230  Biso   1.000  N
  N24      1.0000 0.19650  0.32630  0.37770  Biso   1.000  N
  H25      1.0000 0.66070  0.19880  0.84610  Biso   1.000  H
  H26      1.0000 0.33930  0.19880  0.65390  Biso   1.000  H
  H27      1.0000 0.16070  0.69880  0.84610  Biso   1.000  H
  H28      1.0000 0.83930  0.69880  0.65390  Biso   1.000  H
  H29      1.0000 0.33930  0.80120  0.15390  Biso   1.000  H
  H30      1.0000 0.66070  0.80120  0.34610  Biso   1.000  H
  H31      1.0000 0.83930  0.30120  0.15390  Biso   1.000  H
  H32      1.0000 0.16070  0.30120  0.34610  Biso   1.000  H
  N25      1.0000 0.75190  0.41790  0.81330  Biso   1.000  N
  N26      1.0000 0.24810  0.41790  0.68670  Biso   1.000  N
  N27      1.0000 0.25190  0.91790  0.81330  Biso   1.000  N
  N28      1.0000 0.74810  0.91790  0.68670  Biso   1.000  N
  N29      1.0000 0.24810  0.58210  0.18670  Biso   1.000  N
  N30      1.0000 0.75190  0.58210  0.31330  Biso   1.000  N
  N31      1.0000 0.74810  0.08210  0.18670  Biso   1.000  N
  N32      1.0000 0.25190  0.08210  0.31330  Biso   1.000  N
  H33      1.0000 0.71120  0.42080  0.78750  Biso   1.000  H
  H34      1.0000 0.28880  0.42080  0.71250  Biso   1.000  H
  H35      1.0000 0.21120  0.92080  0.78750  Biso   1.000  H
  H36      1.0000 0.78880  0.92080  0.71250  Biso   1.000  H
  H37      1.0000 0.28880  0.57920  0.21250  Biso   1.000  H
  H38      1.0000 0.71120  0.57920  0.28750  Biso   1.000  H
  H39      1.0000 0.78880  0.07920  0.21250  Biso   1.000  H
  H40      1.0000 0.21120  0.07920  0.28750  Biso   1.000  H
  C17      1.0000 0.85660  0.46060  0.86010  Biso   1.000  C
  C18      1.0000 0.14340  0.46060  0.63990  Biso   1.000  C
  C19      1.0000 0.35660  0.96060  0.86010  Biso   1.000  C
  C20      1.0000 0.64340  0.96060  0.63990  Biso   1.000  C
  C21      1.0000 0.14340  0.53940  0.13990  Biso   1.000  C
  C22      1.0000 0.85660  0.53940  0.36010  Biso   1.000  C
  C23      1.0000 0.64340  0.03940  0.13990  Biso   1.000  C
  C24      1.0000 0.35660  0.03940  0.36010  Biso   1.000  C
  H41      1.0000 0.89730  0.49810  0.86940  Biso   1.000  H
  H42      1.0000 0.10270  0.49810  0.63060  Biso   1.000  H
  H43      1.0000 0.39730  0.99810  0.86940  Biso   1.000  H
  H44      1.0000 0.60270  0.99810  0.63060  Biso   1.000  H
  H45      1.0000 0.10270  0.50190  0.13060  Biso   1.000  H
  H46      1.0000 0.89730  0.50190  0.36940  Biso   1.000  H
  H47      1.0000 0.60270  0.00190  0.13060  Biso   1.000  H
  H48      1.0000 0.39730  0.00190  0.36940  Biso   1.000  H
  C25      1.0000 0.76830  0.06680  0.96290  Biso   1.000  C
  C26      1.0000 0.23170  0.06680  0.53710  Biso   1.000  C
  C27      1.0000 0.26830  0.56680  0.96290  Biso   1.000  C
  C28      1.0000 0.73170  0.56680  0.53710  Biso   1.000  C
  C29      1.0000 0.23170  0.93320  0.03710  Biso   1.000  C
  C30      1.0000 0.76830  0.93320  0.46290  Biso   1.000  C
  C31      1.0000 0.73170  0.43320  0.03710  Biso   1.000  C
  C32      1.0000 0.26830  0.43320  0.46290  Biso   1.000  C
  H49      1.0000 0.78710  0.00650  0.99750  Biso   1.000  H
  H50      1.0000 0.21290  0.00650  0.50250  Biso   1.000  H
  H51      1.0000 0.28710  0.50650  0.99750  Biso   1.000  H
  H52      1.0000 0.71290  0.50650  0.50250  Biso   1.000  H
  H53      1.0000 0.21290  0.99350  0.00250  Biso   1.000  H
  H54      1.0000 0.78710  0.99350  0.49750  Biso   1.000  H
  H55      1.0000 0.71290  0.49350  0.00250  Biso   1.000  H
  H56      1.0000 0.28710  0.49350  0.49750  Biso   1.000  H
  C33      1.0000 0.80020  0.49880  0.80920  Biso   1.000  C
  C34      1.0000 0.19980  0.49880  0.69080  Biso   1.000  C
  C35      1.0000 0.30020  0.99880  0.80920  Biso   1.000  C
  C36      1.0000 0.69980  0.99880  0.69080  Biso   1.000  C
  C37      1.0000 0.19980  0.50120  0.19080  Biso   1.000  C
  C38      1.0000 0.80020  0.50120  0.30920  Biso   1.000  C
  C39      1.0000 0.69980  0.00120  0.19080  Biso   1.000  C
  C40      1.0000 0.30020  0.00120  0.30920  Biso   1.000  C
  H57      1.0000 0.79530  0.56640  0.77760  Biso   1.000  H
  H58      1.0000 0.20470  0.56640  0.72240  Biso   1.000  H
  H59      1.0000 0.29530  0.06640  0.77760  Biso   1.000  H
  H60      1.0000 0.70470  0.06640  0.72240  Biso   1.000  H
  H61      1.0000 0.20470  0.43360  0.22240  Biso   1.000  H
  H62      1.0000 0.79530  0.43360  0.27760  Biso   1.000  H
  H63      1.0000 0.70470  0.93360  0.22240  Biso   1.000  H
  H64      1.0000 0.29530  0.93360  0.27760  Biso   1.000  H
  C41      1.0000 0.70420  0.07270  0.92200  Biso   1.000  C
  C42      1.0000 0.29580  0.07270  0.57800  Biso   1.000  C
  C43      1.0000 0.20420  0.57270  0.92200  Biso   1.000  C
  C44      1.0000 0.79580  0.57270  0.57800  Biso   1.000  C
  C45      1.0000 0.29580  0.92730  0.07800  Biso   1.000  C
  C46      1.0000 0.70420  0.92730  0.42200  Biso   1.000  C
  C47      1.0000 0.79580  0.42730  0.07800  Biso   1.000  C
  C48      1.0000 0.20420  0.42730  0.42200  Biso   1.000  C
  H65      1.0000 0.67150  0.01790  0.92400  Biso   1.000  H
  H66      1.0000 0.32850  0.01790  0.57600  Biso   1.000  H
  H67      1.0000 0.17150  0.51790  0.92400  Biso   1.000  H
  H68      1.0000 0.82850  0.51790  0.57600  Biso   1.000  H
  H69      1.0000 0.32850  0.98210  0.07600  Biso   1.000  H
  H70      1.0000 0.67150  0.98210  0.42400  Biso   1.000  H
  H71      1.0000 0.82850  0.48210  0.07600  Biso   1.000  H
  H72      1.0000 0.17150  0.48210  0.42400  Biso   1.000  H
  O109     1.0000 0.78150  0.75940  0.05640  Biso   1.000  O
  O110     1.0000 0.21850  0.75940  0.44360  Biso   1.000  O
  O111     1.0000 0.28150  0.25940  0.05640  Biso   1.000  O
  O112     1.0000 0.71850  0.25940  0.44360  Biso   1.000  O
  O113     1.0000 0.21850  0.24060  0.94360  Biso   1.000  O
  O114     1.0000 0.78150  0.24060  0.55640  Biso   1.000  O
  O115     1.0000 0.71850  0.74060  0.94360  Biso   1.000  O
  O116     1.0000 0.28150  0.74060  0.55640  Biso   1.000  O
  O117     1.0000 0.70880  0.76150  0.02270  Biso   1.000  O
  O118     1.0000 0.29120  0.76150  0.47730  Biso   1.000  O
  O119     1.0000 0.20880  0.26150  0.02270  Biso   1.000  O
  O120     1.0000 0.79120  0.26150  0.47730  Biso   1.000  O
  O121     1.0000 0.29120  0.23850  0.97730  Biso   1.000  O
  O122     1.0000 0.70880  0.23850  0.52270  Biso   1.000  O
  O123     1.0000 0.79120  0.73850  0.97730  Biso   1.000  O
  O124     1.0000 0.20880  0.73850  0.52270  Biso   1.000  O
