data_image0
_cell_length_a       24.1294
_cell_length_b       8.3304
_cell_length_c       15.7117
_cell_angle_alpha    90
_cell_angle_beta     117.435
_cell_angle_gamma    90

_symmetry_space_group_name_H-M    "P 1"
_symmetry_int_tables_number       1

loop_
  _symmetry_equiv_pos_as_xyz
  'x, y, z'

loop_
  _atom_site_label
  _atom_site_occupancy
  _atom_site_fract_x
  _atom_site_fract_y
  _atom_site_fract_z
  _atom_site_thermal_displace_type
  _atom_site_B_iso_or_equiv
  _atom_site_type_symbol
  Cu1      1.0000 0.83576  0.67025  0.07851  Biso   1.000  Cu
  Cu2      1.0000 0.33576  0.17025  0.07851  Biso   1.000  Cu
  Cu3      1.0000 0.83576  0.32975  0.57851  Biso   1.000  Cu
  Cu4      1.0000 0.33576  0.82975  0.57851  Biso   1.000  Cu
  Cu5      1.0000 0.16424  0.32975  0.92149  Biso   1.000  Cu
  Cu6      1.0000 0.66424  0.82975  0.92149  Biso   1.000  Cu
  Cu7      1.0000 0.16424  0.67025  0.42149  Biso   1.000  Cu
  Cu8      1.0000 0.66424  0.17025  0.42149  Biso   1.000  Cu
  Cl1      1.0000 0.75965  0.55261  0.09617  Biso   1.000  Cl
  Cl2      1.0000 0.25965  0.05261  0.09617  Biso   1.000  Cl
  Cl3      1.0000 0.75965  0.44739  0.59617  Biso   1.000  Cl
  Cl4      1.0000 0.25965  0.94739  0.59617  Biso   1.000  Cl
  Cl5      1.0000 0.24035  0.44739  0.90383  Biso   1.000  Cl
  Cl6      1.0000 0.74035  0.94739  0.90383  Biso   1.000  Cl
  Cl7      1.0000 0.24035  0.55261  0.40383  Biso   1.000  Cl
  Cl8      1.0000 0.74035  0.05261  0.40383  Biso   1.000  Cl
  P1       1.0000 0.00000  0.52385  0.25000  Biso   1.000  P
  P2       1.0000 0.50000  0.02385  0.25000  Biso   1.000  P
  P3       1.0000 0.00000  0.47615  0.75000  Biso   1.000  P
  P4       1.0000 0.50000  0.97615  0.75000  Biso   1.000  P
  F1       1.0000 0.99714  0.66321  0.32400  Biso   1.000  F
  F2       1.0000 0.49714  0.16321  0.32400  Biso   1.000  F
  F3       1.0000 0.99714  0.33679  0.82400  Biso   1.000  F
  F4       1.0000 0.49714  0.83679  0.82400  Biso   1.000  F
  F5       1.0000 0.00286  0.33679  0.67600  Biso   1.000  F
  F6       1.0000 0.50286  0.83679  0.67600  Biso   1.000  F
  F7       1.0000 0.00286  0.66321  0.17600  Biso   1.000  F
  F8       1.0000 0.50286  0.16321  0.17600  Biso   1.000  F
  F9       1.0000 0.08000  0.52163  0.30822  Biso   1.000  F
  F10      1.0000 0.58000  0.02163  0.30822  Biso   1.000  F
  F11      1.0000 0.08000  0.47837  0.80822  Biso   1.000  F
  F12      1.0000 0.58000  0.97837  0.80822  Biso   1.000  F
  F13      1.0000 0.92000  0.47837  0.69178  Biso   1.000  F
  F14      1.0000 0.42000  0.97837  0.69178  Biso   1.000  F
  F15      1.0000 0.92000  0.52163  0.19178  Biso   1.000  F
  F16      1.0000 0.42000  0.02163  0.19178  Biso   1.000  F
  F17      1.0000 0.99961  0.37697  0.32531  Biso   1.000  F
  F18      1.0000 0.49961  0.87697  0.32531  Biso   1.000  F
  F19      1.0000 0.99961  0.62303  0.82531  Biso   1.000  F
  F20      1.0000 0.49961  0.12303  0.82531  Biso   1.000  F
  F21      1.0000 0.00039  0.62303  0.67469  Biso   1.000  F
  F22      1.0000 0.50039  0.12303  0.67469  Biso   1.000  F
  F23      1.0000 0.00039  0.37697  0.17469  Biso   1.000  F
  F24      1.0000 0.50039  0.87697  0.17469  Biso   1.000  F
  C1       1.0000 0.82430  0.36310  0.96582  Biso   1.000  C
  C2       1.0000 0.32430  0.86310  0.96582  Biso   1.000  C
  C3       1.0000 0.82430  0.63690  0.46582  Biso   1.000  C
  C4       1.0000 0.32430  0.13690  0.46582  Biso   1.000  C
  C5       1.0000 0.17570  0.63690  0.03418  Biso   1.000  C
  C6       1.0000 0.67570  0.13690  0.03418  Biso   1.000  C
  C7       1.0000 0.17570  0.36310  0.53418  Biso   1.000  C
  C8       1.0000 0.67570  0.86310  0.53418  Biso   1.000  C
  C9       1.0000 0.84249  0.25830  0.91440  Biso   1.000  C
  C10      1.0000 0.34249  0.75830  0.91440  Biso   1.000  C
  C11      1.0000 0.84249  0.74170  0.41440  Biso   1.000  C
  C12      1.0000 0.34249  0.24170  0.41440  Biso   1.000  C
  C13      1.0000 0.15751  0.74170  0.08560  Biso   1.000  C
  C14      1.0000 0.65751  0.24170  0.08560  Biso   1.000  C
  C15      1.0000 0.15751  0.25830  0.58560  Biso   1.000  C
  C16      1.0000 0.65751  0.75830  0.58560  Biso   1.000  C
  C17      1.0000 0.88525  0.30960  0.88496  Biso   1.000  C
  C18      1.0000 0.38525  0.80960  0.88496  Biso   1.000  C
  C19      1.0000 0.88525  0.69040  0.38496  Biso   1.000  C
  C20      1.0000 0.38525  0.19040  0.38496  Biso   1.000  C
  C21      1.0000 0.11475  0.69040  0.11504  Biso   1.000  C
  C22      1.0000 0.61475  0.19040  0.11504  Biso   1.000  C
  C23      1.0000 0.11475  0.30960  0.61504  Biso   1.000  C
  C24      1.0000 0.61475  0.80960  0.61504  Biso   1.000  C
  C25      1.0000 0.90912  0.46400  0.90709  Biso   1.000  C
  C26      1.0000 0.40912  0.96400  0.90709  Biso   1.000  C
  C27      1.0000 0.90912  0.53600  0.40709  Biso   1.000  C
  C28      1.0000 0.40912  0.03600  0.40709  Biso   1.000  C
  C29      1.0000 0.09088  0.53600  0.09291  Biso   1.000  C
  C30      1.0000 0.59088  0.03600  0.09291  Biso   1.000  C
  C31      1.0000 0.09088  0.46400  0.59291  Biso   1.000  C
  C32      1.0000 0.59088  0.96400  0.59291  Biso   1.000  C
  C33      1.0000 0.88916  0.56140  0.95910  Biso   1.000  C
  C34      1.0000 0.38916  0.06140  0.95910  Biso   1.000  C
  C35      1.0000 0.88916  0.43860  0.45910  Biso   1.000  C
  C36      1.0000 0.38916  0.93860  0.45910  Biso   1.000  C
  C37      1.0000 0.11084  0.43860  0.04090  Biso   1.000  C
  C38      1.0000 0.61084  0.93860  0.04090  Biso   1.000  C
  C39      1.0000 0.11084  0.56140  0.54090  Biso   1.000  C
  C40      1.0000 0.61084  0.06140  0.54090  Biso   1.000  C
  C41      1.0000 0.91293  0.72550  0.99036  Biso   1.000  C
  C42      1.0000 0.41293  0.22550  0.99036  Biso   1.000  C
  C43      1.0000 0.91293  0.27450  0.49036  Biso   1.000  C
  C44      1.0000 0.41293  0.77450  0.49036  Biso   1.000  C
  C45      1.0000 0.08707  0.27450  0.00964  Biso   1.000  C
  C46      1.0000 0.58707  0.77450  0.00964  Biso   1.000  C
  C47      1.0000 0.08707  0.72550  0.50964  Biso   1.000  C
  C48      1.0000 0.58707  0.22550  0.50964  Biso   1.000  C
  C49      1.0000 0.95558  0.80470  0.96957  Biso   1.000  C
  C50      1.0000 0.45558  0.30470  0.96957  Biso   1.000  C
  C51      1.0000 0.95558  0.19530  0.46957  Biso   1.000  C
  C52      1.0000 0.45558  0.69530  0.46957  Biso   1.000  C
  C53      1.0000 0.04442  0.19530  0.03043  Biso   1.000  C
  C54      1.0000 0.54442  0.69530  0.03043  Biso   1.000  C
  C55      1.0000 0.04442  0.80470  0.53043  Biso   1.000  C
  C56      1.0000 0.54442  0.30470  0.53043  Biso   1.000  C
  C57      1.0000 0.97685  0.95610  0.00986  Biso   1.000  C
  C58      1.0000 0.47685  0.45610  0.00986  Biso   1.000  C
  C59      1.0000 0.97685  0.04390  0.50986  Biso   1.000  C
  C60      1.0000 0.47685  0.54390  0.50986  Biso   1.000  C
  C61      1.0000 0.02315  0.04390  0.99014  Biso   1.000  C
  C62      1.0000 0.52315  0.54390  0.99014  Biso   1.000  C
  C63      1.0000 0.02315  0.95610  0.49014  Biso   1.000  C
  C64      1.0000 0.52315  0.45610  0.49014  Biso   1.000  C
  C65      1.0000 0.04592  0.97760  0.93058  Biso   1.000  C
  C66      1.0000 0.54592  0.47760  0.93058  Biso   1.000  C
  C67      1.0000 0.04592  0.02240  0.43058  Biso   1.000  C
  C68      1.0000 0.54592  0.52240  0.43058  Biso   1.000  C
  C69      1.0000 0.95408  0.02240  0.06942  Biso   1.000  C
  C70      1.0000 0.45408  0.52240  0.06942  Biso   1.000  C
  C71      1.0000 0.95408  0.97760  0.56942  Biso   1.000  C
  C72      1.0000 0.45408  0.47760  0.56942  Biso   1.000  C
  C73      1.0000 0.09006  0.06260  0.91525  Biso   1.000  C
  C74      1.0000 0.59006  0.56260  0.91525  Biso   1.000  C
  C75      1.0000 0.09006  0.93740  0.41525  Biso   1.000  C
  C76      1.0000 0.59006  0.43740  0.41525  Biso   1.000  C
  C77      1.0000 0.90994  0.93740  0.08475  Biso   1.000  C
  C78      1.0000 0.40994  0.43740  0.08475  Biso   1.000  C
  C79      1.0000 0.90994  0.06260  0.58475  Biso   1.000  C
  C80      1.0000 0.40994  0.56260  0.58475  Biso   1.000  C
  C81      1.0000 0.12134  0.00830  0.85884  Biso   1.000  C
  C82      1.0000 0.62134  0.50830  0.85884  Biso   1.000  C
  C83      1.0000 0.12134  0.99170  0.35884  Biso   1.000  C
  C84      1.0000 0.62134  0.49170  0.35884  Biso   1.000  C
  C85      1.0000 0.87866  0.99170  0.14116  Biso   1.000  C
  C86      1.0000 0.37866  0.49170  0.14116  Biso   1.000  C
  C87      1.0000 0.87866  0.00830  0.64116  Biso   1.000  C
  C88      1.0000 0.37866  0.50830  0.64116  Biso   1.000  C
  C89      1.0000 0.11432  0.85550  0.82025  Biso   1.000  C
  C90      1.0000 0.61432  0.35550  0.82025  Biso   1.000  C
  C91      1.0000 0.11432  0.14450  0.32025  Biso   1.000  C
  C92      1.0000 0.61432  0.64450  0.32025  Biso   1.000  C
  C93      1.0000 0.88568  0.14450  0.17975  Biso   1.000  C
  C94      1.0000 0.38568  0.64450  0.17975  Biso   1.000  C
  C95      1.0000 0.88568  0.85550  0.67975  Biso   1.000  C
  C96      1.0000 0.38568  0.35550  0.67975  Biso   1.000  C
  C97      1.0000 0.14911  0.81490  0.77328  Biso   1.000  C
  C98      1.0000 0.64911  0.31490  0.77328  Biso   1.000  C
  C99      1.0000 0.14911  0.18510  0.27328  Biso   1.000  C
  C100     1.0000 0.64911  0.68510  0.27328  Biso   1.000  C
  C101     1.0000 0.85089  0.18510  0.22672  Biso   1.000  C
  C102     1.0000 0.35089  0.68510  0.22672  Biso   1.000  C
  C103     1.0000 0.85089  0.81490  0.72672  Biso   1.000  C
  C104     1.0000 0.35089  0.31490  0.72672  Biso   1.000  C
  C105     1.0000 0.18881  0.92810  0.76548  Biso   1.000  C
  C106     1.0000 0.68881  0.42810  0.76548  Biso   1.000  C
  C107     1.0000 0.18881  0.07190  0.26548  Biso   1.000  C
  C108     1.0000 0.68881  0.57190  0.26548  Biso   1.000  C
  C109     1.0000 0.81119  0.07190  0.23452  Biso   1.000  C
  C110     1.0000 0.31119  0.57190  0.23452  Biso   1.000  C
  C111     1.0000 0.81119  0.92810  0.73452  Biso   1.000  C
  C112     1.0000 0.31119  0.42810  0.73452  Biso   1.000  C
  C113     1.0000 0.19283  0.07820  0.80576  Biso   1.000  C
  C114     1.0000 0.69283  0.57820  0.80576  Biso   1.000  C
  C115     1.0000 0.19283  0.92180  0.30576  Biso   1.000  C
  C116     1.0000 0.69283  0.42180  0.30576  Biso   1.000  C
  C117     1.0000 0.80717  0.92180  0.19424  Biso   1.000  C
  C118     1.0000 0.30717  0.42180  0.19424  Biso   1.000  C
  C119     1.0000 0.80717  0.07820  0.69424  Biso   1.000  C
  C120     1.0000 0.30717  0.57820  0.69424  Biso   1.000  C
  N1       1.0000 0.84683  0.51180  0.98822  Biso   1.000  N
  N2       1.0000 0.34683  0.01180  0.98822  Biso   1.000  N
  N3       1.0000 0.84683  0.48820  0.48822  Biso   1.000  N
  N4       1.0000 0.34683  0.98820  0.48822  Biso   1.000  N
  N5       1.0000 0.15317  0.48820  0.01178  Biso   1.000  N
  N6       1.0000 0.65317  0.98820  0.01178  Biso   1.000  N
  N7       1.0000 0.15317  0.51180  0.51178  Biso   1.000  N
  N8       1.0000 0.65317  0.01180  0.51178  Biso   1.000  N
  N9       1.0000 0.10942  0.20730  0.95499  Biso   1.000  N
  N10      1.0000 0.60942  0.70730  0.95499  Biso   1.000  N
  N11      1.0000 0.10942  0.79270  0.45499  Biso   1.000  N
  N12      1.0000 0.60942  0.29270  0.45499  Biso   1.000  N
  N13      1.0000 0.89058  0.79270  0.04501  Biso   1.000  N
  N14      1.0000 0.39058  0.29270  0.04501  Biso   1.000  N
  N15      1.0000 0.89058  0.20730  0.54501  Biso   1.000  N
  N16      1.0000 0.39058  0.70730  0.54501  Biso   1.000  N
  N17      1.0000 0.16007  0.11920  0.85166  Biso   1.000  N
  N18      1.0000 0.66007  0.61920  0.85166  Biso   1.000  N
  N19      1.0000 0.16007  0.88080  0.35166  Biso   1.000  N
  N20      1.0000 0.66007  0.38080  0.35166  Biso   1.000  N
  N21      1.0000 0.83993  0.88080  0.14834  Biso   1.000  N
  N22      1.0000 0.33993  0.38080  0.14834  Biso   1.000  N
  N23      1.0000 0.83993  0.11920  0.64834  Biso   1.000  N
  N24      1.0000 0.33993  0.61920  0.64834  Biso   1.000  N
  H1       1.0000 0.20540  0.66500  0.01390  Biso   1.000  H
  H2       1.0000 0.70540  0.16500  0.01390  Biso   1.000  H
  H3       1.0000 0.20540  0.33500  0.51390  Biso   1.000  H
  H4       1.0000 0.70540  0.83500  0.51390  Biso   1.000  H
  H5       1.0000 0.79460  0.33500  0.98610  Biso   1.000  H
  H6       1.0000 0.29460  0.83500  0.98610  Biso   1.000  H
  H7       1.0000 0.79460  0.66500  0.48610  Biso   1.000  H
  H8       1.0000 0.29460  0.16500  0.48610  Biso   1.000  H
  H9       1.0000 0.17500  0.83400  0.09960  Biso   1.000  H
  H10      1.0000 0.67500  0.33400  0.09960  Biso   1.000  H
  H11      1.0000 0.17500  0.16600  0.59960  Biso   1.000  H
  H12      1.0000 0.67500  0.66600  0.59960  Biso   1.000  H
  H13      1.0000 0.82500  0.16600  0.90040  Biso   1.000  H
  H14      1.0000 0.32500  0.66600  0.90040  Biso   1.000  H
  H15      1.0000 0.82500  0.83400  0.40040  Biso   1.000  H
  H16      1.0000 0.32500  0.33400  0.40040  Biso   1.000  H
  H17      1.0000 0.10160  0.75500  0.14860  Biso   1.000  H
  H18      1.0000 0.60160  0.25500  0.14860  Biso   1.000  H
  H19      1.0000 0.10160  0.24500  0.64860  Biso   1.000  H
  H20      1.0000 0.60160  0.74500  0.64860  Biso   1.000  H
  H21      1.0000 0.89840  0.24500  0.85140  Biso   1.000  H
  H22      1.0000 0.39840  0.74500  0.85140  Biso   1.000  H
  H23      1.0000 0.89840  0.75500  0.35140  Biso   1.000  H
  H24      1.0000 0.39840  0.25500  0.35140  Biso   1.000  H
  H25      1.0000 0.06290  0.50100  0.11100  Biso   1.000  H
  H26      1.0000 0.56290  0.00100  0.11100  Biso   1.000  H
  H27      1.0000 0.06290  0.49900  0.61100  Biso   1.000  H
  H28      1.0000 0.56290  0.99900  0.61100  Biso   1.000  H
  H29      1.0000 0.93710  0.49900  0.88900  Biso   1.000  H
  H30      1.0000 0.43710  0.99900  0.88900  Biso   1.000  H
  H31      1.0000 0.93710  0.50100  0.38900  Biso   1.000  H
  H32      1.0000 0.43710  0.00100  0.38900  Biso   1.000  H
  H33      1.0000 0.03090  0.24200  0.06790  Biso   1.000  H
  H34      1.0000 0.53090  0.74200  0.06790  Biso   1.000  H
  H35      1.0000 0.03090  0.75800  0.56790  Biso   1.000  H
  H36      1.0000 0.53090  0.25800  0.56790  Biso   1.000  H
  H37      1.0000 0.96910  0.75800  0.93210  Biso   1.000  H
  H38      1.0000 0.46910  0.25800  0.93210  Biso   1.000  H
  H39      1.0000 0.96910  0.24200  0.43210  Biso   1.000  H
  H40      1.0000 0.46910  0.74200  0.43210  Biso   1.000  H
  H41      1.0000 0.02950  0.87700  0.89520  Biso   1.000  H
  H42      1.0000 0.52950  0.37700  0.89520  Biso   1.000  H
  H43      1.0000 0.02950  0.12300  0.39520  Biso   1.000  H
  H44      1.0000 0.52950  0.62300  0.39520  Biso   1.000  H
  H45      1.0000 0.97050  0.12300  0.10480  Biso   1.000  H
  H46      1.0000 0.47050  0.62300  0.10480  Biso   1.000  H
  H47      1.0000 0.97050  0.87700  0.60480  Biso   1.000  H
  H48      1.0000 0.47050  0.37700  0.60480  Biso   1.000  H
  H49      1.0000 0.08700  0.78700  0.82570  Biso   1.000  H
  H50      1.0000 0.58700  0.28700  0.82570  Biso   1.000  H
  H51      1.0000 0.08700  0.21300  0.32570  Biso   1.000  H
  H52      1.0000 0.58700  0.71300  0.32570  Biso   1.000  H
  H53      1.0000 0.91300  0.21300  0.17430  Biso   1.000  H
  H54      1.0000 0.41300  0.71300  0.17430  Biso   1.000  H
  H55      1.0000 0.91300  0.78700  0.67430  Biso   1.000  H
  H56      1.0000 0.41300  0.28700  0.67430  Biso   1.000  H
  H57      1.0000 0.14520  0.71200  0.74960  Biso   1.000  H
  H58      1.0000 0.64520  0.21200  0.74960  Biso   1.000  H
  H59      1.0000 0.14520  0.28800  0.24960  Biso   1.000  H
  H60      1.0000 0.64520  0.78800  0.24960  Biso   1.000  H
  H61      1.0000 0.85480  0.28800  0.25040  Biso   1.000  H
  H62      1.0000 0.35480  0.78800  0.25040  Biso   1.000  H
  H63      1.0000 0.85480  0.71200  0.75040  Biso   1.000  H
  H64      1.0000 0.35480  0.21200  0.75040  Biso   1.000  H
  H65      1.0000 0.21330  0.90800  0.73780  Biso   1.000  H
  H66      1.0000 0.71330  0.40800  0.73780  Biso   1.000  H
  H67      1.0000 0.21330  0.09200  0.23780  Biso   1.000  H
  H68      1.0000 0.71330  0.59200  0.23780  Biso   1.000  H
  H69      1.0000 0.78670  0.09200  0.26220  Biso   1.000  H
  H70      1.0000 0.28670  0.59200  0.26220  Biso   1.000  H
  H71      1.0000 0.78670  0.90800  0.76220  Biso   1.000  H
  H72      1.0000 0.28670  0.40800  0.76220  Biso   1.000  H
  H73      1.0000 0.21780  0.15100  0.80130  Biso   1.000  H
  H74      1.0000 0.71780  0.65100  0.80130  Biso   1.000  H
  H75      1.0000 0.21780  0.84900  0.30130  Biso   1.000  H
  H76      1.0000 0.71780  0.34900  0.30130  Biso   1.000  H
  H77      1.0000 0.78220  0.84900  0.19870  Biso   1.000  H
  H78      1.0000 0.28220  0.34900  0.19870  Biso   1.000  H
  H79      1.0000 0.78220  0.15100  0.69870  Biso   1.000  H
  H80      1.0000 0.28220  0.65100  0.69870  Biso   1.000  H
