data_image0
_cell_length_a       9.874
_cell_length_b       10.3908
_cell_length_c       11.6448
_cell_angle_alpha    105.216
_cell_angle_beta     106.583
_cell_angle_gamma    92.98

_symmetry_space_group_name_H-M    "P 1"
_symmetry_int_tables_number       1

loop_
  _symmetry_equiv_pos_as_xyz
  'x, y, z'

loop_
  _atom_site_label
  _atom_site_occupancy
  _atom_site_fract_x
  _atom_site_fract_y
  _atom_site_fract_z
  _atom_site_thermal_displace_type
  _atom_site_B_iso_or_equiv
  _atom_site_type_symbol
  Cu1      1.0000 0.57356  0.11629  0.18889  Biso   1.000  Cu
  Cu2      1.0000 0.42644  0.88371  0.81111  Biso   1.000  Cu
  Mo1      1.0000 0.94029  0.23699  0.33469  Biso   1.000  Mo
  Mo2      1.0000 0.05971  0.76301  0.66531  Biso   1.000  Mo
  Mo3      1.0000 0.20048  0.38554  0.27944  Biso   1.000  Mo
  Mo4      1.0000 0.79952  0.61446  0.72056  Biso   1.000  Mo
  Mo5      1.0000 0.96198  0.58766  0.37991  Biso   1.000  Mo
  Mo6      1.0000 0.03802  0.41234  0.62009  Biso   1.000  Mo
  Mo7      1.0000 0.69871  0.44067  0.42701  Biso   1.000  Mo
  Mo8      1.0000 0.30129  0.55933  0.57299  Biso   1.000  Mo
  O1       1.0000 0.77770  0.13780  0.23830  Biso   1.000  O
  O2       1.0000 0.22230  0.86220  0.76170  Biso   1.000  O
  O3       1.0000 0.04520  0.12550  0.38080  Biso   1.000  O
  O4       1.0000 0.95480  0.87450  0.61920  Biso   1.000  O
  O5       1.0000 0.01290  0.27820  0.21500  Biso   1.000  O
  O6       1.0000 0.98710  0.72180  0.78500  Biso   1.000  O
  O7       1.0000 0.29280  0.26410  0.32240  Biso   1.000  O
  O8       1.0000 0.70720  0.73590  0.67760  Biso   1.000  O
  O9       1.0000 0.23560  0.39870  0.14720  Biso   1.000  O
  O10      1.0000 0.76440  0.60130  0.85280  Biso   1.000  O
  O11      1.0000 0.04990  0.54270  0.26630  Biso   1.000  O
  O12      1.0000 0.95010  0.45730  0.73370  Biso   1.000  O
  O13      1.0000 0.87770  0.30340  0.48500  Biso   1.000  O
  O14      1.0000 0.12230  0.69660  0.51500  Biso   1.000  O
  O15      1.0000 0.86290  0.70620  0.34040  Biso   1.000  O
  O16      1.0000 0.13710  0.29380  0.65960  Biso   1.000  O
  O17      1.0000 0.09310  0.41870  0.45350  Biso   1.000  O
  O18      1.0000 0.90690  0.58130  0.54650  Biso   1.000  O
  O19      1.0000 0.60900  0.56370  0.38540  Biso   1.000  O
  O20      1.0000 0.39100  0.43630  0.61460  Biso   1.000  O
  O21      1.0000 0.31000  0.53960  0.41020  Biso   1.000  O
  O22      1.0000 0.69000  0.46040  0.58980  Biso   1.000  O
  O23      1.0000 0.82260  0.42870  0.31720  Biso   1.000  O
  O24      1.0000 0.17740  0.57130  0.68280  Biso   1.000  O
  O25      1.0000 0.58730  0.29340  0.34320  Biso   1.000  O
  O26      1.0000 0.41270  0.70660  0.65680  Biso   1.000  O
  O27      1.0000 0.03010  0.66620  0.07670  Biso   1.000  O
  O28      1.0000 0.96990  0.33380  0.92330  Biso   1.000  O
  C1       1.0000 0.63860  0.28480  0.03030  Biso   1.000  C
  C2       1.0000 0.36140  0.71520  0.96970  Biso   1.000  C
  C3       1.0000 0.60100  0.35360  0.94160  Biso   1.000  C
  C4       1.0000 0.39900  0.64640  0.05840  Biso   1.000  C
  C5       1.0000 0.45820  0.34720  0.87690  Biso   1.000  C
  C6       1.0000 0.54180  0.65280  0.12310  Biso   1.000  C
  C7       1.0000 0.35720  0.27280  0.90390  Biso   1.000  C
  C8       1.0000 0.64280  0.72720  0.09610  Biso   1.000  C
  C9       1.0000 0.40010  0.20500  0.99220  Biso   1.000  C
  C10      1.0000 0.59990  0.79500  0.00780  Biso   1.000  C
  C11      1.0000 0.30300  0.12100  0.02680  Biso   1.000  C
  C12      1.0000 0.69700  0.87900  0.97320  Biso   1.000  C
  C13      1.0000 0.15520  0.09430  0.97820  Biso   1.000  C
  C14      1.0000 0.84480  0.90570  0.02180  Biso   1.000  C
  C15      1.0000 0.07930  0.01430  0.02470  Biso   1.000  C
  C16      1.0000 0.92070  0.98570  0.97530  Biso   1.000  C
  C17      1.0000 0.15620  0.96110  0.11880  Biso   1.000  C
  C18      1.0000 0.84380  0.03890  0.88120  Biso   1.000  C
  C19      1.0000 0.30380  0.99040  0.16380  Biso   1.000  C
  C20      1.0000 0.69620  0.00960  0.83620  Biso   1.000  C
  C21      1.0000 0.40220  0.94330  0.26140  Biso   1.000  C
  C22      1.0000 0.59780  0.05670  0.73860  Biso   1.000  C
  C23      1.0000 0.36140  0.85890  0.32310  Biso   1.000  C
  C24      1.0000 0.63860  0.14110  0.67690  Biso   1.000  C
  C25      1.0000 0.46770  0.82060  0.41160  Biso   1.000  C
  C26      1.0000 0.53230  0.17940  0.58840  Biso   1.000  C
  C27      1.0000 0.60840  0.86670  0.43440  Biso   1.000  C
  C28      1.0000 0.39160  0.13330  0.56560  Biso   1.000  C
  C29      1.0000 0.64190  0.95140  0.36900  Biso   1.000  C
  C30      1.0000 0.35810  0.04860  0.63100  Biso   1.000  C
  N1       1.0000 0.54010  0.21220  0.05570  Biso   1.000  N
  N2       1.0000 0.45990  0.78780  0.94430  Biso   1.000  N
  N3       1.0000 0.37170  0.06840  0.11700  Biso   1.000  N
  N4       1.0000 0.62830  0.93160  0.88300  Biso   1.000  N
  N5       1.0000 0.54200  0.98790  0.28470  Biso   1.000  N
  N6       1.0000 0.45800  0.01210  0.71530  Biso   1.000  N
  H1       1.0000 0.74000  0.28700  0.07500  Biso   1.000  H
  H2       1.0000 0.26000  0.71300  0.92500  Biso   1.000  H
  H3       1.0000 0.67400  0.39900  0.92300  Biso   1.000  H
  H4       1.0000 0.32600  0.60100  0.07700  Biso   1.000  H
  H5       1.0000 0.43200  0.38800  0.82100  Biso   1.000  H
  H6       1.0000 0.56800  0.61200  0.17900  Biso   1.000  H
  H7       1.0000 0.27400  0.27400  0.87000  Biso   1.000  H
  H8       1.0000 0.72600  0.72600  0.13000  Biso   1.000  H
  H9       1.0000 0.11200  0.13100  0.91400  Biso   1.000  H
  H10      1.0000 0.88800  0.86900  0.08600  Biso   1.000  H
  H11      1.0000 0.11600  0.91300  0.14500  Biso   1.000  H
  H12      1.0000 0.88400  0.08700  0.85500  Biso   1.000  H
  H13      1.0000 0.23900  0.82500  0.32100  Biso   1.000  H
  H14      1.0000 0.76100  0.17500  0.67900  Biso   1.000  H
  H15      1.0000 0.45200  0.77100  0.45200  Biso   1.000  H
  H16      1.0000 0.54800  0.22900  0.54800  Biso   1.000  H
  H17      1.0000 0.68700  0.84500  0.48800  Biso   1.000  H
  H18      1.0000 0.31300  0.15500  0.51200  Biso   1.000  H
  H19      1.0000 0.73900  0.98100  0.38800  Biso   1.000  H
  H20      1.0000 0.26100  0.01900  0.61200  Biso   1.000  H
  H21      1.0000 0.96900  0.62800  0.99900  Biso   1.000  H
  H22      1.0000 0.03100  0.37200  0.00100  Biso   1.000  H
  H23      1.0000 0.04100  0.60400  0.12700  Biso   1.000  H
  H24      1.0000 0.95900  0.39600  0.87300  Biso   1.000  H
