data_image0
_cell_length_a       8.2758
_cell_length_b       9.6097
_cell_length_c       10.4723
_cell_angle_alpha    63.623
_cell_angle_beta     72.001
_cell_angle_gamma    69.095

_symmetry_space_group_name_H-M    "P 1"
_symmetry_int_tables_number       1

loop_
  _symmetry_equiv_pos_as_xyz
  'x, y, z'

loop_
  _atom_site_label
  _atom_site_occupancy
  _atom_site_fract_x
  _atom_site_fract_y
  _atom_site_fract_z
  _atom_site_thermal_displace_type
  _atom_site_B_iso_or_equiv
  _atom_site_type_symbol
  Cu1      1.0000 0.88844  0.14184  0.67580  Biso   1.000  Cu
  Cu2      1.0000 0.11156  0.85816  0.32420  Biso   1.000  Cu
  Mo1      1.0000 0.06323  0.24681  0.30125  Biso   1.000  Mo
  Mo2      1.0000 0.93677  0.75319  0.69875  Biso   1.000  Mo
  O1       1.0000 0.01060  0.27950  0.46518  Biso   1.000  O
  O2       1.0000 0.98940  0.72050  0.53482  Biso   1.000  O
  O3       1.0000 0.28500  0.23400  0.22677  Biso   1.000  O
  O4       1.0000 0.71500  0.76600  0.77323  Biso   1.000  O
  O5       1.0000 0.93400  0.40660  0.17878  Biso   1.000  O
  O6       1.0000 0.06600  0.59340  0.82122  Biso   1.000  O
  O7       1.0000 0.98610  0.93593  0.66325  Biso   1.000  O
  O8       1.0000 0.01390  0.06407  0.33675  Biso   1.000  O
  C1       1.0000 0.61180  0.16990  0.52560  Biso   1.000  C
  C2       1.0000 0.38820  0.83010  0.47440  Biso   1.000  C
  C3       1.0000 0.44980  0.23600  0.48120  Biso   1.000  C
  C4       1.0000 0.55020  0.76400  0.51880  Biso   1.000  C
  C5       1.0000 0.32180  0.34660  0.53640  Biso   1.000  C
  C6       1.0000 0.67820  0.65340  0.46360  Biso   1.000  C
  C7       1.0000 0.35940  0.38810  0.63340  Biso   1.000  C
  C8       1.0000 0.64060  0.61190  0.36660  Biso   1.000  C
  C9       1.0000 0.52470  0.31760  0.67200  Biso   1.000  C
  C10      1.0000 0.47530  0.68240  0.32800  Biso   1.000  C
  C11      1.0000 0.58290  0.35250  0.77220  Biso   1.000  C
  C12      1.0000 0.41710  0.64750  0.22780  Biso   1.000  C
  C13      1.0000 0.47780  0.43600  0.86070  Biso   1.000  C
  C14      1.0000 0.52220  0.56400  0.13930  Biso   1.000  C
  C15      1.0000 0.55420  0.45670  0.95120  Biso   1.000  C
  C16      1.0000 0.44580  0.54330  0.04880  Biso   1.000  C
  C17      1.0000 0.73470  0.39050  0.95050  Biso   1.000  C
  C18      1.0000 0.26530  0.60950  0.04950  Biso   1.000  C
  C19      1.0000 0.83050  0.30350  0.86350  Biso   1.000  C
  C20      1.0000 0.16950  0.69650  0.13650  Biso   1.000  C
  C21      1.0000 0.01420  0.20530  0.86650  Biso   1.000  C
  C22      1.0000 0.98580  0.79470  0.13350  Biso   1.000  C
  C23      1.0000 0.12170  0.20210  0.94690  Biso   1.000  C
  C24      1.0000 0.87830  0.79790  0.05310  Biso   1.000  C
  C25      1.0000 0.28630  0.09310  0.95140  Biso   1.000  C
  C26      1.0000 0.71370  0.90690  0.04860  Biso   1.000  C
  C27      1.0000 0.34010  0.99370  0.87320  Biso   1.000  C
  C28      1.0000 0.65990  0.00630  0.12680  Biso   1.000  C
  C29      1.0000 0.22530  0.00650  0.79370  Biso   1.000  C
  C30      1.0000 0.77470  0.99350  0.20630  Biso   1.000  C
  N1       1.0000 0.64850  0.20960  0.61930  Biso   1.000  N
  N2       1.0000 0.35150  0.79040  0.38070  Biso   1.000  N
  N3       1.0000 0.75510  0.28890  0.77501  Biso   1.000  N
  N4       1.0000 0.24490  0.71110  0.22499  Biso   1.000  N
  N5       1.0000 0.06600  0.10900  0.79030  Biso   1.000  N
  N6       1.0000 0.93400  0.89100  0.20970  Biso   1.000  N
  H1       1.0000 0.70400  0.10200  0.48800  Biso   1.000  H
  H2       1.0000 0.29600  0.89800  0.51200  Biso   1.000  H
  H3       1.0000 0.43400  0.19700  0.42500  Biso   1.000  H
  H4       1.0000 0.56600  0.80300  0.57500  Biso   1.000  H
  H5       1.0000 0.21300  0.39700  0.51500  Biso   1.000  H
  H6       1.0000 0.78700  0.60300  0.48500  Biso   1.000  H
  H7       1.0000 0.27500  0.46100  0.66500  Biso   1.000  H
  H8       1.0000 0.72500  0.53900  0.33500  Biso   1.000  H
  H9       1.0000 0.36000  0.47700  0.85900  Biso   1.000  H
  H10      1.0000 0.64000  0.52300  0.14100  Biso   1.000  H
  H11      1.0000 0.79200  0.39200  0.01000  Biso   1.000  H
  H12      1.0000 0.20800  0.60800  0.99000  Biso   1.000  H
  H13      1.0000 0.08100  0.28000  0.99400  Biso   1.000  H
  H14      1.0000 0.91900  0.72000  0.00600  Biso   1.000  H
  H15      1.0000 0.35500  0.09700  0.00500  Biso   1.000  H
  H16      1.0000 0.64500  0.90300  0.99500  Biso   1.000  H
  H17      1.0000 0.44700  0.92500  0.86400  Biso   1.000  H
  H18      1.0000 0.55300  0.07500  0.13600  Biso   1.000  H
  H19      1.0000 0.25400  0.94900  0.73800  Biso   1.000  H
  H20      1.0000 0.74600  0.05100  0.26200  Biso   1.000  H
