data_image0
_cell_length_a       8.5342
_cell_length_b       10.0928
_cell_length_c       10.5343
_cell_angle_alpha    94.049
_cell_angle_beta     103.126
_cell_angle_gamma    113.89

_symmetry_space_group_name_H-M    "P 1"
_symmetry_int_tables_number       1

loop_
  _symmetry_equiv_pos_as_xyz
  'x, y, z'

loop_
  _atom_site_label
  _atom_site_occupancy
  _atom_site_fract_x
  _atom_site_fract_y
  _atom_site_fract_z
  _atom_site_thermal_displace_type
  _atom_site_B_iso_or_equiv
  _atom_site_type_symbol
  Cu1      1.0000 0.84578  0.79031  0.34837  Biso   1.000  Cu
  Cu2      1.0000 0.15422  0.20969  0.65163  Biso   1.000  Cu
  S1       1.0000 0.89062  0.88870  0.67310  Biso   1.000  S
  S2       1.0000 0.10938  0.11130  0.32690  Biso   1.000  S
  O1       1.0000 0.77738  0.81726  0.53588  Biso   1.000  O
  O2       1.0000 0.22262  0.18274  0.46412  Biso   1.000  O
  O3       1.0000 0.92222  0.77964  0.74707  Biso   1.000  O
  O4       1.0000 0.07778  0.22036  0.25293  Biso   1.000  O
  O5       1.0000 0.93017  0.99801  0.33474  Biso   1.000  O
  O6       1.0000 0.06983  0.00199  0.66526  Biso   1.000  O
  O7       1.0000 0.80867  0.96413  0.74050  Biso   1.000  O
  O8       1.0000 0.19133  0.03587  0.25950  Biso   1.000  O
  O9       1.0000 0.93528  0.80322  0.03129  Biso   1.000  O
  O10      1.0000 0.06472  0.19678  0.96871  Biso   1.000  O
  N1       1.0000 0.58611  0.74326  0.25397  Biso   1.000  N
  N2       1.0000 0.41389  0.25674  0.74603  Biso   1.000  N
  N3       1.0000 0.74890  0.58010  0.27768  Biso   1.000  N
  N4       1.0000 0.25110  0.41990  0.72232  Biso   1.000  N
  N5       1.0000 0.06853  0.75314  0.41103  Biso   1.000  N
  N6       1.0000 0.93147  0.24686  0.58897  Biso   1.000  N
  C1       1.0000 0.51219  0.83739  0.25360  Biso   1.000  C
  C2       1.0000 0.48781  0.16261  0.74640  Biso   1.000  C
  C3       1.0000 0.33169  0.79497  0.19463  Biso   1.000  C
  C4       1.0000 0.66831  0.20503  0.80537  Biso   1.000  C
  C5       1.0000 0.22565  0.64999  0.13130  Biso   1.000  C
  C6       1.0000 0.77435  0.35001  0.86870  Biso   1.000  C
  C7       1.0000 0.30062  0.55033  0.13106  Biso   1.000  C
  C8       1.0000 0.69938  0.44967  0.86894  Biso   1.000  C
  C9       1.0000 0.48106  0.60074  0.19495  Biso   1.000  C
  C10      1.0000 0.51894  0.39926  0.80505  Biso   1.000  C
  C11      1.0000 0.57804  0.50737  0.20416  Biso   1.000  C
  C12      1.0000 0.42196  0.49263  0.79584  Biso   1.000  C
  C13      1.0000 0.50889  0.36164  0.14215  Biso   1.000  C
  C14      1.0000 0.49111  0.63836  0.85785  Biso   1.000  C
  C15      1.0000 0.62156  0.29044  0.15295  Biso   1.000  C
  C16      1.0000 0.37844  0.70956  0.84705  Biso   1.000  C
  C17      1.0000 0.79992  0.36945  0.23023  Biso   1.000  C
  C18      1.0000 0.20008  0.63055  0.76977  Biso   1.000  C
  C19      1.0000 0.85816  0.51385  0.29163  Biso   1.000  C
  C20      1.0000 0.14184  0.48615  0.70837  Biso   1.000  C
  C21      1.0000 0.04101  0.61185  0.37517  Biso   1.000  C
  C22      1.0000 0.95899  0.38815  0.62483  Biso   1.000  C
  C23      1.0000 0.17475  0.56506  0.41376  Biso   1.000  C
  C24      1.0000 0.82525  0.43494  0.58624  Biso   1.000  C
  C25      1.0000 0.34222  0.66751  0.49165  Biso   1.000  C
  C26      1.0000 0.65778  0.33249  0.50835  Biso   1.000  C
  C27      1.0000 0.37044  0.81222  0.52836  Biso   1.000  C
  C28      1.0000 0.62956  0.18778  0.47164  Biso   1.000  C
  C29      1.0000 0.23069  0.85107  0.48569  Biso   1.000  C
  C30      1.0000 0.76931  0.14893  0.51431  Biso   1.000  C
  C31      1.0000 0.55677  0.13951  0.07846  Biso   1.000  C
  C32      1.0000 0.44323  0.86049  0.92154  Biso   1.000  C
  C33      1.0000 0.38015  0.06090  0.99961  Biso   1.000  C
  C34      1.0000 0.61985  0.93910  0.00039  Biso   1.000  C
  C35      1.0000 0.67478  0.07559  0.07767  Biso   1.000  C
  C36      1.0000 0.32522  0.92441  0.92233  Biso   1.000  C
  H1       1.0000 0.58800  0.93100  0.29300  Biso   1.000  H
  H2       1.0000 0.41200  0.06900  0.70700  Biso   1.000  H
  H3       1.0000 0.28700  0.86700  0.19900  Biso   1.000  H
  H4       1.0000 0.71300  0.13300  0.80100  Biso   1.000  H
  H5       1.0000 0.10700  0.62000  0.09000  Biso   1.000  H
  H6       1.0000 0.89300  0.38000  0.91000  Biso   1.000  H
  H7       1.0000 0.22800  0.45000  0.09100  Biso   1.000  H
  H8       1.0000 0.77200  0.55000  0.90900  Biso   1.000  H
  H9       1.0000 0.39200  0.31600  0.09400  Biso   1.000  H
  H10      1.0000 0.60800  0.68400  0.90600  Biso   1.000  H
  H11      1.0000 0.88500  0.32900  0.23800  Biso   1.000  H
  H12      1.0000 0.11500  0.67100  0.76200  Biso   1.000  H
  H13      1.0000 0.15700  0.46800  0.38800  Biso   1.000  H
  H14      1.0000 0.84300  0.53200  0.61200  Biso   1.000  H
  H15      1.0000 0.43800  0.64000  0.51960  Biso   1.000  H
  H16      1.0000 0.56200  0.36000  0.48040  Biso   1.000  H
  H17      1.0000 0.48300  0.88100  0.58200  Biso   1.000  H
  H18      1.0000 0.51700  0.11900  0.41800  Biso   1.000  H
  H19      1.0000 0.24100  0.94600  0.50540  Biso   1.000  H
  H20      1.0000 0.75900  0.05400  0.49460  Biso   1.000  H
  H21      1.0000 0.29800  0.09900  0.99800  Biso   1.000  H
  H22      1.0000 0.70200  0.90100  0.00200  Biso   1.000  H
  H23      1.0000 0.79300  0.12500  0.12800  Biso   1.000  H
  H24      1.0000 0.20700  0.87500  0.87200  Biso   1.000  H
  H25      1.0000 0.94600  0.81800  0.95500  Biso   1.000  H
  H26      1.0000 0.05400  0.18200  0.04500  Biso   1.000  H
  H27      1.0000 0.01500  0.87500  0.08400  Biso   1.000  H
  H28      1.0000 0.98500  0.12500  0.91600  Biso   1.000  H
