data_image0
_cell_length_a       10.215
_cell_length_b       10.4799
_cell_length_c       12.6602
_cell_angle_alpha    71.072
_cell_angle_beta     68.047
_cell_angle_gamma    69.032

_symmetry_space_group_name_H-M    "P 1"
_symmetry_int_tables_number       1

loop_
  _symmetry_equiv_pos_as_xyz
  'x, y, z'

loop_
  _atom_site_label
  _atom_site_occupancy
  _atom_site_fract_x
  _atom_site_fract_y
  _atom_site_fract_z
  _atom_site_thermal_displace_type
  _atom_site_B_iso_or_equiv
  _atom_site_type_symbol
  Cu1      1.0000 0.94048  0.50165  0.38150  Biso   1.000  Cu
  Cu2      1.0000 0.05952  0.49835  0.61850  Biso   1.000  Cu
  S1       1.0000 0.80554  0.96124  0.14604  Biso   1.000  S
  S2       1.0000 0.19446  0.03876  0.85396  Biso   1.000  S
  S3       1.0000 0.11506  0.89750  0.13438  Biso   1.000  S
  S4       1.0000 0.88494  0.10250  0.86562  Biso   1.000  S
  O1       1.0000 0.76520  0.65470  0.41366  Biso   1.000  O
  O2       1.0000 0.23480  0.34530  0.58634  Biso   1.000  O
  O3       1.0000 0.62010  0.86940  0.37560  Biso   1.000  O
  O4       1.0000 0.37990  0.13060  0.62440  Biso   1.000  O
  O5       1.0000 0.06260  0.59650  0.39988  Biso   1.000  O
  O6       1.0000 0.93740  0.40350  0.60012  Biso   1.000  O
  O7       1.0000 0.16710  0.76610  0.36010  Biso   1.000  O
  O8       1.0000 0.83290  0.23390  0.63990  Biso   1.000  O
  O9       1.0000 0.96370  0.56800  0.18020  Biso   1.000  O
  O10      1.0000 0.03630  0.43200  0.81980  Biso   1.000  O
  O11      1.0000 0.59230  0.47260  0.85760  Biso   1.000  O
  O12      1.0000 0.40770  0.52740  0.14240  Biso   1.000  O
  N1       1.0000 0.10700  0.33000  0.35780  Biso   1.000  N
  N2       1.0000 0.89300  0.67000  0.64220  Biso   1.000  N
  N3       1.0000 0.82910  0.37170  0.39130  Biso   1.000  N
  N4       1.0000 0.17090  0.62830  0.60870  Biso   1.000  N
  N5       1.0000 0.08670  0.63990  0.99130  Biso   1.000  N
  N6       1.0000 0.91330  0.36010  0.00870  Biso   1.000  N
  N7       1.0000 0.49990  0.29550  0.88150  Biso   1.000  N
  N8       1.0000 0.50010  0.70450  0.11850  Biso   1.000  N
  C1       1.0000 0.86370  0.83510  0.26250  Biso   1.000  C
  C2       1.0000 0.13630  0.16490  0.73750  Biso   1.000  C
  C3       1.0000 0.00350  0.80720  0.25730  Biso   1.000  C
  C4       1.0000 0.99650  0.19280  0.74270  Biso   1.000  C
  C5       1.0000 0.98420  0.97040  0.05650  Biso   1.000  C
  C6       1.0000 0.01580  0.02960  0.94350  Biso   1.000  C
  C7       1.0000 0.73950  0.78280  0.35880  Biso   1.000  C
  C8       1.0000 0.26050  0.21720  0.64120  Biso   1.000  C
  C9       1.0000 0.08340  0.71700  0.34660  Biso   1.000  C
  C10      1.0000 0.91660  0.28300  0.65340  Biso   1.000  C
  C11      1.0000 0.24700  0.31790  0.34250  Biso   1.000  C
  C12      1.0000 0.75300  0.68210  0.65750  Biso   1.000  C
  H1       1.0000 0.27280  0.39560  0.34220  Biso   1.000  H
  H2       1.0000 0.72720  0.60440  0.65780  Biso   1.000  H
  C13      1.0000 0.35610  0.19410  0.32680  Biso   1.000  C
  C14      1.0000 0.64390  0.80590  0.67320  Biso   1.000  C
  H3       1.0000 0.45400  0.18830  0.31610  Biso   1.000  H
  H4       1.0000 0.54600  0.81170  0.68390  Biso   1.000  H
  C15      1.0000 0.31900  0.08170  0.32730  Biso   1.000  C
  C16      1.0000 0.68100  0.91830  0.67270  Biso   1.000  C
  H5       1.0000 0.39120  0.99680  0.31780  Biso   1.000  H
  H6       1.0000 0.60880  0.00320  0.68220  Biso   1.000  H
  C17      1.0000 0.17460  0.09260  0.34170  Biso   1.000  C
  C18      1.0000 0.82540  0.90740  0.65830  Biso   1.000  C
  H7       1.0000 0.14800  0.01600  0.34080  Biso   1.000  H
  H8       1.0000 0.85200  0.98400  0.65920  Biso   1.000  H
  C19      1.0000 0.07030  0.21780  0.35730  Biso   1.000  C
  C20      1.0000 0.92970  0.78220  0.64270  Biso   1.000  C
  C21      1.0000 0.68390  0.40170  0.41470  Biso   1.000  C
  C22      1.0000 0.31610  0.59830  0.58530  Biso   1.000  C
  H9       1.0000 0.62690  0.49270  0.42350  Biso   1.000  H
  H10      1.0000 0.37310  0.50730  0.57650  Biso   1.000  H
  C23      1.0000 0.61420  0.30410  0.42650  Biso   1.000  C
  C24      1.0000 0.38580  0.69590  0.57350  Biso   1.000  C
  H11      1.0000 0.51170  0.32780  0.44400  Biso   1.000  H
  H12      1.0000 0.48830  0.67220  0.55600  Biso   1.000  H
  C25      1.0000 0.69920  0.17000  0.41170  Biso   1.000  C
  C26      1.0000 0.30080  0.83000  0.58830  Biso   1.000  C
  H13      1.0000 0.65510  0.10160  0.41890  Biso   1.000  H
  H14      1.0000 0.34490  0.89840  0.58110  Biso   1.000  H
  C27      1.0000 0.84980  0.13930  0.38630  Biso   1.000  C
  C28      1.0000 0.15020  0.86070  0.61370  Biso   1.000  C
  H15      1.0000 0.90940  0.04990  0.37490  Biso   1.000  H
  H16      1.0000 0.09060  0.95010  0.62510  Biso   1.000  H
  C29      1.0000 0.91180  0.24100  0.37790  Biso   1.000  C
  C30      1.0000 0.08820  0.75900  0.62210  Biso   1.000  C
  C31      1.0000 0.07770  0.58130  0.10210  Biso   1.000  C
  C32      1.0000 0.92230  0.41870  0.89790  Biso   1.000  C
  H17      1.0000 0.16520  0.54690  0.12320  Biso   1.000  H
  H18      1.0000 0.83480  0.45310  0.87680  Biso   1.000  H
  C33      1.0000 0.95840  0.69930  0.95130  Biso   1.000  C
  C34      1.0000 0.04160  0.30070  0.04870  Biso   1.000  C
  H19      1.0000 0.87200  0.69050  0.01720  Biso   1.000  H
  H20      1.0000 0.12800  0.30950  0.98280  Biso   1.000  H
  H21      1.0000 0.96630  0.64980  0.89540  Biso   1.000  H
  H22      1.0000 0.03370  0.35020  0.10460  Biso   1.000  H
  H23      1.0000 0.95040  0.79750  0.91430  Biso   1.000  H
  H24      1.0000 0.04960  0.20250  0.08570  Biso   1.000  H
  C35      1.0000 0.22720  0.64410  0.90430  Biso   1.000  C
  C36      1.0000 0.77280  0.35590  0.09570  Biso   1.000  C
  H25      1.0000 0.30450  0.60150  0.94180  Biso   1.000  H
  H26      1.0000 0.69550  0.39850  0.05820  Biso   1.000  H
  H27      1.0000 0.22710  0.74070  0.86600  Biso   1.000  H
  H28      1.0000 0.77290  0.25930  0.13400  Biso   1.000  H
  H29      1.0000 0.24370  0.59300  0.84680  Biso   1.000  H
  H30      1.0000 0.75630  0.40700  0.15320  Biso   1.000  H
  C37      1.0000 0.56290  0.40230  0.81810  Biso   1.000  C
  C38      1.0000 0.43710  0.59770  0.18190  Biso   1.000  C
  H31      1.0000 0.58470  0.42140  0.73640  Biso   1.000  H
  H32      1.0000 0.41530  0.57860  0.26360  Biso   1.000  H
  C39      1.0000 0.46600  0.26380  0.00630  Biso   1.000  C
  C40      1.0000 0.53400  0.73620  0.99370  Biso   1.000  C
  H33      1.0000 0.48860  0.33110  0.02960  Biso   1.000  H
  H34      1.0000 0.51140  0.66890  0.97040  Biso   1.000  H
  H35      1.0000 0.52380  0.17020  0.03250  Biso   1.000  H
  H36      1.0000 0.47620  0.82980  0.96750  Biso   1.000  H
  H37      1.0000 0.36260  0.26850  0.04120  Biso   1.000  H
  H38      1.0000 0.63740  0.73150  0.95880  Biso   1.000  H
  C41      1.0000 0.47700  0.21700  0.82250  Biso   1.000  C
  C42      1.0000 0.52300  0.78300  0.17750  Biso   1.000  C
  H39      1.0000 0.50600  0.25600  0.73920  Biso   1.000  H
  H40      1.0000 0.49400  0.74400  0.26080  Biso   1.000  H
  H41      1.0000 0.37400  0.21970  0.84860  Biso   1.000  H
  H42      1.0000 0.62600  0.78030  0.15140  Biso   1.000  H
  H43      1.0000 0.53510  0.12070  0.83880  Biso   1.000  H
  H44      1.0000 0.46490  0.87930  0.16120  Biso   1.000  H
