data_image0
_cell_length_a       14.7117
_cell_length_b       9.0337
_cell_length_c       13.859
_cell_angle_alpha    90
_cell_angle_beta     90
_cell_angle_gamma    90

_symmetry_space_group_name_H-M    "P 1"
_symmetry_int_tables_number       1

loop_
  _symmetry_equiv_pos_as_xyz
  'x, y, z'

loop_
  _atom_site_label
  _atom_site_occupancy
  _atom_site_fract_x
  _atom_site_fract_y
  _atom_site_fract_z
  _atom_site_thermal_displace_type
  _atom_site_B_iso_or_equiv
  _atom_site_type_symbol
  Cu1      1.0000 0.00000  0.00000  0.24856  Biso   1.000  Cu
  Cu2      1.0000 0.50000  0.50000  0.25144  Biso   1.000  Cu
  Cu3      1.0000 0.00000  0.00000  0.75144  Biso   1.000  Cu
  Cu4      1.0000 0.50000  0.50000  0.74856  Biso   1.000  Cu
  O1       1.0000 0.96860  0.25480  0.25051  Biso   1.000  O
  O2       1.0000 0.03140  0.74520  0.25051  Biso   1.000  O
  O3       1.0000 0.53140  0.75480  0.24949  Biso   1.000  O
  O4       1.0000 0.46860  0.24520  0.24949  Biso   1.000  O
  O5       1.0000 0.03140  0.74520  0.74949  Biso   1.000  O
  O6       1.0000 0.96860  0.25480  0.74949  Biso   1.000  O
  O7       1.0000 0.46860  0.24520  0.75051  Biso   1.000  O
  O8       1.0000 0.53140  0.75480  0.75051  Biso   1.000  O
  O9       1.0000 0.12826  0.05430  0.25236  Biso   1.000  O
  O10      1.0000 0.87174  0.94570  0.25236  Biso   1.000  O
  O11      1.0000 0.37174  0.55430  0.24764  Biso   1.000  O
  O12      1.0000 0.62826  0.44570  0.24764  Biso   1.000  O
  O13      1.0000 0.87174  0.94570  0.74764  Biso   1.000  O
  O14      1.0000 0.12826  0.05430  0.74764  Biso   1.000  O
  O15      1.0000 0.62826  0.44570  0.75236  Biso   1.000  O
  O16      1.0000 0.37174  0.55430  0.75236  Biso   1.000  O
  N1       1.0000 0.00000  0.00000  0.10050  Biso   1.000  N
  N2       1.0000 0.50000  0.50000  0.39950  Biso   1.000  N
  N3       1.0000 0.00000  0.00000  0.89950  Biso   1.000  N
  N4       1.0000 0.50000  0.50000  0.60050  Biso   1.000  N
  N5       1.0000 0.00000  0.00000  0.39970  Biso   1.000  N
  N6       1.0000 0.50000  0.50000  0.10030  Biso   1.000  N
  N7       1.0000 0.00000  0.00000  0.60030  Biso   1.000  N
  N8       1.0000 0.50000  0.50000  0.89970  Biso   1.000  N
  H1       1.0000 0.99890  0.30790  0.28960  Biso   1.000  H
  H2       1.0000 0.00110  0.69210  0.28960  Biso   1.000  H
  H3       1.0000 0.50110  0.80790  0.21040  Biso   1.000  H
  H4       1.0000 0.49890  0.19210  0.21040  Biso   1.000  H
  H5       1.0000 0.00110  0.69210  0.71040  Biso   1.000  H
  H6       1.0000 0.99890  0.30790  0.71040  Biso   1.000  H
  H7       1.0000 0.49890  0.19210  0.78960  Biso   1.000  H
  H8       1.0000 0.50110  0.80790  0.78960  Biso   1.000  H
  H9       1.0000 0.91670  0.29430  0.25840  Biso   1.000  H
  H10      1.0000 0.08330  0.70570  0.25840  Biso   1.000  H
  H11      1.0000 0.58330  0.79430  0.24160  Biso   1.000  H
  H12      1.0000 0.41670  0.20570  0.24160  Biso   1.000  H
  H13      1.0000 0.08330  0.70570  0.74160  Biso   1.000  H
  H14      1.0000 0.91670  0.29430  0.74160  Biso   1.000  H
  H15      1.0000 0.41670  0.20570  0.75840  Biso   1.000  H
  H16      1.0000 0.58330  0.79430  0.75840  Biso   1.000  H
  P1       1.0000 0.21768  0.06205  0.20058  Biso   1.000  P
  P2       1.0000 0.78232  0.93795  0.20058  Biso   1.000  P
  P3       1.0000 0.28232  0.56205  0.29942  Biso   1.000  P
  P4       1.0000 0.71768  0.43795  0.29942  Biso   1.000  P
  P5       1.0000 0.78232  0.93795  0.79942  Biso   1.000  P
  P6       1.0000 0.21768  0.06205  0.79942  Biso   1.000  P
  P7       1.0000 0.71768  0.43795  0.70058  Biso   1.000  P
  P8       1.0000 0.28232  0.56205  0.70058  Biso   1.000  P
  C1       1.0000 0.98440  0.12350  0.04980  Biso   1.000  C
  C2       1.0000 0.01560  0.87650  0.04980  Biso   1.000  C
  C3       1.0000 0.51560  0.62350  0.45020  Biso   1.000  C
  C4       1.0000 0.48440  0.37650  0.45020  Biso   1.000  C
  C5       1.0000 0.01560  0.87650  0.95020  Biso   1.000  C
  C6       1.0000 0.98440  0.12350  0.95020  Biso   1.000  C
  C7       1.0000 0.48440  0.37650  0.54980  Biso   1.000  C
  C8       1.0000 0.51560  0.62350  0.54980  Biso   1.000  C
  C9       1.0000 0.92590  0.03420  0.44980  Biso   1.000  C
  C10      1.0000 0.07410  0.96580  0.44980  Biso   1.000  C
  C11      1.0000 0.57410  0.53420  0.05020  Biso   1.000  C
  C12      1.0000 0.42590  0.46580  0.05020  Biso   1.000  C
  C13      1.0000 0.07410  0.96580  0.55020  Biso   1.000  C
  C14      1.0000 0.92590  0.03420  0.55020  Biso   1.000  C
  C15      1.0000 0.42590  0.46580  0.94980  Biso   1.000  C
  C16      1.0000 0.57410  0.53420  0.94980  Biso   1.000  C
  O17      1.0000 0.26473  0.91720  0.18065  Biso   1.000  O
  O18      1.0000 0.73527  0.08280  0.18065  Biso   1.000  O
  O19      1.0000 0.23527  0.41720  0.31935  Biso   1.000  O
  O20      1.0000 0.76473  0.58280  0.31935  Biso   1.000  O
  O21      1.0000 0.73527  0.08280  0.81935  Biso   1.000  O
  O22      1.0000 0.26473  0.91720  0.81935  Biso   1.000  O
  O23      1.0000 0.76473  0.58280  0.68065  Biso   1.000  O
  O24      1.0000 0.23527  0.41720  0.68065  Biso   1.000  O
  O25      1.0000 0.28465  0.16000  0.26223  Biso   1.000  O
  O26      1.0000 0.71535  0.84000  0.26223  Biso   1.000  O
  O27      1.0000 0.21535  0.66000  0.23777  Biso   1.000  O
  O28      1.0000 0.78465  0.34000  0.23777  Biso   1.000  O
  O29      1.0000 0.71535  0.84000  0.73777  Biso   1.000  O
  O30      1.0000 0.28465  0.16000  0.73777  Biso   1.000  O
  O31      1.0000 0.78465  0.34000  0.76223  Biso   1.000  O
  O32      1.0000 0.21535  0.66000  0.76223  Biso   1.000  O
  C17      1.0000 0.20490  0.15930  0.08730  Biso   1.000  C
  C18      1.0000 0.79510  0.84070  0.08730  Biso   1.000  C
  C19      1.0000 0.29510  0.65930  0.41270  Biso   1.000  C
  C20      1.0000 0.70490  0.34070  0.41270  Biso   1.000  C
  C21      1.0000 0.79510  0.84070  0.91270  Biso   1.000  C
  C22      1.0000 0.20490  0.15930  0.91270  Biso   1.000  C
  C23      1.0000 0.70490  0.34070  0.58730  Biso   1.000  C
  C24      1.0000 0.29510  0.65930  0.58730  Biso   1.000  C
  H17      1.0000 0.97320  0.21150  0.08240  Biso   1.000  H
  H18      1.0000 0.02680  0.78850  0.08240  Biso   1.000  H
  H19      1.0000 0.52680  0.71150  0.41760  Biso   1.000  H
  H20      1.0000 0.47320  0.28850  0.41760  Biso   1.000  H
  H21      1.0000 0.02680  0.78850  0.91760  Biso   1.000  H
  H22      1.0000 0.97320  0.21150  0.91760  Biso   1.000  H
  H23      1.0000 0.47320  0.28850  0.58240  Biso   1.000  H
  H24      1.0000 0.52680  0.71150  0.58240  Biso   1.000  H
  H25      1.0000 0.87280  0.05870  0.41700  Biso   1.000  H
  H26      1.0000 0.12720  0.94130  0.41700  Biso   1.000  H
  H27      1.0000 0.62720  0.55870  0.08300  Biso   1.000  H
  H28      1.0000 0.37280  0.44130  0.08300  Biso   1.000  H
  H29      1.0000 0.12720  0.94130  0.58300  Biso   1.000  H
  H30      1.0000 0.87280  0.05870  0.58300  Biso   1.000  H
  H31      1.0000 0.37280  0.44130  0.91700  Biso   1.000  H
  H32      1.0000 0.62720  0.55870  0.91700  Biso   1.000  H
  H33      1.0000 0.26020  0.23910  0.27520  Biso   1.000  H
  H34      1.0000 0.73980  0.76090  0.27520  Biso   1.000  H
  H35      1.0000 0.23980  0.73910  0.22480  Biso   1.000  H
  H36      1.0000 0.76020  0.26090  0.22480  Biso   1.000  H
  H37      1.0000 0.73980  0.76090  0.72480  Biso   1.000  H
  H38      1.0000 0.26020  0.23910  0.72480  Biso   1.000  H
  H39      1.0000 0.76020  0.26090  0.77520  Biso   1.000  H
  H40      1.0000 0.23980  0.73910  0.77520  Biso   1.000  H
  C25      1.0000 0.21820  0.08590  0.00000  Biso   1.000  C
  C26      1.0000 0.78180  0.91410  0.00000  Biso   1.000  C
  C27      1.0000 0.28180  0.58590  0.50000  Biso   1.000  C
  C28      1.0000 0.71820  0.41410  0.50000  Biso   1.000  C
  C29      1.0000 0.17960  0.30790  0.08640  Biso   1.000  C
  C30      1.0000 0.82040  0.69210  0.08640  Biso   1.000  C
  C31      1.0000 0.32040  0.80790  0.41360  Biso   1.000  C
  C32      1.0000 0.67960  0.19210  0.41360  Biso   1.000  C
  C33      1.0000 0.82040  0.69210  0.91360  Biso   1.000  C
  C34      1.0000 0.17960  0.30790  0.91360  Biso   1.000  C
  C35      1.0000 0.67960  0.19210  0.58640  Biso   1.000  C
  C36      1.0000 0.32040  0.80790  0.58640  Biso   1.000  C
  H41      1.0000 0.23610  0.98720  0.00000  Biso   1.000  H
  H42      1.0000 0.76390  0.01280  0.00000  Biso   1.000  H
  H43      1.0000 0.26390  0.48720  0.50000  Biso   1.000  H
  H44      1.0000 0.73610  0.51280  0.50000  Biso   1.000  H
  H45      1.0000 0.17060  0.35730  0.14450  Biso   1.000  H
  H46      1.0000 0.82940  0.64270  0.14450  Biso   1.000  H
  H47      1.0000 0.32940  0.85730  0.35550  Biso   1.000  H
  H48      1.0000 0.67060  0.14270  0.35550  Biso   1.000  H
  H49      1.0000 0.82940  0.64270  0.85550  Biso   1.000  H
  H50      1.0000 0.17060  0.35730  0.85550  Biso   1.000  H
  H51      1.0000 0.67060  0.14270  0.64450  Biso   1.000  H
  H52      1.0000 0.32940  0.85730  0.64450  Biso   1.000  H
  C37      1.0000 0.16760  0.38350  0.00000  Biso   1.000  C
  C38      1.0000 0.83240  0.61650  0.00000  Biso   1.000  C
  C39      1.0000 0.33240  0.88350  0.50000  Biso   1.000  C
  C40      1.0000 0.66760  0.11650  0.50000  Biso   1.000  C
  C41      1.0000 0.14060  0.54440  0.00000  Biso   1.000  C
  C42      1.0000 0.85940  0.45560  0.00000  Biso   1.000  C
  C43      1.0000 0.35940  0.04440  0.50000  Biso   1.000  C
  C44      1.0000 0.64060  0.95560  0.50000  Biso   1.000  C
  O33      1.0000 0.43530  0.88590  0.10090  Biso   1.000  O
  O34      1.0000 0.56470  0.11410  0.10090  Biso   1.000  O
  O35      1.0000 0.06470  0.38590  0.39910  Biso   1.000  O
  O36      1.0000 0.93530  0.61410  0.39910  Biso   1.000  O
  O37      1.0000 0.56470  0.11410  0.89910  Biso   1.000  O
  O38      1.0000 0.43530  0.88590  0.89910  Biso   1.000  O
  O39      1.0000 0.93530  0.61410  0.60090  Biso   1.000  O
  O40      1.0000 0.06470  0.38590  0.60090  Biso   1.000  O
  H53      1.0000 0.39890  0.81930  0.08120  Biso   1.000  H
  H54      1.0000 0.60110  0.18070  0.08120  Biso   1.000  H
  H55      1.0000 0.10110  0.31930  0.41880  Biso   1.000  H
  H56      1.0000 0.89890  0.68070  0.41880  Biso   1.000  H
  H57      1.0000 0.60110  0.18070  0.91880  Biso   1.000  H
  H58      1.0000 0.39890  0.81930  0.91880  Biso   1.000  H
  H59      1.0000 0.89890  0.68070  0.58120  Biso   1.000  H
  H60      1.0000 0.10110  0.31930  0.58120  Biso   1.000  H
  H61      1.0000 0.41980  0.97400  0.08700  Biso   1.000  H
  H62      1.0000 0.58020  0.02600  0.08700  Biso   1.000  H
  H63      1.0000 0.08020  0.47400  0.41300  Biso   1.000  H
  H64      1.0000 0.91980  0.52600  0.41300  Biso   1.000  H
  H65      1.0000 0.58020  0.02600  0.91300  Biso   1.000  H
  H66      1.0000 0.41980  0.97400  0.91300  Biso   1.000  H
  H67      1.0000 0.91980  0.52600  0.58700  Biso   1.000  H
  H68      1.0000 0.08020  0.47400  0.58700  Biso   1.000  H
  H69      1.0000 0.08340  0.55560  0.03240  Biso   1.000  H
  H70      1.0000 0.91660  0.44440  0.03240  Biso   1.000  H
  H71      1.0000 0.41660  0.05560  0.46760  Biso   1.000  H
  H72      1.0000 0.58340  0.94440  0.46760  Biso   1.000  H
  H73      1.0000 0.91660  0.44440  0.96760  Biso   1.000  H
  H74      1.0000 0.08340  0.55560  0.96760  Biso   1.000  H
  H75      1.0000 0.58340  0.94440  0.53240  Biso   1.000  H
  H76      1.0000 0.41660  0.05560  0.53240  Biso   1.000  H
  H77      1.0000 0.18620  0.60130  0.03290  Biso   1.000  H
  H78      1.0000 0.81380  0.39870  0.03290  Biso   1.000  H
  H79      1.0000 0.31380  0.10130  0.46710  Biso   1.000  H
  H80      1.0000 0.68620  0.89870  0.46710  Biso   1.000  H
  H81      1.0000 0.81380  0.39870  0.96710  Biso   1.000  H
  H82      1.0000 0.18620  0.60130  0.96710  Biso   1.000  H
  H83      1.0000 0.68620  0.89870  0.53290  Biso   1.000  H
  H84      1.0000 0.31380  0.10130  0.53290  Biso   1.000  H
  H85      1.0000 0.13520  0.57860  0.93470  Biso   1.000  H
  H86      1.0000 0.86480  0.42140  0.93470  Biso   1.000  H
  H87      1.0000 0.36480  0.07860  0.56530  Biso   1.000  H
  H88      1.0000 0.63520  0.92140  0.56530  Biso   1.000  H
  H89      1.0000 0.86480  0.42140  0.06530  Biso   1.000  H
  H90      1.0000 0.13520  0.57860  0.06530  Biso   1.000  H
  H91      1.0000 0.63520  0.92140  0.43470  Biso   1.000  H
  H92      1.0000 0.36480  0.07860  0.43470  Biso   1.000  H
