data_image0
_cell_length_a       8.539
_cell_length_b       8.948
_cell_length_c       12.706
_cell_angle_alpha    95.02
_cell_angle_beta     107.86
_cell_angle_gamma    103.549

_symmetry_space_group_name_H-M    "P 1"
_symmetry_int_tables_number       1

loop_
  _symmetry_equiv_pos_as_xyz
  'x, y, z'

loop_
  _atom_site_label
  _atom_site_occupancy
  _atom_site_fract_x
  _atom_site_fract_y
  _atom_site_fract_z
  _atom_site_thermal_displace_type
  _atom_site_B_iso_or_equiv
  _atom_site_type_symbol
  Cu1      1.0000 0.67613  0.67465  0.90288  Biso   1.000  Cu
  Cu2      1.0000 0.32387  0.32535  0.09712  Biso   1.000  Cu
  O1       1.0000 0.65360  0.62430  0.62081  Biso   1.000  O
  O2       1.0000 0.34640  0.37570  0.37919  Biso   1.000  O
  O3       1.0000 0.49680  0.33670  0.57547  Biso   1.000  O
  O4       1.0000 0.50320  0.66330  0.42453  Biso   1.000  O
  H1       1.0000 0.46220  0.36670  0.51570  Biso   1.000  H
  H2       1.0000 0.53780  0.63330  0.48430  Biso   1.000  H
  O5       1.0000 0.65500  0.46720  0.77759  Biso   1.000  O
  O6       1.0000 0.34500  0.53280  0.22241  Biso   1.000  O
  O7       1.0000 0.43160  0.60200  0.87714  Biso   1.000  O
  O8       1.0000 0.56840  0.39800  0.12286  Biso   1.000  O
  O9       1.0000 0.41330  0.31450  0.84260  Biso   1.000  O
  O10      1.0000 0.58670  0.68550  0.15740  Biso   1.000  O
  H3       1.0000 0.49250  0.35480  0.82160  Biso   1.000  H
  H4       1.0000 0.50750  0.64520  0.17840  Biso   1.000  H
  O11      1.0000 0.25160  0.40770  0.95942  Biso   1.000  O
  O12      1.0000 0.74840  0.59230  0.04058  Biso   1.000  O
  N1       1.0000 0.64220  0.83860  0.80660  Biso   1.000  N
  N2       1.0000 0.35780  0.16140  0.19340  Biso   1.000  N
  N3       1.0000 0.92200  0.77800  0.92140  Biso   1.000  N
  N4       1.0000 0.07800  0.22200  0.07860  Biso   1.000  N
  P1       1.0000 0.64994  0.46475  0.65711  Biso   1.000  P
  P2       1.0000 0.35006  0.53525  0.34289  Biso   1.000  P
  P3       1.0000 0.31851  0.43909  0.86397  Biso   1.000  P
  P4       1.0000 0.68149  0.56091  0.13603  Biso   1.000  P
  C1       1.0000 0.49110  0.85950  0.74990  Biso   1.000  C
  C2       1.0000 0.50890  0.14050  0.25010  Biso   1.000  C
  H5       1.0000 0.39290  0.80190  0.76040  Biso   1.000  H
  H6       1.0000 0.60710  0.19810  0.23960  Biso   1.000  H
  C3       1.0000 0.47640  0.96400  0.67620  Biso   1.000  C
  C4       1.0000 0.52360  0.03600  0.32380  Biso   1.000  C
  H7       1.0000 0.37030  0.97920  0.63960  Biso   1.000  H
  H8       1.0000 0.62970  0.02080  0.36040  Biso   1.000  H
  C5       1.0000 0.61990  0.04530  0.65770  Biso   1.000  C
  C6       1.0000 0.38010  0.95470  0.34230  Biso   1.000  C
  H9       1.0000 0.61150  0.11310  0.60610  Biso   1.000  H
  H10      1.0000 0.38850  0.88690  0.39390  Biso   1.000  H
  C7       1.0000 0.77680  0.02600  0.71600  Biso   1.000  C
  C8       1.0000 0.22320  0.97400  0.28400  Biso   1.000  C
  H11      1.0000 0.87580  0.08170  0.70550  Biso   1.000  H
  H12      1.0000 0.12420  0.91830  0.29450  Biso   1.000  H
  C9       1.0000 0.78410  0.92160  0.79080  Biso   1.000  C
  C10      1.0000 0.21590  0.07840  0.20920  Biso   1.000  C
  C11      1.0000 0.94400  0.89030  0.85880  Biso   1.000  C
  C12      1.0000 0.05600  0.10970  0.14120  Biso   1.000  C
  C13      1.0000 0.10630  0.97060  0.86150  Biso   1.000  C
  C14      1.0000 0.89370  0.02940  0.13850  Biso   1.000  C
  H13      1.0000 0.12000  0.04960  0.81940  Biso   1.000  H
  H14      1.0000 0.88000  0.95040  0.18060  Biso   1.000  H
  C15      1.0000 0.24720  0.93070  0.92820  Biso   1.000  C
  C16      1.0000 0.75280  0.06930  0.07180  Biso   1.000  C
  H15      1.0000 0.35670  0.98240  0.93090  Biso   1.000  H
  H16      1.0000 0.64330  0.01760  0.06910  Biso   1.000  H
  C17      1.0000 0.22410  0.81390  0.99050  Biso   1.000  C
  C18      1.0000 0.77590  0.18610  0.00950  Biso   1.000  C
  H17      1.0000 0.31720  0.78440  0.03440  Biso   1.000  H
  H18      1.0000 0.68280  0.21560  0.96560  Biso   1.000  H
  C19      1.0000 0.05980  0.74140  0.98650  Biso   1.000  C
  C20      1.0000 0.94020  0.25860  0.01350  Biso   1.000  C
  H19      1.0000 0.04430  0.66500  0.03030  Biso   1.000  H
  H20      1.0000 0.95570  0.33500  0.96970  Biso   1.000  H
  C21      1.0000 0.98660  0.21960  0.43120  Biso   1.000  C
  C22      1.0000 0.01340  0.78040  0.56880  Biso   1.000  C
  H21      1.0000 0.87880  0.20800  0.37370  Biso   1.000  H
  H22      1.0000 0.12120  0.79200  0.62630  Biso   1.000  H
  H23      1.0000 0.00330  0.11850  0.44040  Biso   1.000  H
  H24      1.0000 0.99670  0.88150  0.55960  Biso   1.000  H
  H25      1.0000 0.07730  0.28000  0.41000  Biso   1.000  H
  H26      1.0000 0.92270  0.72000  0.59000  Biso   1.000  H
  C23      1.0000 0.98730  0.30160  0.54020  Biso   1.000  C
  C24      1.0000 0.01270  0.69840  0.45980  Biso   1.000  C
  C25      1.0000 0.13080  0.33280  0.63700  Biso   1.000  C
  C26      1.0000 0.86920  0.66720  0.36300  Biso   1.000  C
  H27      1.0000 0.22780  0.30590  0.63290  Biso   1.000  H
  H28      1.0000 0.77220  0.69410  0.36710  Biso   1.000  H
  C27      1.0000 0.13250  0.40320  0.73980  Biso   1.000  C
  C28      1.0000 0.86750  0.59680  0.26020  Biso   1.000  C
  C29      1.0000 0.98600  0.44330  0.74540  Biso   1.000  C
  C30      1.0000 0.01400  0.55670  0.25460  Biso   1.000  C
  H29      1.0000 0.98510  0.48870  0.81380  Biso   1.000  H
  H30      1.0000 0.01490  0.51130  0.18620  Biso   1.000  H
  C31      1.0000 0.84110  0.41620  0.64960  Biso   1.000  C
  C32      1.0000 0.15890  0.58380  0.35040  Biso   1.000  C
  C33      1.0000 0.84510  0.34680  0.54810  Biso   1.000  C
  C34      1.0000 0.15490  0.65320  0.45190  Biso   1.000  C
  H31      1.0000 0.75000  0.33010  0.48370  Biso   1.000  H
  H32      1.0000 0.25000  0.66990  0.51630  Biso   1.000  H
