data_image0
_cell_length_a       12.892
_cell_length_b       15.965
_cell_length_c       17.471
_cell_angle_alpha    72.9
_cell_angle_beta     81.44
_cell_angle_gamma    77.17

_symmetry_space_group_name_H-M    "P 1"
_symmetry_int_tables_number       1

loop_
  _symmetry_equiv_pos_as_xyz
  'x, y, z'

loop_
  _atom_site_label
  _atom_site_occupancy
  _atom_site_fract_x
  _atom_site_fract_y
  _atom_site_fract_z
  _atom_site_thermal_displace_type
  _atom_site_B_iso_or_equiv
  _atom_site_type_symbol
  Gd1      1.0000 0.33668  0.73663  0.20480  Biso   1.000  Gd
  Gd2      1.0000 0.66332  0.26337  0.79520  Biso   1.000  Gd
  Cu1      1.0000 0.67860  0.51812  0.05960  Biso   1.000  Cu
  Cu2      1.0000 0.32140  0.48188  0.94040  Biso   1.000  Cu
  Cu3      1.0000 0.26068  0.02294  0.35238  Biso   1.000  Cu
  Cu4      1.0000 0.73932  0.97706  0.64762  Biso   1.000  Cu
  Cu5      1.0000 0.08494  0.89542  0.93217  Biso   1.000  Cu
  Cu6      1.0000 0.91506  0.10458  0.06783  Biso   1.000  Cu
  Cr1      1.0000 0.93860  0.28913  0.25942  Biso   1.000  Cr
  Cr2      1.0000 0.06140  0.71087  0.74058  Biso   1.000  Cr
  Cu7      1.0000 0.29177  0.54615  0.53622  Biso   1.000  Cu
  Cu8      1.0000 0.70823  0.45385  0.46378  Biso   1.000  Cu
  O1       1.0000 0.52260  0.71910  0.14950  Biso   1.000  O
  O2       1.0000 0.47740  0.28090  0.85050  Biso   1.000  O
  O3       1.0000 0.26150  0.62310  0.29910  Biso   1.000  O
  O4       1.0000 0.73850  0.37690  0.70090  Biso   1.000  O
  O5       1.0000 0.42100  0.68920  0.32960  Biso   1.000  O
  O6       1.0000 0.57900  0.31080  0.67040  Biso   1.000  O
  O7       1.0000 0.39330  0.60220  0.16380  Biso   1.000  O
  O8       1.0000 0.60670  0.39780  0.83620  Biso   1.000  O
  O9       1.0000 0.33460  0.81510  0.06270  Biso   1.000  O
  O10      1.0000 0.66540  0.18490  0.93730  Biso   1.000  O
  O11      1.0000 0.16750  0.76300  0.15500  Biso   1.000  O
  O12      1.0000 0.83250  0.23700  0.84500  Biso   1.000  O
  O13      1.0000 0.21960  0.80870  0.29870  Biso   1.000  O
  O14      1.0000 0.78040  0.19130  0.70130  Biso   1.000  O
  O15      1.0000 0.37340  0.87840  0.19670  Biso   1.000  O
  O16      1.0000 0.62660  0.12160  0.80330  Biso   1.000  O
  N1       1.0000 0.22890  0.88040  0.95400  Biso   1.000  N
  N2       1.0000 0.77110  0.11960  0.04600  Biso   1.000  N
  C1       1.0000 0.55560  0.65310  0.11730  Biso   1.000  C
  C2       1.0000 0.44440  0.34690  0.88270  Biso   1.000  C
  C3       1.0000 0.85300  0.41040  0.19700  Biso   1.000  C
  C4       1.0000 0.14700  0.58960  0.80300  Biso   1.000  C
  N3       1.0000 0.64500  0.64020  0.07280  Biso   1.000  N
  N4       1.0000 0.35500  0.35980  0.92720  Biso   1.000  N
  N5       1.0000 0.79810  0.54070  0.97160  Biso   1.000  N
  N6       1.0000 0.20190  0.45930  0.02840  Biso   1.000  N
  H1       1.0000 0.76640  0.56700  0.92500  Biso   1.000  H
  H2       1.0000 0.23360  0.43300  0.07500  Biso   1.000  H
  N7       1.0000 0.12160  0.64130  0.58260  Biso   1.000  N
  N8       1.0000 0.87840  0.35870  0.41740  Biso   1.000  N
  N9       1.0000 0.04930  0.77330  0.90200  Biso   1.000  N
  N10      1.0000 0.95070  0.22670  0.09800  Biso   1.000  N
  N11      1.0000 0.33450  0.99750  0.25250  Biso   1.000  N
  N12      1.0000 0.66550  0.00250  0.74750  Biso   1.000  N
  N13      1.0000 0.53670  0.50980  0.11620  Biso   1.000  N
  N14      1.0000 0.46330  0.49020  0.88380  Biso   1.000  N
  C5       1.0000 0.24840  0.83830  0.02940  Biso   1.000  C
  C6       1.0000 0.75160  0.16170  0.97060  Biso   1.000  C
  C7       1.0000 0.09230  0.67030  0.63640  Biso   1.000  C
  C8       1.0000 0.90770  0.32970  0.36360  Biso   1.000  C
  N15      1.0000 0.24510  0.54710  0.43440  Biso   1.000  N
  N16      1.0000 0.75490  0.45290  0.56560  Biso   1.000  N
  C9       1.0000 0.15380  0.81200  0.08270  Biso   1.000  C
  C10      1.0000 0.84620  0.18800  0.91730  Biso   1.000  C
  N17      1.0000 0.22970  0.02850  0.46790  Biso   1.000  N
  N18      1.0000 0.77030  0.97150  0.53210  Biso   1.000  N
  H3       1.0000 0.29070  0.00000  0.49190  Biso   1.000  H
  H4       1.0000 0.70930  0.00000  0.50810  Biso   1.000  H
  N19      1.0000 0.06170  0.84150  0.04760  Biso   1.000  N
  N20      1.0000 0.93830  0.15850  0.95240  Biso   1.000  N
  N21      1.0000 0.29250  0.14550  0.32780  Biso   1.000  N
  N22      1.0000 0.70750  0.85450  0.67220  Biso   1.000  N
  H5       1.0000 0.23360  0.18380  0.30690  Biso   1.000  H
  H6       1.0000 0.76640  0.81620  0.69310  Biso   1.000  H
  N23      1.0000 0.22320  0.90850  0.37130  Biso   1.000  N
  N24      1.0000 0.77680  0.09150  0.62870  Biso   1.000  N
  N25      1.0000 0.10970  0.95400  0.81190  Biso   1.000  N
  N26      1.0000 0.89030  0.04600  0.18810  Biso   1.000  N
  H7       1.0000 0.10790  0.91050  0.78830  Biso   1.000  H
  H8       1.0000 0.89210  0.08950  0.21170  Biso   1.000  H
  N27      1.0000 0.71110  0.39250  0.04780  Biso   1.000  N
  N28      1.0000 0.28890  0.60750  0.95220  Biso   1.000  N
  H9       1.0000 0.75280  0.36070  0.08830  Biso   1.000  H
  H10      1.0000 0.24720  0.63930  0.91170  Biso   1.000  H
  N29      1.0000 0.80290  0.46980  0.15970  Biso   1.000  N
  N30      1.0000 0.19710  0.53020  0.84030  Biso   1.000  N
  C11      1.0000 0.04570  0.74700  0.84710  Biso   1.000  C
  C12      1.0000 0.95430  0.25300  0.15290  Biso   1.000  C
  C13      1.0000 0.37070  0.64220  0.39070  Biso   1.000  C
  C14      1.0000 0.62930  0.35780  0.60930  Biso   1.000  C
  N31      1.0000 0.37900  0.62460  0.46880  Biso   1.000  N
  N32      1.0000 0.62100  0.37540  0.53120  Biso   1.000  N
  C15      1.0000 0.28510  0.60160  0.36910  Biso   1.000  C
  C16      1.0000 0.71490  0.39840  0.63090  Biso   1.000  C
  C17      1.0000 0.48820  0.58480  0.13360  Biso   1.000  C
  C18      1.0000 0.51180  0.41520  0.86640  Biso   1.000  C
  C19      1.0000 0.25140  0.87200  0.31260  Biso   1.000  C
  C20      1.0000 0.74860  0.12800  0.68740  Biso   1.000  C
  N33      1.0000 0.72370  0.20720  0.30450  Biso   1.000  N
  N34      1.0000 0.27630  0.79280  0.69550  Biso   1.000  N
  C21      1.0000 0.02500  0.16230  0.30860  Biso   1.000  C
  C22      1.0000 0.97500  0.83770  0.69140  Biso   1.000  C
  C23      1.0000 0.96480  0.81370  0.08790  Biso   1.000  C
  C24      1.0000 0.03520  0.18630  0.91210  Biso   1.000  C
  H11      1.0000 0.96710  0.80010  0.14550  Biso   1.000  H
  H12      1.0000 0.03290  0.19990  0.85450  Biso   1.000  H
  H13      1.0000 0.95810  0.75990  0.07540  Biso   1.000  H
  H14      1.0000 0.04190  0.24010  0.92460  Biso   1.000  H
  C25      1.0000 0.79770  0.23610  0.28960  Biso   1.000  C
  C26      1.0000 0.20230  0.76390  0.71040  Biso   1.000  C
  C27      1.0000 0.15000  0.42030  0.57280  Biso   1.000  C
  C28      1.0000 0.85000  0.57970  0.42720  Biso   1.000  C
  H15      1.0000 0.09000  0.46550  0.58310  Biso   1.000  H
  H16      1.0000 0.91000  0.53450  0.41690  Biso   1.000  H
  H17      1.0000 0.13550  0.36320  0.60650  Biso   1.000  H
  H18      1.0000 0.86450  0.63680  0.39350  Biso   1.000  H
  C29      1.0000 0.32610  0.92100  0.24830  Biso   1.000  C
  C30      1.0000 0.67390  0.07900  0.75170  Biso   1.000  C
  C31      1.0000 0.08080  0.33170  0.23270  Biso   1.000  C
  C32      1.0000 0.91920  0.66830  0.76730  Biso   1.000  C
  C33      1.0000 0.40150  0.04820  0.19330  Biso   1.000  C
  C34      1.0000 0.59850  0.95180  0.80670  Biso   1.000  C
  H19      1.0000 0.39340  0.04250  0.14090  Biso   1.000  H
  H20      1.0000 0.60660  0.95750  0.85910  Biso   1.000  H
  H21      1.0000 0.47540  0.02450  0.20450  Biso   1.000  H
  H22      1.0000 0.52460  0.97550  0.79550  Biso   1.000  H
  C35      1.0000 0.32030  0.91010  0.89750  Biso   1.000  C
  C36      1.0000 0.67970  0.08990  0.10250  Biso   1.000  C
  H23      1.0000 0.38580  0.86870  0.91320  Biso   1.000  H
  H24      1.0000 0.61420  0.13130  0.08680  Biso   1.000  H
  H25      1.0000 0.32710  0.96840  0.90030  Biso   1.000  H
  H26      1.0000 0.67290  0.03160  0.09970  Biso   1.000  H
  C37      1.0000 0.84870  0.91540  0.97440  Biso   1.000  C
  C38      1.0000 0.15130  0.08460  0.02560  Biso   1.000  C
  H27      1.0000 0.84510  0.86330  0.95780  Biso   1.000  H
  H28      1.0000 0.15490  0.13670  0.04220  Biso   1.000  H
  H29      1.0000 0.78030  0.95570  0.96720  Biso   1.000  H
  H30      1.0000 0.21970  0.04430  0.03280  Biso   1.000  H
  N35      1.0000 0.93200  0.95980  0.92270  Biso   1.000  N
  N36      1.0000 0.06800  0.04020  0.07730  Biso   1.000  N
  H31      1.0000 0.92790  0.01070  0.93740  Biso   1.000  H
  H32      1.0000 0.07210  0.98930  0.06260  Biso   1.000  H
  C39      1.0000 0.78220  0.39120  0.97410  Biso   1.000  C
  C40      1.0000 0.21780  0.60880  0.02590  Biso   1.000  C
  H33      1.0000 0.74070  0.41060  0.92800  Biso   1.000  H
  H34      1.0000 0.25930  0.58940  0.07200  Biso   1.000  H
  H35      1.0000 0.82120  0.33100  0.97740  Biso   1.000  H
  H36      1.0000 0.17880  0.66900  0.02260  Biso   1.000  H
  C41      1.0000 0.91470  0.98900  0.83780  Biso   1.000  C
  C42      1.0000 0.08530  0.01100  0.16220  Biso   1.000  C
  H37      1.0000 0.85270  0.03680  0.82880  Biso   1.000  H
  H38      1.0000 0.14730  0.96320  0.17120  Biso   1.000  H
  H39      1.0000 0.90100  0.93980  0.82130  Biso   1.000  H
  H40      1.0000 0.09900  0.06020  0.17870  Biso   1.000  H
  C43      1.0000 0.33870  0.45080  0.69850  Biso   1.000  C
  C44      1.0000 0.66130  0.54920  0.30150  Biso   1.000  C
  H41      1.0000 0.40130  0.40740  0.68880  Biso   1.000  H
  H42      1.0000 0.59870  0.59260  0.31120  Biso   1.000  H
  H43      1.0000 0.33550  0.45420  0.75340  Biso   1.000  H
  H44      1.0000 0.66450  0.54580  0.24660  Biso   1.000  H
  N37      1.0000 0.24270  0.43600  0.59920  Biso   1.000  N
  N38      1.0000 0.75730  0.56400  0.40080  Biso   1.000  N
  H45      1.0000 0.29610  0.39180  0.58870  Biso   1.000  H
  H46      1.0000 0.70390  0.60820  0.41130  Biso   1.000  H
  C45      1.0000 0.62630  0.34470  0.05860  Biso   1.000  C
  C46      1.0000 0.37370  0.65530  0.94140  Biso   1.000  C
  H47      1.0000 0.65640  0.28260  0.06150  Biso   1.000  H
  H48      1.0000 0.34360  0.71740  0.93850  Biso   1.000  H
  H49      1.0000 0.58500  0.36880  0.01230  Biso   1.000  H
  H50      1.0000 0.41500  0.63120  0.98770  Biso   1.000  H
  C47      1.0000 0.86750  0.88700  0.06180  Biso   1.000  C
  C48      1.0000 0.13250  0.11300  0.93820  Biso   1.000  C
  H51      1.0000 0.80430  0.86670  0.09250  Biso   1.000  H
  H52      1.0000 0.19570  0.13330  0.90750  Biso   1.000  H
  H53      1.0000 0.87450  0.93930  0.07680  Biso   1.000  H
  H54      1.0000 0.12550  0.06070  0.92320  Biso   1.000  H
  C49      1.0000 0.16280  0.88570  0.51530  Biso   1.000  C
  C50      1.0000 0.83720  0.11430  0.48470  Biso   1.000  C
  H55      1.0000 0.11280  0.85680  0.55620  Biso   1.000  H
  H56      1.0000 0.88720  0.14320  0.44380  Biso   1.000  H
  H57      1.0000 0.23430  0.85680  0.53010  Biso   1.000  H
  H58      1.0000 0.76570  0.14320  0.46990  Biso   1.000  H
  C51      1.0000 0.14920  0.87130  0.43550  Biso   1.000  C
  C52      1.0000 0.85080  0.12870  0.56450  Biso   1.000  C
  H59      1.0000 0.15870  0.80780  0.44150  Biso   1.000  H
  H60      1.0000 0.84130  0.19220  0.55850  Biso   1.000  H
  H61      1.0000 0.07690  0.89830  0.42150  Biso   1.000  H
  H62      1.0000 0.92310  0.10170  0.57850  Biso   1.000  H
  C53      1.0000 0.71960  0.69870  0.05420  Biso   1.000  C
  C54      1.0000 0.28040  0.30130  0.94580  Biso   1.000  C
  H63      1.0000 0.76090  0.68570  0.09990  Biso   1.000  H
  H64      1.0000 0.23910  0.31430  0.90010  Biso   1.000  H
  H65      1.0000 0.68090  0.75980  0.04530  Biso   1.000  H
  H66      1.0000 0.31910  0.24020  0.95470  Biso   1.000  H
  C55      1.0000 0.86040  0.60140  0.97930  Biso   1.000  C
  C56      1.0000 0.13960  0.39860  0.02070  Biso   1.000  C
  H67      1.0000 0.91630  0.60770  0.93530  Biso   1.000  H
  H68      1.0000 0.08370  0.39230  0.06470  Biso   1.000  H
  H69      1.0000 0.89460  0.57640  0.02910  Biso   1.000  H
  H70      1.0000 0.10540  0.42360  0.97090  Biso   1.000  H
  C57      1.0000 0.79680  0.69020  0.97900  Biso   1.000  C
  C58      1.0000 0.20320  0.30980  0.02100  Biso   1.000  C
  H71      1.0000 0.75520  0.71060  0.93290  Biso   1.000  H
  H72      1.0000 0.24480  0.28940  0.06710  Biso   1.000  H
  H73      1.0000 0.84580  0.73080  0.97090  Biso   1.000  H
  H74      1.0000 0.15420  0.26920  0.02910  Biso   1.000  H
  C59      1.0000 0.14590  0.98200  0.51520  Biso   1.000  C
  C60      1.0000 0.85410  0.01800  0.48480  Biso   1.000  C
  H75      1.0000 0.07800  0.01270  0.49410  Biso   1.000  H
  H76      1.0000 0.92200  0.98730  0.50590  Biso   1.000  H
  H77      1.0000 0.14150  0.98510  0.57020  Biso   1.000  H
  H78      1.0000 0.85850  0.01490  0.42980  Biso   1.000  H
  C61      1.0000 0.21780  0.12020  0.46710  Biso   1.000  C
  C62      1.0000 0.78220  0.87980  0.53290  Biso   1.000  C
  H79      1.0000 0.22640  0.12380  0.52020  Biso   1.000  H
  H80      1.0000 0.77360  0.87620  0.47980  Biso   1.000  H
  H81      1.0000 0.14670  0.15170  0.45340  Biso   1.000  H
  H82      1.0000 0.85330  0.84830  0.54660  Biso   1.000  H
  C63      1.0000 0.01350  0.02200  0.78770  Biso   1.000  C
  C64      1.0000 0.98650  0.97800  0.21230  Biso   1.000  C
  H83      1.0000 0.00680  0.03200  0.73090  Biso   1.000  H
  H84      1.0000 0.99320  0.96800  0.26910  Biso   1.000  H
  H85      1.0000 0.01940  0.07790  0.79640  Biso   1.000  H
  H86      1.0000 0.98060  0.92210  0.20360  Biso   1.000  H
  N39      1.0000 0.34380  0.54110  0.64000  Biso   1.000  N
  N40      1.0000 0.65620  0.45890  0.36000  Biso   1.000  N
  H87      1.0000 0.29340  0.58020  0.66100  Biso   1.000  H
  H88      1.0000 0.70660  0.41980  0.33900  Biso   1.000  H
  C65      1.0000 0.37490  0.14680  0.19170  Biso   1.000  C
  C66      1.0000 0.62510  0.85320  0.80830  Biso   1.000  C
  H89      1.0000 0.42240  0.17810  0.15020  Biso   1.000  H
  H90      1.0000 0.57760  0.82190  0.84980  Biso   1.000  H
  H91      1.0000 0.30260  0.17080  0.17660  Biso   1.000  H
  H92      1.0000 0.69740  0.82920  0.82340  Biso   1.000  H
  C67      1.0000 0.21100  0.98220  0.77920  Biso   1.000  C
  C68      1.0000 0.78900  0.01780  0.22080  Biso   1.000  C
  H93      1.0000 0.21090  0.03810  0.79060  Biso   1.000  H
  H94      1.0000 0.78910  0.96190  0.20940  Biso   1.000  H
  H95      1.0000 0.21800  0.99250  0.72130  Biso   1.000  H
  H96      1.0000 0.78200  0.00750  0.27870  Biso   1.000  H
  C69      1.0000 0.85820  0.45200  0.96510  Biso   1.000  C
  C70      1.0000 0.14180  0.54800  0.03490  Biso   1.000  C
  H97      1.0000 0.90730  0.42720  0.00660  Biso   1.000  H
  H98      1.0000 0.09270  0.57280  0.99340  Biso   1.000  H
  H99      1.0000 0.89950  0.45810  0.91320  Biso   1.000  H
  H100     1.0000 0.10050  0.54190  0.08680  Biso   1.000  H
  C71      1.0000 0.30120  0.16420  0.40590  Biso   1.000  C
  C72      1.0000 0.69880  0.83580  0.59410  Biso   1.000  C
  H101     1.0000 0.28710  0.22800  0.39970  Biso   1.000  H
  H102     1.0000 0.71290  0.77200  0.60030  Biso   1.000  H
  H103     1.0000 0.37230  0.13930  0.42330  Biso   1.000  H
  H104     1.0000 0.62770  0.86070  0.57670  Biso   1.000  H
  N41      1.0000 0.16270  0.35140  0.22230  Biso   1.000  N
  N42      1.0000 0.83730  0.64860  0.77770  Biso   1.000  N
  C73      1.0000 0.15960  0.50620  0.42720  Biso   1.000  C
  C74      1.0000 0.84040  0.49380  0.57280  Biso   1.000  C
  H105     1.0000 0.16900  0.49560  0.37450  Biso   1.000  H
  H106     1.0000 0.83100  0.50440  0.62550  Biso   1.000  H
  H107     1.0000 0.09260  0.54760  0.43070  Biso   1.000  H
  H108     1.0000 0.90740  0.45240  0.56930  Biso   1.000  H
  N43      1.0000 0.07930  0.09280  0.33110  Biso   1.000  N
  N44      1.0000 0.92070  0.90720  0.66890  Biso   1.000  N
  C75      1.0000 0.38340  0.16600  0.26820  Biso   1.000  C
  C76      1.0000 0.61660  0.83400  0.73180  Biso   1.000  C
  H109     1.0000 0.44920  0.13100  0.29030  Biso   1.000  H
  H110     1.0000 0.55080  0.86900  0.70970  Biso   1.000  H
  H111     1.0000 0.38650  0.22860  0.25760  Biso   1.000  H
  H112     1.0000 0.61350  0.77140  0.74240  Biso   1.000  H
  C77      1.0000 0.55050  0.35030  0.13640  Biso   1.000  C
  C78      1.0000 0.44950  0.64970  0.86360  Biso   1.000  C
  H113     1.0000 0.50740  0.30460  0.14860  Biso   1.000  H
  H114     1.0000 0.49260  0.69540  0.85140  Biso   1.000  H
  H115     1.0000 0.59390  0.33710  0.18090  Biso   1.000  H
  H116     1.0000 0.40610  0.66290  0.81910  Biso   1.000  H
  C79      1.0000 0.30470  0.91490  0.81330  Biso   1.000  C
  C80      1.0000 0.69530  0.08510  0.18670  Biso   1.000  C
  H117     1.0000 0.29650  0.85650  0.81160  Biso   1.000  H
  H118     1.0000 0.70350  0.14350  0.18840  Biso   1.000  H
  H119     1.0000 0.36870  0.92860  0.77920  Biso   1.000  H
  H120     1.0000 0.63130  0.07140  0.22080  Biso   1.000  H
  C81      1.0000 0.43940  0.57070  0.63470  Biso   1.000  C
  C82      1.0000 0.56060  0.42930  0.36530  Biso   1.000  C
  H121     1.0000 0.49710  0.52660  0.61940  Biso   1.000  H
  H122     1.0000 0.50290  0.47340  0.38060  Biso   1.000  H
  H123     1.0000 0.45020  0.57230  0.68800  Biso   1.000  H
  H124     1.0000 0.54980  0.42770  0.31200  Biso   1.000  H
  C83      1.0000 0.44950  0.66010  0.57770  Biso   1.000  C
  C84      1.0000 0.55050  0.33990  0.42230  Biso   1.000  C
  H125     1.0000 0.51190  0.67740  0.58890  Biso   1.000  H
  H126     1.0000 0.48810  0.32260  0.41110  Biso   1.000  H
  H127     1.0000 0.38760  0.70330  0.58910  Biso   1.000  H
  H128     1.0000 0.61240  0.29670  0.41090  Biso   1.000  H
  C85      1.0000 0.24550  0.42610  0.68600  Biso   1.000  C
  C86      1.0000 0.75450  0.57390  0.31400  Biso   1.000  C
  H129     1.0000 0.18300  0.46360  0.70500  Biso   1.000  H
  H130     1.0000 0.81700  0.53640  0.29500  Biso   1.000  H
  H131     1.0000 0.24440  0.36470  0.71620  Biso   1.000  H
  H132     1.0000 0.75560  0.63530  0.28380  Biso   1.000  H
  C87      1.0000 0.45880  0.66610  0.48890  Biso   1.000  C
  C88      1.0000 0.54120  0.33390  0.51110  Biso   1.000  C
  H133     1.0000 0.44960  0.72840  0.45840  Biso   1.000  H
  H134     1.0000 0.55040  0.27160  0.54160  Biso   1.000  H
  H135     1.0000 0.52980  0.63680  0.47340  Biso   1.000  H
  H136     1.0000 0.47020  0.36320  0.52660  Biso   1.000  H
  C89      1.0000 0.15230  0.41950  0.49000  Biso   1.000  C
  C90      1.0000 0.84770  0.58050  0.51000  Biso   1.000  C
  H137     1.0000 0.08810  0.40060  0.48410  Biso   1.000  H
  H138     1.0000 0.91190  0.59940  0.51590  Biso   1.000  H
  H139     1.0000 0.21270  0.37490  0.47900  Biso   1.000  H
  H140     1.0000 0.78730  0.62510  0.52100  Biso   1.000  H
  C91      1.0000 0.47740  0.43910  0.13100  Biso   1.000  C
  C92      1.0000 0.52260  0.56090  0.86900  Biso   1.000  C
  H141     1.0000 0.43190  0.45190  0.08780  Biso   1.000  H
  H142     1.0000 0.56810  0.54810  0.91220  Biso   1.000  H
  H143     1.0000 0.43190  0.43630  0.18080  Biso   1.000  H
  H144     1.0000 0.56810  0.56370  0.81920  Biso   1.000  H
  O17      1.0000 0.51260  0.93390  0.41970  Biso   1.000  O
  O18      1.0000 0.48740  0.06610  0.58030  Biso   1.000  O
  O19      1.0000 0.59610  0.08450  0.41730  Biso   1.000  O
  O20      1.0000 0.40390  0.91550  0.58270  Biso   1.000  O
  O21      1.0000 0.61200  0.85150  0.17470  Biso   1.000  O
  O22      1.0000 0.38800  0.14850  0.82530  Biso   1.000  O
  O23      1.0000 0.42520  0.19800  0.67440  Biso   1.000  O
  O24      1.0000 0.57480  0.80200  0.32560  Biso   1.000  O
  O25      1.0000 0.01860  0.74830  0.32480  Biso   1.000  O
  O26      1.0000 0.98140  0.25170  0.67520  Biso   1.000  O
  O27      1.0000 0.51900  0.91950  0.03010  Biso   1.000  O
  O28      1.0000 0.48100  0.08050  0.96990  Biso   1.000  O
  O29      1.0000 0.30600  0.41800  0.30100  Biso   1.000  O
  O30      1.0000 0.69400  0.58200  0.69900  Biso   1.000  O
