data_image0
_cell_length_a       16.963
_cell_length_b       18.283
_cell_length_c       18.373
_cell_angle_alpha    90
_cell_angle_beta     90
_cell_angle_gamma    90

_symmetry_space_group_name_H-M    "P 1"
_symmetry_int_tables_number       1

loop_
  _symmetry_equiv_pos_as_xyz
  'x, y, z'

loop_
  _atom_site_label
  _atom_site_occupancy
  _atom_site_fract_x
  _atom_site_fract_y
  _atom_site_fract_z
  _atom_site_thermal_displace_type
  _atom_site_B_iso_or_equiv
  _atom_site_type_symbol
  Cu1      1.0000 0.63589  0.70162  0.94345  Biso   1.000  Cu
  Cu2      1.0000 0.86411  0.29838  0.44345  Biso   1.000  Cu
  Cu3      1.0000 0.36411  0.20162  0.55655  Biso   1.000  Cu
  Cu4      1.0000 0.13589  0.79838  0.05655  Biso   1.000  Cu
  Cu5      1.0000 0.70096  0.55640  0.86594  Biso   1.000  Cu
  Cu6      1.0000 0.79904  0.44360  0.36594  Biso   1.000  Cu
  Cu7      1.0000 0.29904  0.05640  0.63406  Biso   1.000  Cu
  Cu8      1.0000 0.20096  0.94360  0.13406  Biso   1.000  Cu
  Cu9      1.0000 0.55242  0.64719  0.79333  Biso   1.000  Cu
  Cu10     1.0000 0.94758  0.35281  0.29333  Biso   1.000  Cu
  Cu11     1.0000 0.44758  0.14719  0.70667  Biso   1.000  Cu
  Cu12     1.0000 0.05242  0.85281  0.20667  Biso   1.000  Cu
  Mn1      1.0000 0.89610  0.59293  0.11003  Biso   1.000  Mn
  Mn2      1.0000 0.60390  0.40707  0.61003  Biso   1.000  Mn
  Mn3      1.0000 0.10390  0.09293  0.38997  Biso   1.000  Mn
  Mn4      1.0000 0.39610  0.90707  0.88997  Biso   1.000  Mn
  Cl1      1.0000 0.70540  0.69780  0.82040  Biso   1.000  Cl
  Cl2      1.0000 0.79460  0.30220  0.32040  Biso   1.000  Cl
  Cl3      1.0000 0.29460  0.19780  0.67960  Biso   1.000  Cl
  Cl4      1.0000 0.20540  0.80220  0.17960  Biso   1.000  Cl
  C1       1.0000 0.75530  0.67280  0.03510  Biso   1.000  C
  C2       1.0000 0.74470  0.32720  0.53510  Biso   1.000  C
  C3       1.0000 0.24470  0.17280  0.46490  Biso   1.000  C
  C4       1.0000 0.25530  0.82720  0.96490  Biso   1.000  C
  C5       1.0000 0.72540  0.59330  0.00920  Biso   1.000  C
  C6       1.0000 0.77460  0.40670  0.50920  Biso   1.000  C
  C7       1.0000 0.27460  0.09330  0.49080  Biso   1.000  C
  C8       1.0000 0.22540  0.90670  0.99080  Biso   1.000  C
  C9       1.0000 0.79650  0.54670  0.97700  Biso   1.000  C
  C10      1.0000 0.70350  0.45330  0.47700  Biso   1.000  C
  C11      1.0000 0.20350  0.04670  0.52300  Biso   1.000  C
  C12      1.0000 0.29650  0.95330  0.02300  Biso   1.000  C
  O1       1.0000 0.80890  0.67460  0.07930  Biso   1.000  O
  O2       1.0000 0.69110  0.32540  0.57930  Biso   1.000  O
  O3       1.0000 0.19110  0.17460  0.42070  Biso   1.000  O
  O4       1.0000 0.30890  0.82540  0.92070  Biso   1.000  O
  O5       1.0000 0.72040  0.72570  0.00750  Biso   1.000  O
  O6       1.0000 0.77960  0.27430  0.50750  Biso   1.000  O
  O7       1.0000 0.27960  0.22570  0.49250  Biso   1.000  O
  O8       1.0000 0.22040  0.77430  0.99250  Biso   1.000  O
  O9       1.0000 0.69260  0.55620  0.07290  Biso   1.000  O
  O10      1.0000 0.80740  0.44380  0.57290  Biso   1.000  O
  O11      1.0000 0.30740  0.05620  0.42710  Biso   1.000  O
  O12      1.0000 0.19260  0.94380  0.92710  Biso   1.000  O
  O13      1.0000 0.66900  0.59910  0.95690  Biso   1.000  O
  O14      1.0000 0.83100  0.40090  0.45690  Biso   1.000  O
  O15      1.0000 0.33100  0.09910  0.54310  Biso   1.000  O
  O16      1.0000 0.16900  0.90090  0.04310  Biso   1.000  O
  O17      1.0000 0.84940  0.53000  0.02360  Biso   1.000  O
  O18      1.0000 0.65060  0.47000  0.52360  Biso   1.000  O
  O19      1.0000 0.15060  0.03000  0.47640  Biso   1.000  O
  O20      1.0000 0.34940  0.97000  0.97640  Biso   1.000  O
  O21      1.0000 0.79400  0.52880  0.91470  Biso   1.000  O
  O22      1.0000 0.70600  0.47120  0.41470  Biso   1.000  O
  O23      1.0000 0.20600  0.02880  0.58530  Biso   1.000  O
  O24      1.0000 0.29400  0.97120  0.08530  Biso   1.000  O
  C13      1.0000 0.68140  0.48330  0.73840  Biso   1.000  C
  C14      1.0000 0.81860  0.51670  0.23840  Biso   1.000  C
  C15      1.0000 0.31860  0.98330  0.76160  Biso   1.000  C
  C16      1.0000 0.18140  0.01670  0.26160  Biso   1.000  C
  C17      1.0000 0.59480  0.50370  0.76430  Biso   1.000  C
  C18      1.0000 0.90520  0.49630  0.26430  Biso   1.000  C
  C19      1.0000 0.40520  0.00370  0.73570  Biso   1.000  C
  C20      1.0000 0.09480  0.99630  0.23570  Biso   1.000  C
  C21      1.0000 0.54810  0.53250  0.69890  Biso   1.000  C
  C22      1.0000 0.95190  0.46750  0.19890  Biso   1.000  C
  C23      1.0000 0.45190  0.03250  0.80110  Biso   1.000  C
  C24      1.0000 0.04810  0.96750  0.30110  Biso   1.000  C
  O25      1.0000 0.69130  0.44940  0.68250  Biso   1.000  O
  O26      1.0000 0.80870  0.55060  0.18250  Biso   1.000  O
  O27      1.0000 0.30870  0.94940  0.81750  Biso   1.000  O
  O28      1.0000 0.19130  0.05060  0.31750  Biso   1.000  O
  O29      1.0000 0.73640  0.50130  0.78290  Biso   1.000  O
  O30      1.0000 0.76360  0.49870  0.28290  Biso   1.000  O
  O31      1.0000 0.26360  0.00130  0.71710  Biso   1.000  O
  O32      1.0000 0.23640  0.99870  0.21710  Biso   1.000  O
  O33      1.0000 0.55930  0.44190  0.79160  Biso   1.000  O
  O34      1.0000 0.94070  0.55810  0.29160  Biso   1.000  O
  O35      1.0000 0.44070  0.94190  0.70840  Biso   1.000  O
  O36      1.0000 0.05930  0.05810  0.20840  Biso   1.000  O
  O37      1.0000 0.59990  0.55490  0.81770  Biso   1.000  O
  O38      1.0000 0.90010  0.44510  0.31770  Biso   1.000  O
  O39      1.0000 0.40010  0.05490  0.68230  Biso   1.000  O
  O40      1.0000 0.09990  0.94510  0.18230  Biso   1.000  O
  O41      1.0000 0.53050  0.49290  0.64940  Biso   1.000  O
  O42      1.0000 0.96950  0.50710  0.14940  Biso   1.000  O
  O43      1.0000 0.46950  0.99290  0.85060  Biso   1.000  O
  O44      1.0000 0.03050  0.00710  0.35060  Biso   1.000  O
  O45      1.0000 0.52980  0.60090  0.70260  Biso   1.000  O
  O46      1.0000 0.97020  0.39910  0.20260  Biso   1.000  O
  O47      1.0000 0.47020  0.10090  0.79740  Biso   1.000  O
  O48      1.0000 0.02980  0.89910  0.29740  Biso   1.000  O
  C25      1.0000 0.47330  0.77250  0.81780  Biso   1.000  C
  C26      1.0000 0.02670  0.22750  0.31780  Biso   1.000  C
  C27      1.0000 0.52670  0.27250  0.68220  Biso   1.000  C
  C28      1.0000 0.97330  0.72750  0.18220  Biso   1.000  C
  C29      1.0000 0.48590  0.74320  0.89370  Biso   1.000  C
  C30      1.0000 0.01410  0.25680  0.39370  Biso   1.000  C
  C31      1.0000 0.51410  0.24320  0.60630  Biso   1.000  C
  C32      1.0000 0.98590  0.75680  0.10630  Biso   1.000  C
  C33      1.0000 0.51980  0.80360  0.94350  Biso   1.000  C
  C34      1.0000 0.98020  0.19640  0.44350  Biso   1.000  C
  C35      1.0000 0.48020  0.30360  0.55650  Biso   1.000  C
  C36      1.0000 0.01980  0.69640  0.05650  Biso   1.000  C
  O49      1.0000 0.43670  0.83070  0.80950  Biso   1.000  O
  O50      1.0000 0.06330  0.16930  0.30950  Biso   1.000  O
  O51      1.0000 0.56330  0.33070  0.69050  Biso   1.000  O
  O52      1.0000 0.93670  0.66930  0.19050  Biso   1.000  O
  O53      1.0000 0.49870  0.73610  0.76630  Biso   1.000  O
  O54      1.0000 0.00130  0.26390  0.26630  Biso   1.000  O
  O55      1.0000 0.50130  0.23610  0.73370  Biso   1.000  O
  O56      1.0000 0.99870  0.76390  0.23370  Biso   1.000  O
  O57      1.0000 0.41370  0.71590  0.91940  Biso   1.000  O
  O58      1.0000 0.08630  0.28410  0.41940  Biso   1.000  O
  O59      1.0000 0.58630  0.21590  0.58060  Biso   1.000  O
  O60      1.0000 0.91370  0.78410  0.08060  Biso   1.000  O
  O61      1.0000 0.53980  0.68370  0.89030  Biso   1.000  O
  O62      1.0000 0.96020  0.31630  0.39030  Biso   1.000  O
  O63      1.0000 0.46020  0.18370  0.60970  Biso   1.000  O
  O64      1.0000 0.03980  0.81630  0.10970  Biso   1.000  O
  O65      1.0000 0.47980  0.85800  0.95660  Biso   1.000  O
  O66      1.0000 0.02020  0.14200  0.45660  Biso   1.000  O
  O67      1.0000 0.52020  0.35800  0.54340  Biso   1.000  O
  O68      1.0000 0.97980  0.64200  0.04340  Biso   1.000  O
  O69      1.0000 0.58610  0.79170  0.96950  Biso   1.000  O
  O70      1.0000 0.91390  0.20830  0.46950  Biso   1.000  O
  O71      1.0000 0.41390  0.29170  0.53050  Biso   1.000  O
  O72      1.0000 0.08610  0.70830  0.03050  Biso   1.000  O
  P1       1.0000 0.15590  0.33210  0.82130  Biso   1.000  P
  P2       1.0000 0.34410  0.66790  0.32130  Biso   1.000  P
  P3       1.0000 0.84410  0.83210  0.67870  Biso   1.000  P
  P4       1.0000 0.65590  0.16790  0.17870  Biso   1.000  P
  C37      1.0000 0.09700  0.36280  0.89310  Biso   1.000  C
  C38      1.0000 0.40300  0.63720  0.39310  Biso   1.000  C
  C39      1.0000 0.90300  0.86280  0.60690  Biso   1.000  C
  C40      1.0000 0.59700  0.13720  0.10690  Biso   1.000  C
  C41      1.0000 0.10020  0.32820  0.96040  Biso   1.000  C
  C42      1.0000 0.39980  0.67180  0.46040  Biso   1.000  C
  C43      1.0000 0.89980  0.82820  0.53960  Biso   1.000  C
  C44      1.0000 0.60020  0.17180  0.03960  Biso   1.000  C
  H1       1.0000 0.13510  0.28890  0.96770  Biso   1.000  H
  H2       1.0000 0.36490  0.71110  0.46770  Biso   1.000  H
  H3       1.0000 0.86490  0.78890  0.53230  Biso   1.000  H
  H4       1.0000 0.63510  0.21110  0.03230  Biso   1.000  H
  C45      1.0000 0.05190  0.35170  0.01690  Biso   1.000  C
  C46      1.0000 0.44810  0.64830  0.51690  Biso   1.000  C
  C47      1.0000 0.94810  0.85170  0.48310  Biso   1.000  C
  C48      1.0000 0.55190  0.14830  0.98310  Biso   1.000  C
  H5       1.0000 0.05420  0.32830  0.06240  Biso   1.000  H
  H6       1.0000 0.44580  0.67170  0.56240  Biso   1.000  H
  H7       1.0000 0.94580  0.82830  0.43760  Biso   1.000  H
  H8       1.0000 0.55420  0.17170  0.93760  Biso   1.000  H
  C49      1.0000 0.00040  0.40980  0.00610  Biso   1.000  C
  C50      1.0000 0.49960  0.59020  0.50610  Biso   1.000  C
  C51      1.0000 0.99960  0.90980  0.49390  Biso   1.000  C
  C52      1.0000 0.50040  0.09020  0.99390  Biso   1.000  C
  H9       1.0000 0.96770  0.42570  0.04430  Biso   1.000  H
  H10      1.0000 0.53230  0.57430  0.54430  Biso   1.000  H
  H11      1.0000 0.03230  0.92570  0.45570  Biso   1.000  H
  H12      1.0000 0.46770  0.07430  0.95570  Biso   1.000  H
  C53      1.0000 0.99710  0.44440  0.93880  Biso   1.000  C
  C54      1.0000 0.50290  0.55560  0.43880  Biso   1.000  C
  C55      1.0000 0.00290  0.94440  0.56120  Biso   1.000  C
  C56      1.0000 0.49710  0.05560  0.06120  Biso   1.000  C
  H13      1.0000 0.96230  0.48370  0.93140  Biso   1.000  H
  H14      1.0000 0.53770  0.51630  0.43140  Biso   1.000  H
  H15      1.0000 0.03770  0.98370  0.56860  Biso   1.000  H
  H16      1.0000 0.46230  0.01630  0.06860  Biso   1.000  H
  C57      1.0000 0.04540  0.42090  0.88230  Biso   1.000  C
  C58      1.0000 0.45460  0.57910  0.38230  Biso   1.000  C
  C59      1.0000 0.95460  0.92090  0.61770  Biso   1.000  C
  C60      1.0000 0.54540  0.07910  0.11770  Biso   1.000  C
  H17      1.0000 0.04320  0.44430  0.83680  Biso   1.000  H
  H18      1.0000 0.45680  0.55570  0.33680  Biso   1.000  H
  H19      1.0000 0.95680  0.94430  0.66320  Biso   1.000  H
  H20      1.0000 0.54320  0.05570  0.16320  Biso   1.000  H
  C61      1.0000 0.09280  0.31240  0.74630  Biso   1.000  C
  C62      1.0000 0.40720  0.68760  0.24630  Biso   1.000  C
  C63      1.0000 0.90720  0.81240  0.75370  Biso   1.000  C
  C64      1.0000 0.59280  0.18760  0.25370  Biso   1.000  C
  C65      1.0000 0.01200  0.30600  0.75750  Biso   1.000  C
  C66      1.0000 0.48800  0.69400  0.25750  Biso   1.000  C
  C67      1.0000 0.98800  0.80600  0.74250  Biso   1.000  C
  C68      1.0000 0.51200  0.19400  0.24250  Biso   1.000  C
  H21      1.0000 0.99110  0.31130  0.80460  Biso   1.000  H
  H22      1.0000 0.50890  0.68870  0.30460  Biso   1.000  H
  H23      1.0000 0.00890  0.81130  0.69540  Biso   1.000  H
  H24      1.0000 0.49110  0.18870  0.19540  Biso   1.000  H
  C69      1.0000 0.96230  0.29190  0.69910  Biso   1.000  C
  C70      1.0000 0.53770  0.70810  0.19910  Biso   1.000  C
  C71      1.0000 0.03770  0.79190  0.80090  Biso   1.000  C
  C72      1.0000 0.46230  0.20810  0.30090  Biso   1.000  C
  H25      1.0000 0.90770  0.28750  0.70660  Biso   1.000  H
  H26      1.0000 0.59230  0.71250  0.20660  Biso   1.000  H
  H27      1.0000 0.09230  0.78750  0.79340  Biso   1.000  H
  H28      1.0000 0.40770  0.21250  0.29340  Biso   1.000  H
  C73      1.0000 0.99330  0.28410  0.62950  Biso   1.000  C
  C74      1.0000 0.50670  0.71590  0.12950  Biso   1.000  C
  C75      1.0000 0.00670  0.78410  0.87050  Biso   1.000  C
  C76      1.0000 0.49330  0.21590  0.37050  Biso   1.000  C
  H29      1.0000 0.95960  0.27460  0.58990  Biso   1.000  H
  H30      1.0000 0.54040  0.72540  0.08990  Biso   1.000  H
  H31      1.0000 0.04040  0.77460  0.91010  Biso   1.000  H
  H32      1.0000 0.45960  0.22540  0.41010  Biso   1.000  H
  C77      1.0000 0.07400  0.29050  0.61830  Biso   1.000  C
  C78      1.0000 0.42600  0.70950  0.11830  Biso   1.000  C
  C79      1.0000 0.92600  0.79050  0.88170  Biso   1.000  C
  C80      1.0000 0.57400  0.20950  0.38170  Biso   1.000  C
  H33      1.0000 0.09500  0.28530  0.57120  Biso   1.000  H
  H34      1.0000 0.40500  0.71470  0.07120  Biso   1.000  H
  H35      1.0000 0.90500  0.78530  0.92880  Biso   1.000  H
  H36      1.0000 0.59500  0.21470  0.42880  Biso   1.000  H
  C81      1.0000 0.12380  0.30470  0.67670  Biso   1.000  C
  C82      1.0000 0.37620  0.69530  0.17670  Biso   1.000  C
  C83      1.0000 0.87620  0.80470  0.82330  Biso   1.000  C
  C84      1.0000 0.62380  0.19530  0.32330  Biso   1.000  C
  H37      1.0000 0.17840  0.30900  0.66920  Biso   1.000  H
  H38      1.0000 0.32160  0.69100  0.16920  Biso   1.000  H
  H39      1.0000 0.82160  0.80900  0.83080  Biso   1.000  H
  H40      1.0000 0.67840  0.19100  0.33080  Biso   1.000  H
  C85      1.0000 0.20800  0.25200  0.84640  Biso   1.000  C
  C86      1.0000 0.29200  0.74800  0.34640  Biso   1.000  C
  C87      1.0000 0.79200  0.75200  0.65360  Biso   1.000  C
  C88      1.0000 0.70800  0.24800  0.15360  Biso   1.000  C
  C89      1.0000 0.17350  0.18420  0.83380  Biso   1.000  C
  C90      1.0000 0.32650  0.81580  0.33380  Biso   1.000  C
  C91      1.0000 0.82650  0.68420  0.66620  Biso   1.000  C
  C92      1.0000 0.67350  0.31580  0.16620  Biso   1.000  C
  H41      1.0000 0.12550  0.18120  0.80840  Biso   1.000  H
  H42      1.0000 0.37450  0.81880  0.30840  Biso   1.000  H
  H43      1.0000 0.87450  0.68120  0.69160  Biso   1.000  H
  H44      1.0000 0.62550  0.31880  0.19160  Biso   1.000  H
  C93      1.0000 0.20980  0.12090  0.85890  Biso   1.000  C
  C94      1.0000 0.29020  0.87910  0.35890  Biso   1.000  C
  C95      1.0000 0.79020  0.62090  0.64110  Biso   1.000  C
  C96      1.0000 0.70980  0.37910  0.14110  Biso   1.000  C
  H45      1.0000 0.18650  0.07510  0.85040  Biso   1.000  H
  H46      1.0000 0.31350  0.92490  0.35040  Biso   1.000  H
  H47      1.0000 0.81350  0.57510  0.64960  Biso   1.000  H
  H48      1.0000 0.68650  0.42490  0.14960  Biso   1.000  H
  C97      1.0000 0.28080  0.12530  0.89650  Biso   1.000  C
  C98      1.0000 0.21920  0.87470  0.39650  Biso   1.000  C
  C99      1.0000 0.71920  0.62530  0.60350  Biso   1.000  C
  C100     1.0000 0.78080  0.37470  0.10350  Biso   1.000  C
  H49      1.0000 0.30540  0.08250  0.91340  Biso   1.000  H
  H50      1.0000 0.19460  0.91750  0.41340  Biso   1.000  H
  H51      1.0000 0.69460  0.58250  0.58660  Biso   1.000  H
  H52      1.0000 0.80540  0.41750  0.08660  Biso   1.000  H
  C101     1.0000 0.31530  0.19310  0.90910  Biso   1.000  C
  C102     1.0000 0.18470  0.80690  0.40910  Biso   1.000  C
  C103     1.0000 0.68470  0.69310  0.59090  Biso   1.000  C
  C104     1.0000 0.81530  0.30690  0.09090  Biso   1.000  C
  H53      1.0000 0.36330  0.19610  0.93450  Biso   1.000  H
  H54      1.0000 0.13670  0.80390  0.43450  Biso   1.000  H
  H55      1.0000 0.63670  0.69610  0.56550  Biso   1.000  H
  H56      1.0000 0.86330  0.30390  0.06550  Biso   1.000  H
  C105     1.0000 0.27900  0.25640  0.88400  Biso   1.000  C
  C106     1.0000 0.22100  0.74360  0.38400  Biso   1.000  C
  C107     1.0000 0.72100  0.75640  0.61600  Biso   1.000  C
  C108     1.0000 0.77900  0.24360  0.11600  Biso   1.000  C
  H57      1.0000 0.30230  0.30220  0.89250  Biso   1.000  H
  H58      1.0000 0.19770  0.69780  0.39250  Biso   1.000  H
  H59      1.0000 0.69770  0.80220  0.60750  Biso   1.000  H
  H60      1.0000 0.80230  0.19780  0.10750  Biso   1.000  H
  C109     1.0000 0.22910  0.40060  0.80150  Biso   1.000  C
  C110     1.0000 0.27090  0.59940  0.30150  Biso   1.000  C
  C111     1.0000 0.77090  0.90060  0.69850  Biso   1.000  C
  C112     1.0000 0.72910  0.09940  0.19850  Biso   1.000  C
  C113     1.0000 0.28680  0.38560  0.74990  Biso   1.000  C
  C114     1.0000 0.21320  0.61440  0.24990  Biso   1.000  C
  C115     1.0000 0.71320  0.88560  0.75010  Biso   1.000  C
  C116     1.0000 0.78680  0.11440  0.25010  Biso   1.000  C
  H61      1.0000 0.28460  0.34200  0.72290  Biso   1.000  H
  H62      1.0000 0.21540  0.65800  0.22290  Biso   1.000  H
  H63      1.0000 0.71540  0.84200  0.77710  Biso   1.000  H
  H64      1.0000 0.78460  0.15800  0.27710  Biso   1.000  H
  C117     1.0000 0.34760  0.43520  0.73820  Biso   1.000  C
  C118     1.0000 0.15240  0.56480  0.23820  Biso   1.000  C
  C119     1.0000 0.65240  0.93520  0.76180  Biso   1.000  C
  C120     1.0000 0.84760  0.06480  0.26180  Biso   1.000  C
  H65      1.0000 0.38660  0.42510  0.70330  Biso   1.000  H
  H66      1.0000 0.11340  0.57490  0.20330  Biso   1.000  H
  H67      1.0000 0.61340  0.92510  0.79670  Biso   1.000  H
  H68      1.0000 0.88660  0.07490  0.29670  Biso   1.000  H
  C121     1.0000 0.35080  0.49970  0.77820  Biso   1.000  C
  C122     1.0000 0.14920  0.50030  0.27820  Biso   1.000  C
  C123     1.0000 0.64920  0.99970  0.72180  Biso   1.000  C
  C124     1.0000 0.85080  0.00030  0.22180  Biso   1.000  C
  H69      1.0000 0.39200  0.53320  0.77030  Biso   1.000  H
  H70      1.0000 0.10800  0.46680  0.27030  Biso   1.000  H
  H71      1.0000 0.60800  0.03320  0.72970  Biso   1.000  H
  H72      1.0000 0.89200  0.96680  0.22970  Biso   1.000  H
  C125     1.0000 0.29310  0.51460  0.82980  Biso   1.000  C
  C126     1.0000 0.20690  0.48540  0.32980  Biso   1.000  C
  C127     1.0000 0.70690  0.01460  0.67020  Biso   1.000  C
  C128     1.0000 0.79310  0.98540  0.17020  Biso   1.000  C
  H73      1.0000 0.29530  0.55830  0.85680  Biso   1.000  H
  H74      1.0000 0.20470  0.44170  0.35680  Biso   1.000  H
  H75      1.0000 0.70470  0.05830  0.64320  Biso   1.000  H
  H76      1.0000 0.79530  0.94170  0.14320  Biso   1.000  H
  C129     1.0000 0.23230  0.46510  0.84150  Biso   1.000  C
  C130     1.0000 0.26770  0.53490  0.34150  Biso   1.000  C
  C131     1.0000 0.76770  0.96510  0.65850  Biso   1.000  C
  C132     1.0000 0.73230  0.03490  0.15850  Biso   1.000  C
  H77      1.0000 0.19330  0.47520  0.87640  Biso   1.000  H
  H78      1.0000 0.30670  0.52480  0.37640  Biso   1.000  H
  H79      1.0000 0.80670  0.97520  0.62360  Biso   1.000  H
  H80      1.0000 0.69330  0.02480  0.12360  Biso   1.000  H
  P5       1.0000 0.88240  0.10060  0.88770  Biso   1.000  P
  P6       1.0000 0.61760  0.89940  0.38770  Biso   1.000  P
  P7       1.0000 0.11760  0.60060  0.61230  Biso   1.000  P
  P8       1.0000 0.38240  0.39940  0.11230  Biso   1.000  P
  C133     1.0000 0.94430  0.11740  0.96180  Biso   1.000  C
  C134     1.0000 0.55570  0.88260  0.46180  Biso   1.000  C
  C135     1.0000 0.05570  0.61740  0.53820  Biso   1.000  C
  C136     1.0000 0.44430  0.38260  0.03820  Biso   1.000  C
  C137     1.0000 0.90970  0.12420  0.03000  Biso   1.000  C
  C138     1.0000 0.59030  0.87580  0.53000  Biso   1.000  C
  C139     1.0000 0.09030  0.62420  0.47000  Biso   1.000  C
  C140     1.0000 0.40970  0.37580  0.97000  Biso   1.000  C
  H81      1.0000 0.85550  0.11510  0.03580  Biso   1.000  H
  H82      1.0000 0.64450  0.88490  0.53580  Biso   1.000  H
  H83      1.0000 0.14450  0.61510  0.46420  Biso   1.000  H
  H84      1.0000 0.35550  0.38490  0.96420  Biso   1.000  H
  C141     1.0000 0.95510  0.14440  0.08970  Biso   1.000  C
  C142     1.0000 0.54490  0.85560  0.58970  Biso   1.000  C
  C143     1.0000 0.04490  0.64440  0.41030  Biso   1.000  C
  C144     1.0000 0.45510  0.35560  0.91030  Biso   1.000  C
  H85      1.0000 0.93170  0.14890  0.13580  Biso   1.000  H
  H86      1.0000 0.56830  0.85110  0.63580  Biso   1.000  H
  H87      1.0000 0.06830  0.64890  0.36420  Biso   1.000  H
  H88      1.0000 0.43170  0.35110  0.86420  Biso   1.000  H
  C145     1.0000 0.03520  0.15780  0.08110  Biso   1.000  C
  C146     1.0000 0.46480  0.84220  0.58110  Biso   1.000  C
  C147     1.0000 0.96480  0.65780  0.41890  Biso   1.000  C
  C148     1.0000 0.53520  0.34220  0.91890  Biso   1.000  C
  H89      1.0000 0.06600  0.17150  0.12140  Biso   1.000  H
  H90      1.0000 0.43400  0.82850  0.62140  Biso   1.000  H
  H91      1.0000 0.93400  0.67150  0.37860  Biso   1.000  H
  H92      1.0000 0.56600  0.32850  0.87860  Biso   1.000  H
  C149     1.0000 0.06990  0.15110  0.01290  Biso   1.000  C
  C150     1.0000 0.43010  0.84890  0.51290  Biso   1.000  C
  C151     1.0000 0.93010  0.65110  0.48710  Biso   1.000  C
  C152     1.0000 0.56990  0.34890  0.98710  Biso   1.000  C
  H93      1.0000 0.12400  0.16020  0.00710  Biso   1.000  H
  H94      1.0000 0.37600  0.83980  0.50710  Biso   1.000  H
  H95      1.0000 0.87600  0.66020  0.49290  Biso   1.000  H
  H96      1.0000 0.62400  0.33980  0.99290  Biso   1.000  H
  C153     1.0000 0.02440  0.13090  0.95320  Biso   1.000  C
  C154     1.0000 0.47560  0.86910  0.45320  Biso   1.000  C
  C155     1.0000 0.97560  0.63090  0.54680  Biso   1.000  C
  C156     1.0000 0.52440  0.36910  0.04680  Biso   1.000  C
  H97      1.0000 0.04780  0.12640  0.90710  Biso   1.000  H
  H98      1.0000 0.45220  0.87360  0.40710  Biso   1.000  H
  H99      1.0000 0.95220  0.62640  0.59290  Biso   1.000  H
  H100     1.0000 0.54780  0.37360  0.09290  Biso   1.000  H
  C157     1.0000 0.95090  0.06700  0.81910  Biso   1.000  C
  C158     1.0000 0.54910  0.93300  0.31910  Biso   1.000  C
  C159     1.0000 0.04910  0.56700  0.68090  Biso   1.000  C
  C160     1.0000 0.45090  0.43300  0.18090  Biso   1.000  C
  C161     1.0000 0.95830  0.10430  0.75360  Biso   1.000  C
  C162     1.0000 0.54170  0.89570  0.25360  Biso   1.000  C
  C163     1.0000 0.04170  0.60430  0.74640  Biso   1.000  C
  C164     1.0000 0.45830  0.39570  0.24640  Biso   1.000  C
  H101     1.0000 0.92300  0.14230  0.74210  Biso   1.000  H
  H102     1.0000 0.57700  0.85770  0.24210  Biso   1.000  H
  H103     1.0000 0.07700  0.64230  0.75790  Biso   1.000  H
  H104     1.0000 0.42300  0.35770  0.25790  Biso   1.000  H
  C165     1.0000 0.01780  0.08560  0.70500  Biso   1.000  C
  C166     1.0000 0.48220  0.91440  0.20500  Biso   1.000  C
  C167     1.0000 0.98220  0.58560  0.79500  Biso   1.000  C
  C168     1.0000 0.51780  0.41440  0.29500  Biso   1.000  C
  H105     1.0000 0.02270  0.11090  0.66070  Biso   1.000  H
  H106     1.0000 0.47730  0.88910  0.16070  Biso   1.000  H
  H107     1.0000 0.97730  0.61090  0.83930  Biso   1.000  H
  H108     1.0000 0.52270  0.38910  0.33930  Biso   1.000  H
  C169     1.0000 0.06990  0.02950  0.72190  Biso   1.000  C
  C170     1.0000 0.43010  0.97050  0.22190  Biso   1.000  C
  C171     1.0000 0.93010  0.52950  0.77810  Biso   1.000  C
  C172     1.0000 0.56990  0.47050  0.27810  Biso   1.000  C
  H109     1.0000 0.11010  0.01680  0.68910  Biso   1.000  H
  H110     1.0000 0.38990  0.98320  0.18910  Biso   1.000  H
  H111     1.0000 0.88990  0.51680  0.81090  Biso   1.000  H
  H112     1.0000 0.61010  0.48320  0.31090  Biso   1.000  H
  C173     1.0000 0.06260  0.99210  0.78750  Biso   1.000  C
  C174     1.0000 0.43740  0.00790  0.28750  Biso   1.000  C
  C175     1.0000 0.93740  0.49210  0.71250  Biso   1.000  C
  C176     1.0000 0.56260  0.50790  0.21250  Biso   1.000  C
  H113     1.0000 0.09780  0.95420  0.79890  Biso   1.000  H
  H114     1.0000 0.40220  0.04580  0.29890  Biso   1.000  H
  H115     1.0000 0.90220  0.45420  0.70110  Biso   1.000  H
  H116     1.0000 0.59780  0.54580  0.20110  Biso   1.000  H
  C177     1.0000 0.00310  0.01080  0.83600  Biso   1.000  C
  C178     1.0000 0.49690  0.98920  0.33600  Biso   1.000  C
  C179     1.0000 0.99690  0.51080  0.66400  Biso   1.000  C
  C180     1.0000 0.50310  0.48920  0.16400  Biso   1.000  C
  H117     1.0000 0.99810  0.98560  0.88030  Biso   1.000  H
  H118     1.0000 0.50190  0.01440  0.38030  Biso   1.000  H
  H119     1.0000 0.00190  0.48560  0.61970  Biso   1.000  H
  H120     1.0000 0.49810  0.51440  0.11970  Biso   1.000  H
  C181     1.0000 0.83490  0.17520  0.85460  Biso   1.000  C
  C182     1.0000 0.66510  0.82480  0.35460  Biso   1.000  C
  C183     1.0000 0.16510  0.67520  0.64540  Biso   1.000  C
  C184     1.0000 0.33490  0.32480  0.14540  Biso   1.000  C
  C185     1.0000 0.84870  0.24200  0.88850  Biso   1.000  C
  C186     1.0000 0.65130  0.75800  0.38850  Biso   1.000  C
  C187     1.0000 0.15130  0.74200  0.61150  Biso   1.000  C
  C188     1.0000 0.34870  0.25800  0.11150  Biso   1.000  C
  H121     1.0000 0.88360  0.24470  0.92820  Biso   1.000  H
  H122     1.0000 0.61640  0.75530  0.42820  Biso   1.000  H
  H123     1.0000 0.11640  0.74470  0.57180  Biso   1.000  H
  H124     1.0000 0.38360  0.25530  0.07180  Biso   1.000  H
  C189     1.0000 0.81090  0.30470  0.86380  Biso   1.000  C
  C190     1.0000 0.68910  0.69530  0.36380  Biso   1.000  C
  C191     1.0000 0.18910  0.80470  0.63620  Biso   1.000  C
  C192     1.0000 0.31090  0.19530  0.13620  Biso   1.000  C
  H125     1.0000 0.82020  0.34980  0.88680  Biso   1.000  H
  H126     1.0000 0.67980  0.65020  0.38680  Biso   1.000  H
  H127     1.0000 0.17980  0.84980  0.61320  Biso   1.000  H
  H128     1.0000 0.32020  0.15020  0.11320  Biso   1.000  H
  C193     1.0000 0.75930  0.30070  0.80520  Biso   1.000  C
  C194     1.0000 0.74070  0.69930  0.30520  Biso   1.000  C
  C195     1.0000 0.24070  0.80070  0.69480  Biso   1.000  C
  C196     1.0000 0.25930  0.19930  0.19480  Biso   1.000  C
  H129     1.0000 0.73380  0.34310  0.78850  Biso   1.000  H
  H130     1.0000 0.76620  0.65690  0.28850  Biso   1.000  H
  H131     1.0000 0.26620  0.84310  0.71150  Biso   1.000  H
  H132     1.0000 0.23380  0.15690  0.21150  Biso   1.000  H
  C197     1.0000 0.74560  0.23390  0.77120  Biso   1.000  C
  C198     1.0000 0.75440  0.76610  0.27120  Biso   1.000  C
  C199     1.0000 0.25440  0.73390  0.72880  Biso   1.000  C
  C200     1.0000 0.24560  0.26610  0.22880  Biso   1.000  C
  H133     1.0000 0.71070  0.23120  0.73150  Biso   1.000  H
  H134     1.0000 0.78930  0.76880  0.23150  Biso   1.000  H
  H135     1.0000 0.28930  0.73120  0.76850  Biso   1.000  H
  H136     1.0000 0.21070  0.26880  0.26850  Biso   1.000  H
  C201     1.0000 0.78340  0.17120  0.79590  Biso   1.000  C
  C202     1.0000 0.71660  0.82880  0.29590  Biso   1.000  C
  C203     1.0000 0.21660  0.67120  0.70410  Biso   1.000  C
  C204     1.0000 0.28340  0.32880  0.20410  Biso   1.000  C
  H137     1.0000 0.77410  0.12610  0.77290  Biso   1.000  H
  H138     1.0000 0.72590  0.87390  0.27290  Biso   1.000  H
  H139     1.0000 0.22590  0.62610  0.72710  Biso   1.000  H
  H140     1.0000 0.27410  0.37390  0.22710  Biso   1.000  H
  C205     1.0000 0.81070  0.03420  0.91110  Biso   1.000  C
  C206     1.0000 0.68930  0.96580  0.41110  Biso   1.000  C
  C207     1.0000 0.18930  0.53420  0.58890  Biso   1.000  C
  C208     1.0000 0.31070  0.46580  0.08890  Biso   1.000  C
  C209     1.0000 0.73120  0.05270  0.91200  Biso   1.000  C
  C210     1.0000 0.76880  0.94730  0.41200  Biso   1.000  C
  C211     1.0000 0.26880  0.55270  0.58800  Biso   1.000  C
  C212     1.0000 0.23120  0.44730  0.08800  Biso   1.000  C
  H141     1.0000 0.71480  0.09830  0.89390  Biso   1.000  H
  H142     1.0000 0.78520  0.90170  0.39390  Biso   1.000  H
  H143     1.0000 0.28520  0.59830  0.60610  Biso   1.000  H
  H144     1.0000 0.21480  0.40170  0.10610  Biso   1.000  H
  C213     1.0000 0.67620  0.00380  0.93980  Biso   1.000  C
  C214     1.0000 0.82380  0.99620  0.43980  Biso   1.000  C
  C215     1.0000 0.32380  0.50380  0.56020  Biso   1.000  C
  C216     1.0000 0.17620  0.49620  0.06020  Biso   1.000  C
  H145     1.0000 0.62240  0.01630  0.94040  Biso   1.000  H
  H146     1.0000 0.87760  0.98370  0.44040  Biso   1.000  H
  H147     1.0000 0.37760  0.51630  0.55960  Biso   1.000  H
  H148     1.0000 0.12240  0.48370  0.05960  Biso   1.000  H
  C217     1.0000 0.70050  0.93640  0.96660  Biso   1.000  C
  C218     1.0000 0.79950  0.06360  0.46660  Biso   1.000  C
  C219     1.0000 0.29950  0.43640  0.53340  Biso   1.000  C
  C220     1.0000 0.20050  0.56360  0.03340  Biso   1.000  C
  H149     1.0000 0.66330  0.90330  0.98530  Biso   1.000  H
  H150     1.0000 0.83670  0.09670  0.48530  Biso   1.000  H
  H151     1.0000 0.33670  0.40330  0.51470  Biso   1.000  H
  H152     1.0000 0.16330  0.59670  0.01470  Biso   1.000  H
  C221     1.0000 0.78000  0.91790  0.96560  Biso   1.000  C
  C222     1.0000 0.72000  0.08210  0.46560  Biso   1.000  C
  C223     1.0000 0.22000  0.41790  0.53440  Biso   1.000  C
  C224     1.0000 0.28000  0.58210  0.03440  Biso   1.000  C
  H153     1.0000 0.79650  0.87230  0.98370  Biso   1.000  H
  H154     1.0000 0.70350  0.12770  0.48370  Biso   1.000  H
  H155     1.0000 0.20350  0.37230  0.51630  Biso   1.000  H
  H156     1.0000 0.29650  0.62770  0.01630  Biso   1.000  H
  C225     1.0000 0.83510  0.96680  0.93790  Biso   1.000  C
  C226     1.0000 0.66490  0.03320  0.43790  Biso   1.000  C
  C227     1.0000 0.16490  0.46680  0.56210  Biso   1.000  C
  C228     1.0000 0.33510  0.53320  0.06210  Biso   1.000  C
  H157     1.0000 0.88880  0.95420  0.93730  Biso   1.000  H
  H158     1.0000 0.61120  0.04580  0.43730  Biso   1.000  H
  H159     1.0000 0.11120  0.45420  0.56270  Biso   1.000  H
  H160     1.0000 0.38880  0.54580  0.06270  Biso   1.000  H
  O73      1.0000 0.50660  0.55670  0.99790  Biso   1.000  O
  O74      1.0000 0.99340  0.44330  0.49790  Biso   1.000  O
  O75      1.0000 0.49340  0.05670  0.50210  Biso   1.000  O
  O76      1.0000 0.00660  0.94330  0.00210  Biso   1.000  O
