data_image0
_cell_length_a       15.1299
_cell_length_b       16.553
_cell_length_c       18.1704
_cell_angle_alpha    90
_cell_angle_beta     90
_cell_angle_gamma    90

_symmetry_space_group_name_H-M    "P 1"
_symmetry_int_tables_number       1

loop_
  _symmetry_equiv_pos_as_xyz
  'x, y, z'

loop_
  _atom_site_label
  _atom_site_occupancy
  _atom_site_fract_x
  _atom_site_fract_y
  _atom_site_fract_z
  _atom_site_thermal_displace_type
  _atom_site_B_iso_or_equiv
  _atom_site_type_symbol
  U1       1.0000 0.57531  0.90513  0.09698  Biso   1.000  U
  U2       1.0000 0.42469  0.09487  0.09698  Biso   1.000  U
  U3       1.0000 0.07531  0.59487  0.09698  Biso   1.000  U
  U4       1.0000 0.92469  0.40513  0.09698  Biso   1.000  U
  U5       1.0000 0.07531  0.40513  0.59698  Biso   1.000  U
  U6       1.0000 0.92469  0.59487  0.59698  Biso   1.000  U
  U7       1.0000 0.57531  0.09487  0.59698  Biso   1.000  U
  U8       1.0000 0.42469  0.90513  0.59698  Biso   1.000  U
  C1       1.0000 0.39000  0.81030  0.07150  Biso   1.000  C
  C2       1.0000 0.61000  0.18970  0.07150  Biso   1.000  C
  C3       1.0000 0.89000  0.68970  0.07150  Biso   1.000  C
  C4       1.0000 0.11000  0.31030  0.07150  Biso   1.000  C
  C5       1.0000 0.89000  0.31030  0.57150  Biso   1.000  C
  C6       1.0000 0.11000  0.68970  0.57150  Biso   1.000  C
  C7       1.0000 0.39000  0.18970  0.57150  Biso   1.000  C
  C8       1.0000 0.61000  0.81030  0.57150  Biso   1.000  C
  C9       1.0000 0.35720  0.89900  0.06980  Biso   1.000  C
  C10      1.0000 0.64280  0.10100  0.06980  Biso   1.000  C
  C11      1.0000 0.85720  0.60100  0.06980  Biso   1.000  C
  C12      1.0000 0.14280  0.39900  0.06980  Biso   1.000  C
  C13      1.0000 0.85720  0.39900  0.56980  Biso   1.000  C
  C14      1.0000 0.14280  0.60100  0.56980  Biso   1.000  C
  C15      1.0000 0.35720  0.10100  0.56980  Biso   1.000  C
  C16      1.0000 0.64280  0.89900  0.56980  Biso   1.000  C
  C17      1.0000 0.29700  0.90850  0.13870  Biso   1.000  C
  C18      1.0000 0.70300  0.09150  0.13870  Biso   1.000  C
  C19      1.0000 0.79700  0.59150  0.13870  Biso   1.000  C
  C20      1.0000 0.20300  0.40850  0.13870  Biso   1.000  C
  C21      1.0000 0.79700  0.40850  0.63870  Biso   1.000  C
  C22      1.0000 0.20300  0.59150  0.63870  Biso   1.000  C
  C23      1.0000 0.29700  0.09150  0.63870  Biso   1.000  C
  C24      1.0000 0.70300  0.90850  0.63870  Biso   1.000  C
  H1       1.0000 0.25790  0.86230  0.14220  Biso   1.000  H
  H2       1.0000 0.74210  0.13770  0.14220  Biso   1.000  H
  H3       1.0000 0.75790  0.63770  0.14220  Biso   1.000  H
  H4       1.0000 0.24210  0.36230  0.14220  Biso   1.000  H
  H5       1.0000 0.75790  0.36230  0.64220  Biso   1.000  H
  H6       1.0000 0.24210  0.63770  0.64220  Biso   1.000  H
  H7       1.0000 0.25790  0.13770  0.64220  Biso   1.000  H
  H8       1.0000 0.74210  0.86230  0.64220  Biso   1.000  H
  H9       1.0000 0.33350  0.90960  0.18260  Biso   1.000  H
  H10      1.0000 0.66650  0.09040  0.18260  Biso   1.000  H
  H11      1.0000 0.83350  0.59040  0.18260  Biso   1.000  H
  H12      1.0000 0.16650  0.40960  0.18260  Biso   1.000  H
  H13      1.0000 0.83350  0.40960  0.68260  Biso   1.000  H
  H14      1.0000 0.16650  0.59040  0.68260  Biso   1.000  H
  H15      1.0000 0.33350  0.09040  0.68260  Biso   1.000  H
  H16      1.0000 0.66650  0.90960  0.68260  Biso   1.000  H
  C25      1.0000 0.24120  0.98670  0.13510  Biso   1.000  C
  C26      1.0000 0.75880  0.01330  0.13510  Biso   1.000  C
  C27      1.0000 0.74120  0.51330  0.13510  Biso   1.000  C
  C28      1.0000 0.25880  0.48670  0.13510  Biso   1.000  C
  C29      1.0000 0.74120  0.48670  0.63510  Biso   1.000  C
  C30      1.0000 0.25880  0.51330  0.63510  Biso   1.000  C
  C31      1.0000 0.24120  0.01330  0.63510  Biso   1.000  C
  C32      1.0000 0.75880  0.98670  0.63510  Biso   1.000  C
  C33      1.0000 0.30640  0.91360  0.99700  Biso   1.000  C
  C34      1.0000 0.69360  0.08640  0.99700  Biso   1.000  C
  C35      1.0000 0.80640  0.58640  0.99700  Biso   1.000  C
  C36      1.0000 0.19360  0.41360  0.99700  Biso   1.000  C
  C37      1.0000 0.80640  0.41360  0.49700  Biso   1.000  C
  C38      1.0000 0.19360  0.58640  0.49700  Biso   1.000  C
  C39      1.0000 0.30640  0.08640  0.49700  Biso   1.000  C
  C40      1.0000 0.69360  0.91360  0.49700  Biso   1.000  C
  H17      1.0000 0.26510  0.86960  0.98940  Biso   1.000  H
  H18      1.0000 0.73490  0.13040  0.98940  Biso   1.000  H
  H19      1.0000 0.76510  0.63040  0.98940  Biso   1.000  H
  H20      1.0000 0.23490  0.36960  0.98940  Biso   1.000  H
  H21      1.0000 0.76510  0.36960  0.48940  Biso   1.000  H
  H22      1.0000 0.23490  0.63040  0.48940  Biso   1.000  H
  H23      1.0000 0.26510  0.13040  0.48940  Biso   1.000  H
  H24      1.0000 0.73490  0.86960  0.48940  Biso   1.000  H
  H25      1.0000 0.27240  0.96310  0.00130  Biso   1.000  H
  H26      1.0000 0.72760  0.03690  0.00130  Biso   1.000  H
  H27      1.0000 0.77240  0.53690  0.00130  Biso   1.000  H
  H28      1.0000 0.22760  0.46310  0.00130  Biso   1.000  H
  H29      1.0000 0.77240  0.46310  0.50130  Biso   1.000  H
  H30      1.0000 0.22760  0.53690  0.50130  Biso   1.000  H
  H31      1.0000 0.27240  0.03690  0.50130  Biso   1.000  H
  H32      1.0000 0.72760  0.96310  0.50130  Biso   1.000  H
  C41      1.0000 0.36600  0.91990  0.93080  Biso   1.000  C
  C42      1.0000 0.63400  0.08010  0.93080  Biso   1.000  C
  C43      1.0000 0.86600  0.58010  0.93080  Biso   1.000  C
  C44      1.0000 0.13400  0.41990  0.93080  Biso   1.000  C
  C45      1.0000 0.86600  0.41990  0.43080  Biso   1.000  C
  C46      1.0000 0.13400  0.58010  0.43080  Biso   1.000  C
  C47      1.0000 0.36600  0.08010  0.43080  Biso   1.000  C
  C48      1.0000 0.63400  0.91990  0.43080  Biso   1.000  C
  O1       1.0000 0.60010  0.89600  0.00090  Biso   1.000  O
  O2       1.0000 0.39990  0.10400  0.00090  Biso   1.000  O
  O3       1.0000 0.10010  0.60400  0.00090  Biso   1.000  O
  O4       1.0000 0.89990  0.39600  0.00090  Biso   1.000  O
  O5       1.0000 0.10010  0.39600  0.50090  Biso   1.000  O
  O6       1.0000 0.89990  0.60400  0.50090  Biso   1.000  O
  O7       1.0000 0.60010  0.10400  0.50090  Biso   1.000  O
  O8       1.0000 0.39990  0.89600  0.50090  Biso   1.000  O
  O9       1.0000 0.55600  0.91200  0.19130  Biso   1.000  O
  O10      1.0000 0.44400  0.08800  0.19130  Biso   1.000  O
  O11      1.0000 0.05600  0.58800  0.19130  Biso   1.000  O
  O12      1.0000 0.94400  0.41200  0.19130  Biso   1.000  O
  O13      1.0000 0.05600  0.41200  0.69130  Biso   1.000  O
  O14      1.0000 0.94400  0.58800  0.69130  Biso   1.000  O
  O15      1.0000 0.55600  0.08800  0.69130  Biso   1.000  O
  O16      1.0000 0.44400  0.91200  0.69130  Biso   1.000  O
  O17      1.0000 0.66320  0.78330  0.11400  Biso   1.000  O
  O18      1.0000 0.33680  0.21670  0.11400  Biso   1.000  O
  O19      1.0000 0.16320  0.71670  0.11400  Biso   1.000  O
  O20      1.0000 0.83680  0.28330  0.11400  Biso   1.000  O
  O21      1.0000 0.16320  0.28330  0.61400  Biso   1.000  O
  O22      1.0000 0.83680  0.71670  0.61400  Biso   1.000  O
  O23      1.0000 0.66320  0.21670  0.61400  Biso   1.000  O
  O24      1.0000 0.33680  0.78330  0.61400  Biso   1.000  O
  H33      1.0000 0.72060  0.79660  0.11890  Biso   1.000  H
  H34      1.0000 0.27940  0.20340  0.11890  Biso   1.000  H
  H35      1.0000 0.22060  0.70340  0.11890  Biso   1.000  H
  H36      1.0000 0.77940  0.29660  0.11890  Biso   1.000  H
  H37      1.0000 0.22060  0.29660  0.61890  Biso   1.000  H
  H38      1.0000 0.77940  0.70340  0.61890  Biso   1.000  H
  H39      1.0000 0.72060  0.20340  0.61890  Biso   1.000  H
  H40      1.0000 0.27940  0.79660  0.61890  Biso   1.000  H
  H41      1.0000 0.65650  0.75070  0.07480  Biso   1.000  H
  H42      1.0000 0.34350  0.24930  0.07480  Biso   1.000  H
  H43      1.0000 0.15650  0.74930  0.07480  Biso   1.000  H
  H44      1.0000 0.84350  0.25070  0.07480  Biso   1.000  H
  H45      1.0000 0.15650  0.25070  0.57480  Biso   1.000  H
  H46      1.0000 0.84350  0.74930  0.57480  Biso   1.000  H
  H47      1.0000 0.65650  0.24930  0.57480  Biso   1.000  H
  H48      1.0000 0.34350  0.75070  0.57480  Biso   1.000  H
  O25      1.0000 0.42980  0.95330  0.07750  Biso   1.000  O
  O26      1.0000 0.57020  0.04670  0.07750  Biso   1.000  O
  O27      1.0000 0.92980  0.54670  0.07750  Biso   1.000  O
  O28      1.0000 0.07020  0.45330  0.07750  Biso   1.000  O
  O29      1.0000 0.92980  0.45330  0.57750  Biso   1.000  O
  O30      1.0000 0.07020  0.54670  0.57750  Biso   1.000  O
  O31      1.0000 0.42980  0.04670  0.57750  Biso   1.000  O
  O32      1.0000 0.57020  0.95330  0.57750  Biso   1.000  O
  O33      1.0000 0.47180  0.80140  0.08600  Biso   1.000  O
  O34      1.0000 0.52820  0.19860  0.08600  Biso   1.000  O
  O35      1.0000 0.97180  0.69860  0.08600  Biso   1.000  O
  O36      1.0000 0.02820  0.30140  0.08600  Biso   1.000  O
  O37      1.0000 0.97180  0.30140  0.58600  Biso   1.000  O
  O38      1.0000 0.02820  0.69860  0.58600  Biso   1.000  O
  O39      1.0000 0.47180  0.19860  0.58600  Biso   1.000  O
  O40      1.0000 0.52820  0.80140  0.58600  Biso   1.000  O
  O41      1.0000 0.33650  0.75530  0.06310  Biso   1.000  O
  O42      1.0000 0.66350  0.24470  0.06310  Biso   1.000  O
  O43      1.0000 0.83650  0.74470  0.06310  Biso   1.000  O
  O44      1.0000 0.16350  0.25530  0.06310  Biso   1.000  O
  O45      1.0000 0.83650  0.25530  0.56310  Biso   1.000  O
  O46      1.0000 0.16350  0.74470  0.56310  Biso   1.000  O
  O47      1.0000 0.33650  0.24470  0.56310  Biso   1.000  O
  O48      1.0000 0.66350  0.75530  0.56310  Biso   1.000  O
  O49      1.0000 0.16190  0.98330  0.14720  Biso   1.000  O
  O50      1.0000 0.83810  0.01670  0.14720  Biso   1.000  O
  O51      1.0000 0.66190  0.51670  0.14720  Biso   1.000  O
  O52      1.0000 0.33810  0.48330  0.14720  Biso   1.000  O
  O53      1.0000 0.66190  0.48330  0.64720  Biso   1.000  O
  O54      1.0000 0.33810  0.51670  0.64720  Biso   1.000  O
  O55      1.0000 0.16190  0.01670  0.64720  Biso   1.000  O
  O56      1.0000 0.83810  0.98330  0.64720  Biso   1.000  O
  O57      1.0000 0.28040  0.05210  0.11890  Biso   1.000  O
  O58      1.0000 0.71960  0.94790  0.11890  Biso   1.000  O
  O59      1.0000 0.78040  0.44790  0.11890  Biso   1.000  O
  O60      1.0000 0.21960  0.55210  0.11890  Biso   1.000  O
  O61      1.0000 0.78040  0.55210  0.61890  Biso   1.000  O
  O62      1.0000 0.21960  0.44790  0.61890  Biso   1.000  O
  O63      1.0000 0.28040  0.94790  0.61890  Biso   1.000  O
  O64      1.0000 0.71960  0.05210  0.61890  Biso   1.000  O
  O65      1.0000 0.42490  0.86250  0.92620  Biso   1.000  O
  O66      1.0000 0.57510  0.13750  0.92620  Biso   1.000  O
  O67      1.0000 0.92490  0.63750  0.92620  Biso   1.000  O
  O68      1.0000 0.07510  0.36250  0.92620  Biso   1.000  O
  O69      1.0000 0.92490  0.36250  0.42620  Biso   1.000  O
  O70      1.0000 0.07510  0.63750  0.42620  Biso   1.000  O
  O71      1.0000 0.42490  0.13750  0.42620  Biso   1.000  O
  O72      1.0000 0.57510  0.86250  0.42620  Biso   1.000  O
  H49      1.0000 0.40920  0.82390  0.95130  Biso   1.000  H
  H50      1.0000 0.59080  0.17610  0.95130  Biso   1.000  H
  H51      1.0000 0.90920  0.67610  0.95130  Biso   1.000  H
  H52      1.0000 0.09080  0.32390  0.95130  Biso   1.000  H
  H53      1.0000 0.90920  0.32390  0.45130  Biso   1.000  H
  H54      1.0000 0.09080  0.67610  0.45130  Biso   1.000  H
  H55      1.0000 0.40920  0.17610  0.45130  Biso   1.000  H
  H56      1.0000 0.59080  0.82390  0.45130  Biso   1.000  H
  O73      1.0000 0.35750  0.97250  0.88480  Biso   1.000  O
  O74      1.0000 0.64250  0.02750  0.88480  Biso   1.000  O
  O75      1.0000 0.85750  0.52750  0.88480  Biso   1.000  O
  O76      1.0000 0.14250  0.47250  0.88480  Biso   1.000  O
  O77      1.0000 0.85750  0.47250  0.38480  Biso   1.000  O
  O78      1.0000 0.14250  0.52750  0.38480  Biso   1.000  O
  O79      1.0000 0.35750  0.02750  0.38480  Biso   1.000  O
  O80      1.0000 0.64250  0.97250  0.38480  Biso   1.000  O
  Cu1      1.0000 0.50000  0.50000  0.34780  Biso   1.000  Cu
  Cu2      1.0000 0.00000  0.00000  0.34780  Biso   1.000  Cu
  Cu3      1.0000 0.00000  0.00000  0.84780  Biso   1.000  Cu
  Cu4      1.0000 0.50000  0.50000  0.84780  Biso   1.000  Cu
  C49      1.0000 0.84500  0.90530  0.29600  Biso   1.000  C
  C50      1.0000 0.15500  0.09470  0.29600  Biso   1.000  C
  C51      1.0000 0.34500  0.59470  0.29600  Biso   1.000  C
  C52      1.0000 0.65500  0.40530  0.29600  Biso   1.000  C
  C53      1.0000 0.34500  0.40530  0.79600  Biso   1.000  C
  C54      1.0000 0.65500  0.59470  0.79600  Biso   1.000  C
  C55      1.0000 0.84500  0.09470  0.79600  Biso   1.000  C
  C56      1.0000 0.15500  0.90530  0.79600  Biso   1.000  C
  H57      1.0000 0.84060  0.94700  0.26230  Biso   1.000  H
  H58      1.0000 0.15940  0.05300  0.26230  Biso   1.000  H
  H59      1.0000 0.34060  0.55300  0.26230  Biso   1.000  H
  H60      1.0000 0.65940  0.44700  0.26230  Biso   1.000  H
  H61      1.0000 0.34060  0.44700  0.76230  Biso   1.000  H
  H62      1.0000 0.65940  0.55300  0.76230  Biso   1.000  H
  H63      1.0000 0.84060  0.05300  0.76230  Biso   1.000  H
  H64      1.0000 0.15940  0.94700  0.76230  Biso   1.000  H
  C57      1.0000 0.91100  0.84700  0.39500  Biso   1.000  C
  C58      1.0000 0.08900  0.15300  0.39500  Biso   1.000  C
  C59      1.0000 0.41100  0.65300  0.39500  Biso   1.000  C
  C60      1.0000 0.58900  0.34700  0.39500  Biso   1.000  C
  C61      1.0000 0.41100  0.34700  0.89500  Biso   1.000  C
  C62      1.0000 0.58900  0.65300  0.89500  Biso   1.000  C
  C63      1.0000 0.91100  0.15300  0.89500  Biso   1.000  C
  C64      1.0000 0.08900  0.84700  0.89500  Biso   1.000  C
  H65      1.0000 0.95400  0.84880  0.43240  Biso   1.000  H
  H66      1.0000 0.04600  0.15120  0.43240  Biso   1.000  H
  H67      1.0000 0.45400  0.65120  0.43240  Biso   1.000  H
  H68      1.0000 0.54600  0.34880  0.43240  Biso   1.000  H
  H69      1.0000 0.45400  0.34880  0.93240  Biso   1.000  H
  H70      1.0000 0.54600  0.65120  0.93240  Biso   1.000  H
  H71      1.0000 0.95400  0.15120  0.93240  Biso   1.000  H
  H72      1.0000 0.04600  0.84880  0.93240  Biso   1.000  H
  C65      1.0000 0.66700  0.58600  0.38500  Biso   1.000  C
  C66      1.0000 0.33300  0.41400  0.38500  Biso   1.000  C
  C67      1.0000 0.16700  0.91400  0.38500  Biso   1.000  C
  C68      1.0000 0.83300  0.08600  0.38500  Biso   1.000  C
  C69      1.0000 0.16700  0.08600  0.88500  Biso   1.000  C
  C70      1.0000 0.83300  0.91400  0.88500  Biso   1.000  C
  C71      1.0000 0.66700  0.41400  0.88500  Biso   1.000  C
  C72      1.0000 0.33300  0.58600  0.88500  Biso   1.000  C
  H73      1.0000 0.67270  0.54250  0.41780  Biso   1.000  H
  H74      1.0000 0.32730  0.45750  0.41780  Biso   1.000  H
  H75      1.0000 0.17270  0.95750  0.41780  Biso   1.000  H
  H76      1.0000 0.82730  0.04250  0.41780  Biso   1.000  H
  H77      1.0000 0.17270  0.04250  0.91780  Biso   1.000  H
  H78      1.0000 0.82730  0.95750  0.91780  Biso   1.000  H
  H79      1.0000 0.67270  0.45750  0.91780  Biso   1.000  H
  H80      1.0000 0.32730  0.54250  0.91780  Biso   1.000  H
  C73      1.0000 0.73100  0.64400  0.38800  Biso   1.000  C
  C74      1.0000 0.26900  0.35600  0.38800  Biso   1.000  C
  C75      1.0000 0.23100  0.85600  0.38800  Biso   1.000  C
  C76      1.0000 0.76900  0.14400  0.38800  Biso   1.000  C
  C77      1.0000 0.23100  0.14400  0.88800  Biso   1.000  C
  C78      1.0000 0.76900  0.85600  0.88800  Biso   1.000  C
  C79      1.0000 0.73100  0.35600  0.88800  Biso   1.000  C
  C80      1.0000 0.26900  0.64400  0.88800  Biso   1.000  C
  H81      1.0000 0.77880  0.63890  0.41980  Biso   1.000  H
  H82      1.0000 0.22120  0.36110  0.41980  Biso   1.000  H
  H83      1.0000 0.27880  0.86110  0.41980  Biso   1.000  H
  H84      1.0000 0.72120  0.13890  0.41980  Biso   1.000  H
  H85      1.0000 0.27880  0.13890  0.91980  Biso   1.000  H
  H86      1.0000 0.72120  0.86110  0.91980  Biso   1.000  H
  H87      1.0000 0.77880  0.36110  0.91980  Biso   1.000  H
  H88      1.0000 0.22120  0.63890  0.91980  Biso   1.000  H
  C81      1.0000 0.72280  0.71100  0.34300  Biso   1.000  C
  C82      1.0000 0.27720  0.28900  0.34300  Biso   1.000  C
  C83      1.0000 0.22280  0.78900  0.34300  Biso   1.000  C
  C84      1.0000 0.77720  0.21100  0.34300  Biso   1.000  C
  C85      1.0000 0.22280  0.21100  0.84300  Biso   1.000  C
  C86      1.0000 0.77720  0.78900  0.84300  Biso   1.000  C
  C87      1.0000 0.72280  0.28900  0.84300  Biso   1.000  C
  C88      1.0000 0.27720  0.71100  0.84300  Biso   1.000  C
  C89      1.0000 0.65100  0.71200  0.29400  Biso   1.000  C
  C90      1.0000 0.34900  0.28800  0.29400  Biso   1.000  C
  C91      1.0000 0.15100  0.78800  0.29400  Biso   1.000  C
  C92      1.0000 0.84900  0.21200  0.29400  Biso   1.000  C
  C93      1.0000 0.15100  0.21200  0.79400  Biso   1.000  C
  C94      1.0000 0.84900  0.78800  0.79400  Biso   1.000  C
  C95      1.0000 0.65100  0.28800  0.79400  Biso   1.000  C
  C96      1.0000 0.34900  0.71200  0.79400  Biso   1.000  C
  H89      1.0000 0.64410  0.75420  0.26100  Biso   1.000  H
  H90      1.0000 0.35590  0.24580  0.26100  Biso   1.000  H
  H91      1.0000 0.14410  0.74580  0.26100  Biso   1.000  H
  H92      1.0000 0.85590  0.25420  0.26100  Biso   1.000  H
  H93      1.0000 0.14410  0.25420  0.76100  Biso   1.000  H
  H94      1.0000 0.85590  0.74580  0.76100  Biso   1.000  H
  H95      1.0000 0.64410  0.24580  0.76100  Biso   1.000  H
  H96      1.0000 0.35590  0.75420  0.76100  Biso   1.000  H
  C97      1.0000 0.59000  0.64900  0.29500  Biso   1.000  C
  C98      1.0000 0.41000  0.35100  0.29500  Biso   1.000  C
  C99      1.0000 0.09000  0.85100  0.29500  Biso   1.000  C
  C100     1.0000 0.91000  0.14900  0.29500  Biso   1.000  C
  C101     1.0000 0.09000  0.14900  0.79500  Biso   1.000  C
  C102     1.0000 0.91000  0.85100  0.79500  Biso   1.000  C
  C103     1.0000 0.59000  0.35100  0.79500  Biso   1.000  C
  C104     1.0000 0.41000  0.64900  0.79500  Biso   1.000  C
  H97      1.0000 0.54200  0.65090  0.26390  Biso   1.000  H
  H98      1.0000 0.45800  0.34910  0.26390  Biso   1.000  H
  H99      1.0000 0.04200  0.84910  0.26390  Biso   1.000  H
  H100     1.0000 0.95800  0.15090  0.26390  Biso   1.000  H
  H101     1.0000 0.04200  0.15090  0.76390  Biso   1.000  H
  H102     1.0000 0.95800  0.84910  0.76390  Biso   1.000  H
  H103     1.0000 0.54200  0.34910  0.76390  Biso   1.000  H
  H104     1.0000 0.45800  0.65090  0.76390  Biso   1.000  H
  C105     1.0000 0.78400  0.84100  0.29300  Biso   1.000  C
  C106     1.0000 0.21600  0.15900  0.29300  Biso   1.000  C
  C107     1.0000 0.28400  0.65900  0.29300  Biso   1.000  C
  C108     1.0000 0.71600  0.34100  0.29300  Biso   1.000  C
  C109     1.0000 0.28400  0.34100  0.79300  Biso   1.000  C
  C110     1.0000 0.71600  0.65900  0.79300  Biso   1.000  C
  C111     1.0000 0.78400  0.15900  0.79300  Biso   1.000  C
  C112     1.0000 0.21600  0.84100  0.79300  Biso   1.000  C
  H105     1.0000 0.74110  0.83990  0.25710  Biso   1.000  H
  H106     1.0000 0.25890  0.16010  0.25710  Biso   1.000  H
  H107     1.0000 0.24110  0.66010  0.25710  Biso   1.000  H
  H108     1.0000 0.75890  0.33990  0.25710  Biso   1.000  H
  H109     1.0000 0.24110  0.33990  0.75710  Biso   1.000  H
  H110     1.0000 0.75890  0.66010  0.75710  Biso   1.000  H
  H111     1.0000 0.74110  0.16010  0.75710  Biso   1.000  H
  H112     1.0000 0.25890  0.83990  0.75710  Biso   1.000  H
  C113     1.0000 0.78800  0.77870  0.34300  Biso   1.000  C
  C114     1.0000 0.21200  0.22130  0.34300  Biso   1.000  C
  C115     1.0000 0.28800  0.72130  0.34300  Biso   1.000  C
  C116     1.0000 0.71200  0.27870  0.34300  Biso   1.000  C
  C117     1.0000 0.28800  0.27870  0.84300  Biso   1.000  C
  C118     1.0000 0.71200  0.72130  0.84300  Biso   1.000  C
  C119     1.0000 0.78800  0.22130  0.84300  Biso   1.000  C
  C120     1.0000 0.21200  0.77870  0.84300  Biso   1.000  C
  C121     1.0000 0.85400  0.78300  0.39500  Biso   1.000  C
  C122     1.0000 0.14600  0.21700  0.39500  Biso   1.000  C
  C123     1.0000 0.35400  0.71700  0.39500  Biso   1.000  C
  C124     1.0000 0.64600  0.28300  0.39500  Biso   1.000  C
  C125     1.0000 0.35400  0.28300  0.89500  Biso   1.000  C
  C126     1.0000 0.64600  0.71700  0.89500  Biso   1.000  C
  C127     1.0000 0.85400  0.21700  0.89500  Biso   1.000  C
  C128     1.0000 0.14600  0.78300  0.89500  Biso   1.000  C
  H113     1.0000 0.86060  0.74190  0.42940  Biso   1.000  H
  H114     1.0000 0.13940  0.25810  0.42940  Biso   1.000  H
  H115     1.0000 0.36060  0.75810  0.42940  Biso   1.000  H
  H116     1.0000 0.63940  0.24190  0.42940  Biso   1.000  H
  H117     1.0000 0.36060  0.24190  0.92940  Biso   1.000  H
  H118     1.0000 0.63940  0.75810  0.92940  Biso   1.000  H
  H119     1.0000 0.86060  0.25810  0.92940  Biso   1.000  H
  H120     1.0000 0.13940  0.74190  0.92940  Biso   1.000  H
  N1       1.0000 0.60000  0.58650  0.34100  Biso   1.000  N
  N2       1.0000 0.40000  0.41350  0.34100  Biso   1.000  N
  N3       1.0000 0.10000  0.91350  0.34100  Biso   1.000  N
  N4       1.0000 0.90000  0.08650  0.34100  Biso   1.000  N
  N5       1.0000 0.10000  0.08650  0.84100  Biso   1.000  N
  N6       1.0000 0.90000  0.91350  0.84100  Biso   1.000  N
  N7       1.0000 0.60000  0.41350  0.84100  Biso   1.000  N
  N8       1.0000 0.40000  0.58650  0.84100  Biso   1.000  N
  N9       1.0000 0.91000  0.90830  0.34740  Biso   1.000  N
  N10      1.0000 0.09000  0.09170  0.34740  Biso   1.000  N
  N11      1.0000 0.41000  0.59170  0.34740  Biso   1.000  N
  N12      1.0000 0.59000  0.40830  0.34740  Biso   1.000  N
  N13      1.0000 0.41000  0.40830  0.84740  Biso   1.000  N
  N14      1.0000 0.59000  0.59170  0.84740  Biso   1.000  N
  N15      1.0000 0.91000  0.09170  0.84740  Biso   1.000  N
  N16      1.0000 0.09000  0.90830  0.84740  Biso   1.000  N
  O81      1.0000 0.50000  0.50000  0.21500  Biso   1.000  O
  O82      1.0000 0.00000  0.00000  0.21500  Biso   1.000  O
  O83      1.0000 0.00000  0.00000  0.71500  Biso   1.000  O
  O84      1.0000 0.50000  0.50000  0.71500  Biso   1.000  O
  H121     1.0000 0.47570  0.45010  0.19710  Biso   1.000  H
  H122     1.0000 0.52430  0.54990  0.19710  Biso   1.000  H
  H123     1.0000 0.97570  0.04990  0.19710  Biso   1.000  H
  H124     1.0000 0.02430  0.95010  0.19710  Biso   1.000  H
  H125     1.0000 0.97570  0.95010  0.69710  Biso   1.000  H
  H126     1.0000 0.02430  0.04990  0.69710  Biso   1.000  H
  H127     1.0000 0.47570  0.54990  0.69710  Biso   1.000  H
  H128     1.0000 0.52430  0.45010  0.69710  Biso   1.000  H
  O85      1.0000 0.50000  0.50000  0.47300  Biso   1.000  O
  O86      1.0000 0.00000  0.00000  0.47300  Biso   1.000  O
  O87      1.0000 0.00000  0.00000  0.97300  Biso   1.000  O
  O88      1.0000 0.50000  0.50000  0.97300  Biso   1.000  O
  H129     1.0000 0.50580  0.44560  0.49030  Biso   1.000  H
  H130     1.0000 0.49420  0.55440  0.49030  Biso   1.000  H
  H131     1.0000 0.00580  0.05440  0.49030  Biso   1.000  H
  H132     1.0000 0.99420  0.94560  0.49030  Biso   1.000  H
  H133     1.0000 0.00580  0.94560  0.99030  Biso   1.000  H
  H134     1.0000 0.99420  0.05440  0.99030  Biso   1.000  H
  H135     1.0000 0.50580  0.55440  0.99030  Biso   1.000  H
  H136     1.0000 0.49420  0.44560  0.99030  Biso   1.000  H
  O89      1.0000 0.41650  0.34920  0.09600  Biso   1.000  O
  O90      1.0000 0.58350  0.65080  0.09600  Biso   1.000  O
  O91      1.0000 0.91650  0.15080  0.09600  Biso   1.000  O
  O92      1.0000 0.08350  0.84920  0.09600  Biso   1.000  O
  O93      1.0000 0.91650  0.84920  0.59600  Biso   1.000  O
  O94      1.0000 0.08350  0.15080  0.59600  Biso   1.000  O
  O95      1.0000 0.41650  0.65080  0.59600  Biso   1.000  O
  O96      1.0000 0.58350  0.34920  0.59600  Biso   1.000  O
  H137     1.0000 0.43020  0.33630  0.14030  Biso   1.000  H
  H138     1.0000 0.56980  0.66370  0.14030  Biso   1.000  H
  H139     1.0000 0.93020  0.16370  0.14030  Biso   1.000  H
  H140     1.0000 0.06980  0.83630  0.14030  Biso   1.000  H
  H141     1.0000 0.93020  0.83630  0.64030  Biso   1.000  H
  H142     1.0000 0.06980  0.16370  0.64030  Biso   1.000  H
  H143     1.0000 0.43020  0.66370  0.64030  Biso   1.000  H
  H144     1.0000 0.56980  0.33630  0.64030  Biso   1.000  H
  H145     1.0000 0.40680  0.39970  0.09400  Biso   1.000  H
  H146     1.0000 0.59320  0.60030  0.09400  Biso   1.000  H
  H147     1.0000 0.90680  0.10030  0.09400  Biso   1.000  H
  H148     1.0000 0.09320  0.89970  0.09400  Biso   1.000  H
  H149     1.0000 0.90680  0.89970  0.59400  Biso   1.000  H
  H150     1.0000 0.09320  0.10030  0.59400  Biso   1.000  H
  H151     1.0000 0.40680  0.60030  0.59400  Biso   1.000  H
  H152     1.0000 0.59320  0.39970  0.59400  Biso   1.000  H
  O97      1.0000 0.08810  0.11010  0.06370  Biso   1.000  O
  O98      1.0000 0.91190  0.88990  0.06370  Biso   1.000  O
  O99      1.0000 0.58810  0.38990  0.06370  Biso   1.000  O
  O100     1.0000 0.41190  0.61010  0.06370  Biso   1.000  O
  O101     1.0000 0.58810  0.61010  0.56370  Biso   1.000  O
  O102     1.0000 0.41190  0.38990  0.56370  Biso   1.000  O
  O103     1.0000 0.08810  0.88990  0.56370  Biso   1.000  O
  O104     1.0000 0.91190  0.11010  0.56370  Biso   1.000  O
  H153     1.0000 0.05850  0.08200  0.09420  Biso   1.000  H
  H154     1.0000 0.94150  0.91800  0.09420  Biso   1.000  H
  H155     1.0000 0.55850  0.41800  0.09420  Biso   1.000  H
  H156     1.0000 0.44150  0.58200  0.09420  Biso   1.000  H
  H157     1.0000 0.55850  0.58200  0.59420  Biso   1.000  H
  H158     1.0000 0.44150  0.41800  0.59420  Biso   1.000  H
  H159     1.0000 0.05850  0.91800  0.59420  Biso   1.000  H
  H160     1.0000 0.94150  0.08200  0.59420  Biso   1.000  H
  H161     1.0000 0.11900  0.07900  0.03680  Biso   1.000  H
  H162     1.0000 0.88100  0.92100  0.03680  Biso   1.000  H
  H163     1.0000 0.61900  0.42100  0.03680  Biso   1.000  H
  H164     1.0000 0.38100  0.57900  0.03680  Biso   1.000  H
  H165     1.0000 0.61900  0.57900  0.53680  Biso   1.000  H
  H166     1.0000 0.38100  0.42100  0.53680  Biso   1.000  H
  H167     1.0000 0.11900  0.92100  0.53680  Biso   1.000  H
  H168     1.0000 0.88100  0.07900  0.53680  Biso   1.000  H
  O105     1.0000 0.95460  0.39440  0.82320  Biso   1.000  O
  O106     1.0000 0.04540  0.60560  0.82320  Biso   1.000  O
  O107     1.0000 0.45460  0.10560  0.82320  Biso   1.000  O
  O108     1.0000 0.54540  0.89440  0.82320  Biso   1.000  O
  O109     1.0000 0.45460  0.89440  0.32320  Biso   1.000  O
  O110     1.0000 0.54540  0.10560  0.32320  Biso   1.000  O
  O111     1.0000 0.95460  0.60560  0.32320  Biso   1.000  O
  O112     1.0000 0.04540  0.39440  0.32320  Biso   1.000  O
  H169     1.0000 0.92650  0.40090  0.86320  Biso   1.000  H
  H170     1.0000 0.07350  0.59910  0.86320  Biso   1.000  H
  H171     1.0000 0.42650  0.09910  0.86320  Biso   1.000  H
  H172     1.0000 0.57350  0.90090  0.86320  Biso   1.000  H
  H173     1.0000 0.42650  0.90090  0.36320  Biso   1.000  H
  H174     1.0000 0.57350  0.09910  0.36320  Biso   1.000  H
  H175     1.0000 0.92650  0.59910  0.36320  Biso   1.000  H
  H176     1.0000 0.07350  0.40090  0.36320  Biso   1.000  H
  H177     1.0000 0.99720  0.42790  0.82120  Biso   1.000  H
  H178     1.0000 0.00280  0.57210  0.82120  Biso   1.000  H
  H179     1.0000 0.49720  0.07210  0.82120  Biso   1.000  H
  H180     1.0000 0.50280  0.92790  0.82120  Biso   1.000  H
  H181     1.0000 0.49720  0.92790  0.32120  Biso   1.000  H
  H182     1.0000 0.50280  0.07210  0.32120  Biso   1.000  H
  H183     1.0000 0.99720  0.57210  0.32120  Biso   1.000  H
  H184     1.0000 0.00280  0.42790  0.32120  Biso   1.000  H
