data_image0
_cell_length_a       11.5818
_cell_length_b       16.2364
_cell_length_c       16.2417
_cell_angle_alpha    90
_cell_angle_beta     110.392
_cell_angle_gamma    90

_symmetry_space_group_name_H-M    "P 1"
_symmetry_int_tables_number       1

loop_
  _symmetry_equiv_pos_as_xyz
  'x, y, z'

loop_
  _atom_site_label
  _atom_site_occupancy
  _atom_site_fract_x
  _atom_site_fract_y
  _atom_site_fract_z
  _atom_site_thermal_displace_type
  _atom_site_B_iso_or_equiv
  _atom_site_type_symbol
  Cu1      1.0000 0.47107  0.61984  0.84686  Biso   1.000  Cu
  Cu2      1.0000 0.02893  0.11984  0.65314  Biso   1.000  Cu
  Cu3      1.0000 0.52893  0.38016  0.15314  Biso   1.000  Cu
  Cu4      1.0000 0.97107  0.88016  0.34686  Biso   1.000  Cu
  Cu5      1.0000 0.35346  0.34814  0.71560  Biso   1.000  Cu
  Cu6      1.0000 0.14654  0.84814  0.78440  Biso   1.000  Cu
  Cu7      1.0000 0.64654  0.65186  0.28440  Biso   1.000  Cu
  Cu8      1.0000 0.85346  0.15186  0.21560  Biso   1.000  Cu
  Cu9      1.0000 0.23868  0.69619  0.70612  Biso   1.000  Cu
  Cu10     1.0000 0.26132  0.19619  0.79388  Biso   1.000  Cu
  Cu11     1.0000 0.76132  0.30381  0.29388  Biso   1.000  Cu
  Cu12     1.0000 0.73868  0.80381  0.20612  Biso   1.000  Cu
  Cl1      1.0000 0.14827  0.63488  0.57729  Biso   1.000  Cl
  Cl2      1.0000 0.35173  0.13488  0.92271  Biso   1.000  Cl
  Cl3      1.0000 0.85173  0.36512  0.42271  Biso   1.000  Cl
  Cl4      1.0000 0.64827  0.86512  0.07729  Biso   1.000  Cl
  Cl5      1.0000 0.46447  0.46423  0.83029  Biso   1.000  Cl
  Cl6      1.0000 0.03553  0.96423  0.66971  Biso   1.000  Cl
  Cl7      1.0000 0.53553  0.53577  0.16971  Biso   1.000  Cl
  Cl8      1.0000 0.96447  0.03577  0.33029  Biso   1.000  Cl
  C1       1.0000 0.24350  0.61824  0.88354  Biso   1.000  C
  C2       1.0000 0.25650  0.11824  0.61646  Biso   1.000  C
  C3       1.0000 0.75650  0.38176  0.11646  Biso   1.000  C
  C4       1.0000 0.74350  0.88176  0.38354  Biso   1.000  C
  C5       1.0000 0.12950  0.57902  0.85600  Biso   1.000  C
  C6       1.0000 0.37050  0.07902  0.64400  Biso   1.000  C
  C7       1.0000 0.87050  0.42098  0.14400  Biso   1.000  C
  C8       1.0000 0.62950  0.92098  0.35600  Biso   1.000  C
  H1       1.0000 0.09410  0.56180  0.79800  Biso   1.000  H
  H2       1.0000 0.40590  0.06180  0.70200  Biso   1.000  H
  H3       1.0000 0.90590  0.43820  0.20200  Biso   1.000  H
  H4       1.0000 0.59410  0.93820  0.29800  Biso   1.000  H
  C9       1.0000 0.06920  0.56560  0.91400  Biso   1.000  C
  C10      1.0000 0.43080  0.06560  0.58600  Biso   1.000  C
  C11      1.0000 0.93080  0.43440  0.08600  Biso   1.000  C
  C12      1.0000 0.56920  0.93440  0.41400  Biso   1.000  C
  H5       1.0000 0.99320  0.53910  0.89490  Biso   1.000  H
  H6       1.0000 0.50680  0.03910  0.60510  Biso   1.000  H
  H7       1.0000 0.00680  0.46090  0.10510  Biso   1.000  H
  H8       1.0000 0.49320  0.96090  0.39490  Biso   1.000  H
  C13      1.0000 0.11960  0.59080  0.00030  Biso   1.000  C
  C14      1.0000 0.38040  0.09080  0.49970  Biso   1.000  C
  C15      1.0000 0.88040  0.40920  0.99970  Biso   1.000  C
  C16      1.0000 0.61960  0.90920  0.50030  Biso   1.000  C
  H9       1.0000 0.07640  0.58390  0.03860  Biso   1.000  H
  H10      1.0000 0.42360  0.08390  0.46140  Biso   1.000  H
  H11      1.0000 0.92360  0.41610  0.96140  Biso   1.000  H
  H12      1.0000 0.57640  0.91610  0.53860  Biso   1.000  H
  C17      1.0000 0.23460  0.62620  0.02890  Biso   1.000  C
  C18      1.0000 0.26540  0.12620  0.47110  Biso   1.000  C
  C19      1.0000 0.76540  0.37380  0.97110  Biso   1.000  C
  C20      1.0000 0.73460  0.87380  0.52890  Biso   1.000  C
  H13      1.0000 0.27060  0.64120  0.08750  Biso   1.000  H
  H14      1.0000 0.22940  0.14120  0.41250  Biso   1.000  H
  H15      1.0000 0.72940  0.35880  0.91250  Biso   1.000  H
  H16      1.0000 0.77060  0.85880  0.58750  Biso   1.000  H
  C21      1.0000 0.29790  0.63995  0.97155  Biso   1.000  C
  C22      1.0000 0.20210  0.13995  0.52845  Biso   1.000  C
  C23      1.0000 0.70210  0.36005  0.02845  Biso   1.000  C
  C24      1.0000 0.79790  0.86005  0.47155  Biso   1.000  C
  C25      1.0000 0.42450  0.67680  0.00260  Biso   1.000  C
  C26      1.0000 0.07550  0.17680  0.49740  Biso   1.000  C
  C27      1.0000 0.57550  0.32320  0.99740  Biso   1.000  C
  C28      1.0000 0.92450  0.82320  0.50260  Biso   1.000  C
  H17      1.0000 0.42190  0.73090  0.97660  Biso   1.000  H
  H18      1.0000 0.07810  0.23090  0.52340  Biso   1.000  H
  H19      1.0000 0.57810  0.26910  0.02340  Biso   1.000  H
  H20      1.0000 0.92190  0.76910  0.47660  Biso   1.000  H
  H21      1.0000 0.45350  0.68320  0.06590  Biso   1.000  H
  H22      1.0000 0.04650  0.18320  0.43410  Biso   1.000  H
  H23      1.0000 0.54650  0.31680  0.93410  Biso   1.000  H
  H24      1.0000 0.95350  0.81680  0.56590  Biso   1.000  H
  C29      1.0000 0.64120  0.64620  0.02040  Biso   1.000  C
  C30      1.0000 0.85880  0.14620  0.47960  Biso   1.000  C
  C31      1.0000 0.35880  0.35380  0.97960  Biso   1.000  C
  C32      1.0000 0.14120  0.85380  0.52040  Biso   1.000  C
  H25      1.0000 0.67250  0.62500  0.07990  Biso   1.000  H
  H26      1.0000 0.82750  0.12500  0.42010  Biso   1.000  H
  H27      1.0000 0.32750  0.37500  0.92010  Biso   1.000  H
  H28      1.0000 0.17250  0.87500  0.57990  Biso   1.000  H
  H29      1.0000 0.64990  0.70560  0.02270  Biso   1.000  H
  H30      1.0000 0.85010  0.20560  0.47730  Biso   1.000  H
  H31      1.0000 0.35010  0.29440  0.97730  Biso   1.000  H
  H32      1.0000 0.14990  0.79440  0.52270  Biso   1.000  H
  C33      1.0000 0.71160  0.60970  0.96720  Biso   1.000  C
  C34      1.0000 0.78840  0.10970  0.53280  Biso   1.000  C
  C35      1.0000 0.28840  0.39030  0.03280  Biso   1.000  C
  C36      1.0000 0.21160  0.89030  0.46720  Biso   1.000  C
  H33      1.0000 0.79660  0.62790  0.99040  Biso   1.000  H
  H34      1.0000 0.70340  0.12790  0.50960  Biso   1.000  H
  H35      1.0000 0.20340  0.37210  0.00960  Biso   1.000  H
  H36      1.0000 0.29660  0.87210  0.49040  Biso   1.000  H
  H37      1.0000 0.71040  0.55010  0.97070  Biso   1.000  H
  H38      1.0000 0.78960  0.05010  0.52930  Biso   1.000  H
  H39      1.0000 0.28960  0.44990  0.02930  Biso   1.000  H
  H40      1.0000 0.21040  0.94990  0.47070  Biso   1.000  H
  C37      1.0000 0.70800  0.58810  0.81970  Biso   1.000  C
  C38      1.0000 0.79200  0.08810  0.68030  Biso   1.000  C
  C39      1.0000 0.29200  0.41190  0.18030  Biso   1.000  C
  C40      1.0000 0.20800  0.91190  0.31970  Biso   1.000  C
  H41      1.0000 0.79450  0.59980  0.83710  Biso   1.000  H
  H42      1.0000 0.70550  0.09980  0.66290  Biso   1.000  H
  H43      1.0000 0.20550  0.40020  0.16290  Biso   1.000  H
  H44      1.0000 0.29450  0.90020  0.33710  Biso   1.000  H
  H45      1.0000 0.66800  0.60270  0.75910  Biso   1.000  H
  H46      1.0000 0.83200  0.10270  0.74090  Biso   1.000  H
  H47      1.0000 0.33200  0.39730  0.24090  Biso   1.000  H
  H48      1.0000 0.16800  0.89730  0.25910  Biso   1.000  H
  H49      1.0000 0.69640  0.53040  0.82730  Biso   1.000  H
  H50      1.0000 0.80360  0.03040  0.67270  Biso   1.000  H
  H51      1.0000 0.30360  0.46960  0.17270  Biso   1.000  H
  H52      1.0000 0.19640  0.96960  0.32730  Biso   1.000  H
  C41      1.0000 0.67700  0.72500  0.86530  Biso   1.000  C
  C42      1.0000 0.82300  0.22500  0.63470  Biso   1.000  C
  C43      1.0000 0.32300  0.27500  0.13470  Biso   1.000  C
  C44      1.0000 0.17700  0.77500  0.36530  Biso   1.000  C
  H53      1.0000 0.63990  0.75660  0.89950  Biso   1.000  H
  H54      1.0000 0.86010  0.25660  0.60050  Biso   1.000  H
  H55      1.0000 0.36010  0.24340  0.10050  Biso   1.000  H
  H56      1.0000 0.13990  0.74340  0.39950  Biso   1.000  H
  H57      1.0000 0.64160  0.74080  0.80470  Biso   1.000  H
  H58      1.0000 0.85840  0.24080  0.69530  Biso   1.000  H
  H59      1.0000 0.35840  0.25920  0.19530  Biso   1.000  H
  H60      1.0000 0.14160  0.75920  0.30470  Biso   1.000  H
  H61      1.0000 0.76410  0.73520  0.88590  Biso   1.000  H
  H62      1.0000 0.73590  0.23520  0.61410  Biso   1.000  H
  H63      1.0000 0.23590  0.26480  0.11410  Biso   1.000  H
  H64      1.0000 0.26410  0.76480  0.38590  Biso   1.000  H
  C45      1.0000 0.11060  0.36063  0.73500  Biso   1.000  C
  C46      1.0000 0.38940  0.86063  0.76500  Biso   1.000  C
  C47      1.0000 0.88940  0.63937  0.26500  Biso   1.000  C
  C48      1.0000 0.61060  0.13937  0.23500  Biso   1.000  C
  C49      1.0000 0.04620  0.35500  0.79310  Biso   1.000  C
  C50      1.0000 0.45380  0.85500  0.70690  Biso   1.000  C
  C51      1.0000 0.95380  0.64500  0.20690  Biso   1.000  C
  C52      1.0000 0.54620  0.14500  0.29310  Biso   1.000  C
  H65      1.0000 0.07660  0.32180  0.84270  Biso   1.000  H
  H66      1.0000 0.42340  0.82180  0.65730  Biso   1.000  H
  H67      1.0000 0.92340  0.67820  0.15730  Biso   1.000  H
  H68      1.0000 0.57660  0.17820  0.34270  Biso   1.000  H
  C53      1.0000 0.93800  0.39790  0.77800  Biso   1.000  C
  C54      1.0000 0.56200  0.89790  0.72200  Biso   1.000  C
  C55      1.0000 0.06200  0.60210  0.22200  Biso   1.000  C
  C56      1.0000 0.43800  0.10210  0.27800  Biso   1.000  C
  H69      1.0000 0.89390  0.39130  0.81570  Biso   1.000  H
  H70      1.0000 0.60610  0.89130  0.68430  Biso   1.000  H
  H71      1.0000 0.10610  0.60870  0.18430  Biso   1.000  H
  H72      1.0000 0.39390  0.10870  0.31570  Biso   1.000  H
  C57      1.0000 0.89490  0.45040  0.70720  Biso   1.000  C
  C58      1.0000 0.60510  0.95040  0.79280  Biso   1.000  C
  C59      1.0000 0.10510  0.54960  0.29280  Biso   1.000  C
  C60      1.0000 0.39490  0.04960  0.20720  Biso   1.000  C
  H73      1.0000 0.82350  0.48080  0.69840  Biso   1.000  H
  H74      1.0000 0.67650  0.98080  0.80160  Biso   1.000  H
  H75      1.0000 0.17650  0.51920  0.30160  Biso   1.000  H
  H76      1.0000 0.32350  0.01920  0.19840  Biso   1.000  H
  C61      1.0000 0.95750  0.45770  0.64980  Biso   1.000  C
  C62      1.0000 0.54250  0.95770  0.85020  Biso   1.000  C
  C63      1.0000 0.04250  0.54230  0.35020  Biso   1.000  C
  C64      1.0000 0.45750  0.04230  0.14980  Biso   1.000  C
  H77      1.0000 0.92800  0.49330  0.60210  Biso   1.000  H
  H78      1.0000 0.57200  0.99330  0.89790  Biso   1.000  H
  H79      1.0000 0.07200  0.50670  0.39790  Biso   1.000  H
  H80      1.0000 0.42800  0.00670  0.10210  Biso   1.000  H
  C65      1.0000 0.06470  0.41280  0.66180  Biso   1.000  C
  C66      1.0000 0.43530  0.91280  0.83820  Biso   1.000  C
  C67      1.0000 0.93530  0.58720  0.33820  Biso   1.000  C
  C68      1.0000 0.56470  0.08720  0.16180  Biso   1.000  C
  C69      1.0000 0.12510  0.41790  0.59500  Biso   1.000  C
  C70      1.0000 0.37490  0.91790  0.90500  Biso   1.000  C
  C71      1.0000 0.87490  0.58210  0.40500  Biso   1.000  C
  C72      1.0000 0.62510  0.08210  0.09500  Biso   1.000  C
  H81      1.0000 0.11310  0.36620  0.56320  Biso   1.000  H
  H82      1.0000 0.38690  0.86620  0.93680  Biso   1.000  H
  H83      1.0000 0.88690  0.63380  0.43680  Biso   1.000  H
  H84      1.0000 0.61310  0.13380  0.06320  Biso   1.000  H
  H85      1.0000 0.08560  0.46090  0.55320  Biso   1.000  H
  H86      1.0000 0.41440  0.96090  0.94680  Biso   1.000  H
  H87      1.0000 0.91440  0.53910  0.44680  Biso   1.000  H
  H88      1.0000 0.58560  0.03910  0.05320  Biso   1.000  H
  C73      1.0000 0.31310  0.45070  0.56530  Biso   1.000  C
  C74      1.0000 0.18690  0.95070  0.93470  Biso   1.000  C
  C75      1.0000 0.68690  0.54930  0.43470  Biso   1.000  C
  C76      1.0000 0.81310  0.04930  0.06530  Biso   1.000  C
  H89      1.0000 0.29600  0.50680  0.54370  Biso   1.000  H
  H90      1.0000 0.20400  0.00680  0.95630  Biso   1.000  H
  H91      1.0000 0.70400  0.49320  0.45630  Biso   1.000  H
  H92      1.0000 0.79600  0.99320  0.04370  Biso   1.000  H
  H93      1.0000 0.27820  0.41340  0.51630  Biso   1.000  H
  H94      1.0000 0.22180  0.91340  0.98370  Biso   1.000  H
  H95      1.0000 0.72180  0.58660  0.48370  Biso   1.000  H
  H96      1.0000 0.77820  0.08660  0.01630  Biso   1.000  H
  C77      1.0000 0.45010  0.43750  0.60560  Biso   1.000  C
  C78      1.0000 0.04990  0.93750  0.89440  Biso   1.000  C
  C79      1.0000 0.54990  0.56250  0.39440  Biso   1.000  C
  C80      1.0000 0.95010  0.06250  0.10560  Biso   1.000  C
  H97      1.0000 0.48660  0.43930  0.56020  Biso   1.000  H
  H98      1.0000 0.01340  0.93930  0.93980  Biso   1.000  H
  H99      1.0000 0.51340  0.56070  0.43980  Biso   1.000  H
  H100     1.0000 0.98660  0.06070  0.06020  Biso   1.000  H
  H101     1.0000 0.48670  0.48100  0.64750  Biso   1.000  H
  H102     1.0000 0.01330  0.98100  0.85250  Biso   1.000  H
  H103     1.0000 0.51330  0.51900  0.35250  Biso   1.000  H
  H104     1.0000 0.98670  0.01900  0.14750  Biso   1.000  H
  C81      1.0000 0.60630  0.35360  0.70550  Biso   1.000  C
  C82      1.0000 0.89370  0.85360  0.79450  Biso   1.000  C
  C83      1.0000 0.39370  0.64640  0.29450  Biso   1.000  C
  C84      1.0000 0.10630  0.14640  0.20550  Biso   1.000  C
  H105     1.0000 0.62570  0.29990  0.73140  Biso   1.000  H
  H106     1.0000 0.87430  0.79990  0.76860  Biso   1.000  H
  H107     1.0000 0.37430  0.70010  0.26860  Biso   1.000  H
  H108     1.0000 0.12570  0.20010  0.23140  Biso   1.000  H
  H109     1.0000 0.62310  0.39420  0.75100  Biso   1.000  H
  H110     1.0000 0.87690  0.89420  0.74900  Biso   1.000  H
  H111     1.0000 0.37690  0.60580  0.24900  Biso   1.000  H
  H112     1.0000 0.12310  0.10580  0.25100  Biso   1.000  H
  H113     1.0000 0.65570  0.36450  0.67000  Biso   1.000  H
  H114     1.0000 0.84430  0.86450  0.83000  Biso   1.000  H
  H115     1.0000 0.34430  0.63550  0.33000  Biso   1.000  H
  H116     1.0000 0.15570  0.13550  0.17000  Biso   1.000  H
  C85      1.0000 0.44940  0.28860  0.58600  Biso   1.000  C
  C86      1.0000 0.05060  0.78860  0.91400  Biso   1.000  C
  C87      1.0000 0.55060  0.71140  0.41400  Biso   1.000  C
  C88      1.0000 0.94940  0.21140  0.08600  Biso   1.000  C
  H117     1.0000 0.49840  0.29540  0.54950  Biso   1.000  H
  H118     1.0000 0.00160  0.79540  0.95050  Biso   1.000  H
  H119     1.0000 0.50160  0.70460  0.45050  Biso   1.000  H
  H120     1.0000 0.99840  0.20460  0.04950  Biso   1.000  H
  H121     1.0000 0.36370  0.28900  0.55020  Biso   1.000  H
  H122     1.0000 0.13630  0.78900  0.94980  Biso   1.000  H
  H123     1.0000 0.63630  0.71100  0.44980  Biso   1.000  H
  H124     1.0000 0.86370  0.21100  0.05020  Biso   1.000  H
  H125     1.0000 0.46950  0.23700  0.61670  Biso   1.000  H
  H126     1.0000 0.03050  0.73700  0.88330  Biso   1.000  H
  H127     1.0000 0.53050  0.76300  0.38330  Biso   1.000  H
  H128     1.0000 0.96950  0.26300  0.11670  Biso   1.000  H
  O1       1.0000 0.29918  0.63447  0.82586  Biso   1.000  O
  O2       1.0000 0.20082  0.13447  0.67414  Biso   1.000  O
  O3       1.0000 0.70082  0.36553  0.17414  Biso   1.000  O
  O4       1.0000 0.79918  0.86553  0.32586  Biso   1.000  O
  O5       1.0000 0.21325  0.31628  0.74824  Biso   1.000  O
  O6       1.0000 0.28675  0.81628  0.75176  Biso   1.000  O
  O7       1.0000 0.78675  0.68372  0.25176  Biso   1.000  O
  O8       1.0000 0.71325  0.18372  0.24824  Biso   1.000  O
  N1       1.0000 0.40980  0.65981  0.72045  Biso   1.000  N
  N2       1.0000 0.09020  0.15981  0.77955  Biso   1.000  N
  N3       1.0000 0.59020  0.34019  0.27955  Biso   1.000  N
  N4       1.0000 0.90980  0.84019  0.22045  Biso   1.000  N
  N5       1.0000 0.44820  0.65326  0.66171  Biso   1.000  N
  N6       1.0000 0.05180  0.15326  0.83829  Biso   1.000  N
  N7       1.0000 0.55180  0.34674  0.33829  Biso   1.000  N
  N8       1.0000 0.94820  0.84674  0.16171  Biso   1.000  N
  N9       1.0000 0.48430  0.64820  0.60480  Biso   1.000  N
  N10      1.0000 0.01570  0.14820  0.89520  Biso   1.000  N
  N11      1.0000 0.51570  0.35180  0.39520  Biso   1.000  N
  N12      1.0000 0.98430  0.85180  0.10480  Biso   1.000  N
  N13      1.0000 0.41270  0.24255  0.77977  Biso   1.000  N
  N14      1.0000 0.08730  0.74255  0.72023  Biso   1.000  N
  N15      1.0000 0.58730  0.75745  0.22023  Biso   1.000  N
  N16      1.0000 0.91270  0.25745  0.27977  Biso   1.000  N
  N17      1.0000 0.51270  0.20889  0.80936  Biso   1.000  N
  N18      1.0000 0.98730  0.70889  0.69064  Biso   1.000  N
  N19      1.0000 0.48730  0.79111  0.19064  Biso   1.000  N
  N20      1.0000 0.01270  0.29111  0.30936  Biso   1.000  N
  N21      1.0000 0.60640  0.17810  0.83820  Biso   1.000  N
  N22      1.0000 0.89360  0.67810  0.66180  Biso   1.000  N
  N23      1.0000 0.39360  0.82190  0.16180  Biso   1.000  N
  N24      1.0000 0.10640  0.32190  0.33820  Biso   1.000  N
  N25      1.0000 0.51050  0.62323  0.97776  Biso   1.000  N
  N26      1.0000 0.98950  0.12323  0.52224  Biso   1.000  N
  N27      1.0000 0.48950  0.37677  0.02224  Biso   1.000  N
  N28      1.0000 0.01050  0.87677  0.47776  Biso   1.000  N
  H129     1.0000 0.50150  0.57120  0.99540  Biso   1.000  H
  H130     1.0000 0.99850  0.07120  0.50460  Biso   1.000  H
  H131     1.0000 0.49850  0.42880  0.00460  Biso   1.000  H
  H132     1.0000 0.00150  0.92880  0.49540  Biso   1.000  H
  N29      1.0000 0.65450  0.63623  0.87431  Biso   1.000  N
  N30      1.0000 0.84550  0.13623  0.62569  Biso   1.000  N
  N31      1.0000 0.34550  0.36377  0.12569  Biso   1.000  N
  N32      1.0000 0.15450  0.86377  0.37431  Biso   1.000  N
  N33      1.0000 0.25820  0.43532  0.63294  Biso   1.000  N
  N34      1.0000 0.24180  0.93532  0.86706  Biso   1.000  N
  N35      1.0000 0.74180  0.56468  0.36706  Biso   1.000  N
  N36      1.0000 0.75820  0.06468  0.13294  Biso   1.000  N
  H133     1.0000 0.26680  0.48250  0.66470  Biso   1.000  H
  H134     1.0000 0.23320  0.98250  0.83530  Biso   1.000  H
  H135     1.0000 0.73320  0.51750  0.33530  Biso   1.000  H
  H136     1.0000 0.76680  0.01750  0.16470  Biso   1.000  H
  N37      1.0000 0.47510  0.35679  0.65037  Biso   1.000  N
  N38      1.0000 0.02490  0.85679  0.84963  Biso   1.000  N
  N39      1.0000 0.52490  0.64321  0.34963  Biso   1.000  N
  N40      1.0000 0.97510  0.14321  0.15037  Biso   1.000  N
