data_image0
_cell_length_a       11.4006
_cell_length_b       17.475
_cell_length_c       15.075
_cell_angle_alpha    90
_cell_angle_beta     104.487
_cell_angle_gamma    90

_symmetry_space_group_name_H-M    "P 1"
_symmetry_int_tables_number       1

loop_
  _symmetry_equiv_pos_as_xyz
  'x, y, z'

loop_
  _atom_site_label
  _atom_site_occupancy
  _atom_site_fract_x
  _atom_site_fract_y
  _atom_site_fract_z
  _atom_site_thermal_displace_type
  _atom_site_B_iso_or_equiv
  _atom_site_type_symbol
  C1       1.0000 0.75530  0.19790  0.98050  Biso   1.000  C
  C2       1.0000 0.74470  0.69790  0.51950  Biso   1.000  C
  C3       1.0000 0.24470  0.80210  0.01950  Biso   1.000  C
  C4       1.0000 0.25530  0.30210  0.48050  Biso   1.000  C
  C5       1.0000 0.86970  0.23060  0.99340  Biso   1.000  C
  C6       1.0000 0.63030  0.73060  0.50660  Biso   1.000  C
  C7       1.0000 0.13030  0.76940  0.00660  Biso   1.000  C
  C8       1.0000 0.36970  0.26940  0.49340  Biso   1.000  C
  H1       1.0000 0.90610  0.25330  0.04930  Biso   1.000  H
  H2       1.0000 0.59390  0.75330  0.45070  Biso   1.000  H
  H3       1.0000 0.09390  0.74670  0.95070  Biso   1.000  H
  H4       1.0000 0.40610  0.24670  0.54930  Biso   1.000  H
  C9       1.0000 0.92990  0.22970  0.92450  Biso   1.000  C
  C10      1.0000 0.57010  0.72970  0.57550  Biso   1.000  C
  C11      1.0000 0.07010  0.77030  0.07550  Biso   1.000  C
  C12      1.0000 0.42990  0.27030  0.42450  Biso   1.000  C
  H5       1.0000 0.00630  0.25180  0.93430  Biso   1.000  H
  H6       1.0000 0.49370  0.75180  0.56570  Biso   1.000  H
  H7       1.0000 0.99370  0.74820  0.06570  Biso   1.000  H
  H8       1.0000 0.50630  0.24820  0.43430  Biso   1.000  H
  C13      1.0000 0.87650  0.19600  0.84040  Biso   1.000  C
  C14      1.0000 0.62350  0.69600  0.65960  Biso   1.000  C
  C15      1.0000 0.12350  0.80400  0.15960  Biso   1.000  C
  C16      1.0000 0.37650  0.30400  0.34040  Biso   1.000  C
  H9       1.0000 0.91640  0.19550  0.79360  Biso   1.000  H
  H10      1.0000 0.58360  0.69550  0.70640  Biso   1.000  H
  H11      1.0000 0.08360  0.80450  0.20640  Biso   1.000  H
  H12      1.0000 0.41640  0.30450  0.29360  Biso   1.000  H
  C17      1.0000 0.76470  0.16390  0.82810  Biso   1.000  C
  C18      1.0000 0.73530  0.66390  0.67190  Biso   1.000  C
  C19      1.0000 0.23530  0.83610  0.17190  Biso   1.000  C
  C20      1.0000 0.26470  0.33610  0.32810  Biso   1.000  C
  H13      1.0000 0.72970  0.14140  0.77180  Biso   1.000  H
  H14      1.0000 0.77030  0.64140  0.72820  Biso   1.000  H
  H15      1.0000 0.27030  0.85860  0.22820  Biso   1.000  H
  H16      1.0000 0.22970  0.35860  0.27180  Biso   1.000  H
  C21      1.0000 0.69930  0.16310  0.89610  Biso   1.000  C
  C22      1.0000 0.80070  0.66310  0.60390  Biso   1.000  C
  C23      1.0000 0.30070  0.83690  0.10390  Biso   1.000  C
  C24      1.0000 0.19930  0.33690  0.39610  Biso   1.000  C
  C25      1.0000 0.57720  0.12870  0.87930  Biso   1.000  C
  C26      1.0000 0.92280  0.62870  0.62070  Biso   1.000  C
  C27      1.0000 0.42280  0.87130  0.12070  Biso   1.000  C
  C28      1.0000 0.07720  0.37130  0.37930  Biso   1.000  C
  H17      1.0000 0.58030  0.08400  0.91800  Biso   1.000  H
  H18      1.0000 0.91970  0.58400  0.58200  Biso   1.000  H
  H19      1.0000 0.41970  0.91600  0.08200  Biso   1.000  H
  H20      1.0000 0.08030  0.41600  0.41800  Biso   1.000  H
  H21      1.0000 0.55100  0.11230  0.81600  Biso   1.000  H
  H22      1.0000 0.94900  0.61230  0.68400  Biso   1.000  H
  H23      1.0000 0.44900  0.88770  0.18400  Biso   1.000  H
  H24      1.0000 0.05100  0.38770  0.31600  Biso   1.000  H
  N1       1.0000 0.48900  0.18430  0.89890  Biso   1.000  N
  N2       1.0000 0.01100  0.68430  0.60110  Biso   1.000  N
  N3       1.0000 0.51100  0.81570  0.10110  Biso   1.000  N
  N4       1.0000 0.98900  0.31570  0.39890  Biso   1.000  N
  H25      1.0000 0.49380  0.22670  0.86500  Biso   1.000  H
  H26      1.0000 0.00620  0.72670  0.63500  Biso   1.000  H
  H27      1.0000 0.50620  0.77330  0.13500  Biso   1.000  H
  H28      1.0000 0.99380  0.27330  0.36500  Biso   1.000  H
  C29      1.0000 0.36400  0.15660  0.86860  Biso   1.000  C
  C30      1.0000 0.13600  0.65660  0.63140  Biso   1.000  C
  C31      1.0000 0.63600  0.84340  0.13140  Biso   1.000  C
  C32      1.0000 0.86400  0.34340  0.36860  Biso   1.000  C
  H29      1.0000 0.36010  0.10290  0.88400  Biso   1.000  H
  H30      1.0000 0.13990  0.60290  0.61600  Biso   1.000  H
  H31      1.0000 0.63990  0.89710  0.11600  Biso   1.000  H
  H32      1.0000 0.86010  0.39710  0.38400  Biso   1.000  H
  H33      1.0000 0.33490  0.16210  0.80270  Biso   1.000  H
  H34      1.0000 0.16510  0.66210  0.69730  Biso   1.000  H
  H35      1.0000 0.66510  0.83790  0.19730  Biso   1.000  H
  H36      1.0000 0.83490  0.33790  0.30270  Biso   1.000  H
  C33      1.0000 0.28600  0.20410  0.91700  Biso   1.000  C
  C34      1.0000 0.21400  0.70410  0.58300  Biso   1.000  C
  C35      1.0000 0.71400  0.79590  0.08300  Biso   1.000  C
  C36      1.0000 0.78600  0.29590  0.41700  Biso   1.000  C
  H37      1.0000 0.28050  0.25640  0.89450  Biso   1.000  H
  H38      1.0000 0.21950  0.75640  0.60550  Biso   1.000  H
  H39      1.0000 0.71950  0.74360  0.10550  Biso   1.000  H
  H40      1.0000 0.78050  0.24360  0.39450  Biso   1.000  H
  H41      1.0000 0.20480  0.18300  0.90410  Biso   1.000  H
  H42      1.0000 0.29520  0.68300  0.59590  Biso   1.000  H
  H43      1.0000 0.79520  0.81700  0.09590  Biso   1.000  H
  H44      1.0000 0.70480  0.31700  0.40410  Biso   1.000  H
  N5       1.0000 0.34020  0.20340  0.01600  Biso   1.000  N
  N6       1.0000 0.15980  0.70340  0.48400  Biso   1.000  N
  N7       1.0000 0.65980  0.79660  0.98400  Biso   1.000  N
  N8       1.0000 0.84020  0.29660  0.51600  Biso   1.000  N
  C37      1.0000 0.28210  0.26030  0.06130  Biso   1.000  C
  C38      1.0000 0.21790  0.76030  0.43870  Biso   1.000  C
  C39      1.0000 0.71790  0.73970  0.93870  Biso   1.000  C
  C40      1.0000 0.78210  0.23970  0.56130  Biso   1.000  C
  H45      1.0000 0.30030  0.31060  0.04290  Biso   1.000  H
  H46      1.0000 0.19970  0.81060  0.45710  Biso   1.000  H
  H47      1.0000 0.69970  0.68940  0.95710  Biso   1.000  H
  H48      1.0000 0.80030  0.18940  0.54290  Biso   1.000  H
  H49      1.0000 0.31170  0.25520  0.12650  Biso   1.000  H
  H50      1.0000 0.18830  0.75520  0.37350  Biso   1.000  H
  H51      1.0000 0.68830  0.74480  0.87350  Biso   1.000  H
  H52      1.0000 0.81170  0.24480  0.62650  Biso   1.000  H
  H53      1.0000 0.19600  0.25250  0.04440  Biso   1.000  H
  H54      1.0000 0.30400  0.75250  0.45560  Biso   1.000  H
  H55      1.0000 0.80400  0.74750  0.95560  Biso   1.000  H
  H56      1.0000 0.69600  0.24750  0.54440  Biso   1.000  H
  C41      1.0000 0.32320  0.12720  0.05560  Biso   1.000  C
  C42      1.0000 0.17680  0.62720  0.44440  Biso   1.000  C
  C43      1.0000 0.67680  0.87280  0.94440  Biso   1.000  C
  C44      1.0000 0.82320  0.37280  0.55560  Biso   1.000  C
  H57      1.0000 0.35110  0.12940  0.12110  Biso   1.000  H
  H58      1.0000 0.14890  0.62940  0.37890  Biso   1.000  H
  H59      1.0000 0.64890  0.87060  0.87890  Biso   1.000  H
  H60      1.0000 0.85110  0.37060  0.62110  Biso   1.000  H
  H61      1.0000 0.36880  0.08930  0.03230  Biso   1.000  H
  H62      1.0000 0.13120  0.58930  0.46770  Biso   1.000  H
  H63      1.0000 0.63120  0.91070  0.96770  Biso   1.000  H
  H64      1.0000 0.86880  0.41070  0.53230  Biso   1.000  H
  H65      1.0000 0.23890  0.11380  0.03880  Biso   1.000  H
  H66      1.0000 0.26110  0.61380  0.46120  Biso   1.000  H
  H67      1.0000 0.76110  0.88620  0.96120  Biso   1.000  H
  H68      1.0000 0.73890  0.38620  0.53880  Biso   1.000  H
  C45      1.0000 0.70910  0.04830  0.31930  Biso   1.000  C
  C46      1.0000 0.79090  0.54830  0.18070  Biso   1.000  C
  C47      1.0000 0.29090  0.95170  0.68070  Biso   1.000  C
  C48      1.0000 0.20910  0.45170  0.81930  Biso   1.000  C
  C49      1.0000 0.61360  0.07650  0.34860  Biso   1.000  C
  C50      1.0000 0.88640  0.57650  0.15140  Biso   1.000  C
  C51      1.0000 0.38640  0.92350  0.65140  Biso   1.000  C
  C52      1.0000 0.11360  0.42350  0.84860  Biso   1.000  C
  H69      1.0000 0.59500  0.12840  0.34230  Biso   1.000  H
  H70      1.0000 0.90500  0.62840  0.15770  Biso   1.000  H
  H71      1.0000 0.40500  0.87160  0.65770  Biso   1.000  H
  H72      1.0000 0.09500  0.37160  0.84230  Biso   1.000  H
  C53      1.0000 0.54430  0.02800  0.38790  Biso   1.000  C
  C54      1.0000 0.95570  0.52800  0.11210  Biso   1.000  C
  C55      1.0000 0.45570  0.97200  0.61210  Biso   1.000  C
  C56      1.0000 0.04430  0.47200  0.88790  Biso   1.000  C
  H73      1.0000 0.47830  0.04770  0.40630  Biso   1.000  H
  H74      1.0000 0.02170  0.54770  0.09370  Biso   1.000  H
  H75      1.0000 0.52170  0.95230  0.59370  Biso   1.000  H
  H76      1.0000 0.97830  0.45230  0.90630  Biso   1.000  H
  C57      1.0000 0.57170  0.94990  0.40030  Biso   1.000  C
  C58      1.0000 0.92830  0.44990  0.09970  Biso   1.000  C
  C59      1.0000 0.42830  0.05010  0.59970  Biso   1.000  C
  C60      1.0000 0.07170  0.55010  0.90030  Biso   1.000  C
  H77      1.0000 0.52490  0.91750  0.42650  Biso   1.000  H
  H78      1.0000 0.97510  0.41750  0.07350  Biso   1.000  H
  H79      1.0000 0.47510  0.08250  0.57350  Biso   1.000  H
  H80      1.0000 0.02490  0.58250  0.92650  Biso   1.000  H
  C61      1.0000 0.66970  0.92280  0.37270  Biso   1.000  C
  C62      1.0000 0.83030  0.42280  0.12730  Biso   1.000  C
  C63      1.0000 0.33030  0.07720  0.62730  Biso   1.000  C
  C64      1.0000 0.16970  0.57720  0.87270  Biso   1.000  C
  H81      1.0000 0.68960  0.87120  0.38080  Biso   1.000  H
  H82      1.0000 0.81040  0.37120  0.11920  Biso   1.000  H
  H83      1.0000 0.31040  0.12880  0.61920  Biso   1.000  H
  H84      1.0000 0.18960  0.62880  0.88080  Biso   1.000  H
  C65      1.0000 0.74020  0.97000  0.33280  Biso   1.000  C
  C66      1.0000 0.75980  0.47000  0.16720  Biso   1.000  C
  C67      1.0000 0.25980  0.03000  0.66720  Biso   1.000  C
  C68      1.0000 0.24020  0.53000  0.83280  Biso   1.000  C
  C69      1.0000 0.84490  0.93880  0.30350  Biso   1.000  C
  C70      1.0000 0.65510  0.43880  0.19650  Biso   1.000  C
  C71      1.0000 0.15510  0.06120  0.69650  Biso   1.000  C
  C72      1.0000 0.34490  0.56120  0.80350  Biso   1.000  C
  H85      1.0000 0.82970  0.94310  0.23740  Biso   1.000  H
  H86      1.0000 0.67030  0.44310  0.26260  Biso   1.000  H
  H87      1.0000 0.17030  0.05690  0.76260  Biso   1.000  H
  H88      1.0000 0.32970  0.55690  0.73740  Biso   1.000  H
  H89      1.0000 0.85380  0.88490  0.31910  Biso   1.000  H
  H90      1.0000 0.64620  0.38490  0.18090  Biso   1.000  H
  H91      1.0000 0.14620  0.11510  0.68090  Biso   1.000  H
  H92      1.0000 0.35380  0.61510  0.81910  Biso   1.000  H
  N9       1.0000 0.95930  0.97910  0.34690  Biso   1.000  N
  N10      1.0000 0.54070  0.47910  0.15310  Biso   1.000  N
  N11      1.0000 0.04070  0.02090  0.65310  Biso   1.000  N
  N12      1.0000 0.45930  0.52090  0.84690  Biso   1.000  N
  H93      1.0000 0.96820  0.97730  0.40850  Biso   1.000  H
  H94      1.0000 0.53180  0.47730  0.09150  Biso   1.000  H
  H95      1.0000 0.03180  0.02270  0.59150  Biso   1.000  H
  H96      1.0000 0.46820  0.52270  0.90850  Biso   1.000  H
  C73      1.0000 0.06590  0.94190  0.32820  Biso   1.000  C
  C74      1.0000 0.43410  0.44190  0.17180  Biso   1.000  C
  C75      1.0000 0.93410  0.05810  0.67180  Biso   1.000  C
  C76      1.0000 0.56590  0.55810  0.82820  Biso   1.000  C
  H97      1.0000 0.05160  0.93020  0.26340  Biso   1.000  H
  H98      1.0000 0.44840  0.43020  0.23660  Biso   1.000  H
  H99      1.0000 0.94840  0.06980  0.73660  Biso   1.000  H
  H100     1.0000 0.55160  0.56980  0.76340  Biso   1.000  H
  H101     1.0000 0.08380  0.89460  0.36260  Biso   1.000  H
  H102     1.0000 0.41620  0.39460  0.13740  Biso   1.000  H
  H103     1.0000 0.91620  0.10540  0.63740  Biso   1.000  H
  H104     1.0000 0.58380  0.60540  0.86260  Biso   1.000  H
  C77      1.0000 0.17020  0.99760  0.35720  Biso   1.000  C
  C78      1.0000 0.32980  0.49760  0.14280  Biso   1.000  C
  C79      1.0000 0.82980  0.00240  0.64280  Biso   1.000  C
  C80      1.0000 0.67020  0.50240  0.85720  Biso   1.000  C
  H105     1.0000 0.18770  0.00620  0.42270  Biso   1.000  H
  H106     1.0000 0.31230  0.50620  0.07730  Biso   1.000  H
  H107     1.0000 0.81230  0.99380  0.57730  Biso   1.000  H
  H108     1.0000 0.68770  0.49380  0.92270  Biso   1.000  H
  H109     1.0000 0.24220  0.97670  0.34290  Biso   1.000  H
  H110     1.0000 0.25780  0.47670  0.15710  Biso   1.000  H
  H111     1.0000 0.75780  0.02330  0.65710  Biso   1.000  H
  H112     1.0000 0.74220  0.52330  0.84290  Biso   1.000  H
  N13      1.0000 0.13680  0.07000  0.30810  Biso   1.000  N
  N14      1.0000 0.36320  0.57000  0.19190  Biso   1.000  N
  N15      1.0000 0.86320  0.93000  0.69190  Biso   1.000  N
  N16      1.0000 0.63680  0.43000  0.80810  Biso   1.000  N
  C81      1.0000 0.22040  0.13160  0.35310  Biso   1.000  C
  C82      1.0000 0.27960  0.63160  0.14690  Biso   1.000  C
  C83      1.0000 0.77960  0.86840  0.64690  Biso   1.000  C
  C84      1.0000 0.72040  0.36840  0.85310  Biso   1.000  C
  H113     1.0000 0.23730  0.12570  0.41840  Biso   1.000  H
  H114     1.0000 0.26270  0.62570  0.08160  Biso   1.000  H
  H115     1.0000 0.76270  0.87430  0.58160  Biso   1.000  H
  H116     1.0000 0.73730  0.37430  0.91840  Biso   1.000  H
  H117     1.0000 0.18340  0.18050  0.33600  Biso   1.000  H
  H118     1.0000 0.31660  0.68050  0.16400  Biso   1.000  H
  H119     1.0000 0.81660  0.81950  0.66400  Biso   1.000  H
  H120     1.0000 0.68340  0.31950  0.83600  Biso   1.000  H
  H121     1.0000 0.29460  0.12830  0.33410  Biso   1.000  H
  H122     1.0000 0.20540  0.62830  0.16590  Biso   1.000  H
  H123     1.0000 0.70540  0.87170  0.66590  Biso   1.000  H
  H124     1.0000 0.79460  0.37170  0.83410  Biso   1.000  H
  C85      1.0000 0.14620  0.06290  0.21320  Biso   1.000  C
  C86      1.0000 0.35380  0.56290  0.28680  Biso   1.000  C
  C87      1.0000 0.85380  0.93710  0.78680  Biso   1.000  C
  C88      1.0000 0.64620  0.43710  0.71320  Biso   1.000  C
  H125     1.0000 0.22850  0.05180  0.21270  Biso   1.000  H
  H126     1.0000 0.27150  0.55180  0.28730  Biso   1.000  H
  H127     1.0000 0.77150  0.94820  0.78730  Biso   1.000  H
  H128     1.0000 0.72850  0.44820  0.71270  Biso   1.000  H
  H129     1.0000 0.12150  0.11000  0.18120  Biso   1.000  H
  H130     1.0000 0.37850  0.61000  0.31880  Biso   1.000  H
  H131     1.0000 0.87850  0.89000  0.81880  Biso   1.000  H
  H132     1.0000 0.62150  0.39000  0.68120  Biso   1.000  H
  H133     1.0000 0.09460  0.02220  0.18340  Biso   1.000  H
  H134     1.0000 0.40540  0.52220  0.31660  Biso   1.000  H
  H135     1.0000 0.90540  0.97780  0.81660  Biso   1.000  H
  H136     1.0000 0.59460  0.47780  0.68340  Biso   1.000  H
  O1       1.0000 0.69900  0.20230  0.04920  Biso   1.000  O
  O2       1.0000 0.80100  0.70230  0.45080  Biso   1.000  O
  O3       1.0000 0.30100  0.79770  0.95080  Biso   1.000  O
  O4       1.0000 0.19900  0.29770  0.54920  Biso   1.000  O
  O5       1.0000 0.78000  0.09680  0.28340  Biso   1.000  O
  O6       1.0000 0.72000  0.59680  0.21660  Biso   1.000  O
  O7       1.0000 0.22000  0.90320  0.71660  Biso   1.000  O
  O8       1.0000 0.28000  0.40320  0.78340  Biso   1.000  O
  Cu1      1.0000 0.73698  0.14274  0.16228  Biso   1.000  Cu
  Cu2      1.0000 0.76302  0.64274  0.33772  Biso   1.000  Cu
  Cu3      1.0000 0.26302  0.85726  0.83772  Biso   1.000  Cu
  Cu4      1.0000 0.23698  0.35726  0.66228  Biso   1.000  Cu
  Cu5      1.0000 0.95908  0.08950  0.31189  Biso   1.000  Cu
  Cu6      1.0000 0.54092  0.58950  0.18811  Biso   1.000  Cu
  Cu7      1.0000 0.04092  0.91050  0.68811  Biso   1.000  Cu
  Cu8      1.0000 0.45908  0.41050  0.81189  Biso   1.000  Cu
  Cu9      1.0000 0.52237  0.21877  0.02924  Biso   1.000  Cu
  Cu10     1.0000 0.97763  0.71877  0.47076  Biso   1.000  Cu
  Cu11     1.0000 0.47763  0.78123  0.97076  Biso   1.000  Cu
  Cu12     1.0000 0.02237  0.28123  0.52924  Biso   1.000  Cu
  Cl1      1.0000 0.57262  0.22659  0.18721  Biso   1.000  Cl
  Cl2      1.0000 0.92738  0.72659  0.31279  Biso   1.000  Cl
  Cl3      1.0000 0.42738  0.77341  0.81279  Biso   1.000  Cl
  Cl4      1.0000 0.07262  0.27341  0.68721  Biso   1.000  Cl
  Cl5      1.0000 0.94130  0.20056  0.22581  Biso   1.000  Cl
  Cl6      1.0000 0.55870  0.70056  0.27419  Biso   1.000  Cl
  Cl7      1.0000 0.05870  0.79944  0.77419  Biso   1.000  Cl
  Cl8      1.0000 0.44130  0.29944  0.72581  Biso   1.000  Cl
  Cl9      1.0000 0.50236  0.36229  0.97635  Biso   1.000  Cl
  Cl10     1.0000 0.99764  0.86229  0.52365  Biso   1.000  Cl
  Cl11     1.0000 0.49764  0.63771  0.02365  Biso   1.000  Cl
  Cl12     1.0000 0.00236  0.13771  0.47635  Biso   1.000  Cl
  Cl13     1.0000 0.77760  0.03290  0.09190  Biso   1.000  Cl
  Cl14     1.0000 0.72240  0.53290  0.40810  Biso   1.000  Cl
  Cl15     1.0000 0.22240  0.96710  0.90810  Biso   1.000  Cl
  Cl16     1.0000 0.27760  0.46710  0.59190  Biso   1.000  Cl
  O9       1.0000 0.91900  0.98660  0.10700  Biso   1.000  O
  O10      1.0000 0.58100  0.48660  0.39300  Biso   1.000  O
  O11      1.0000 0.08100  0.01340  0.89300  Biso   1.000  O
  O12      1.0000 0.41900  0.51340  0.60700  Biso   1.000  O
  H137     1.0000 0.85000  0.99000  0.07000  Biso   1.000  H
  H138     1.0000 0.65000  0.49000  0.43000  Biso   1.000  H
  H139     1.0000 0.15000  0.01000  0.93000  Biso   1.000  H
  H140     1.0000 0.35000  0.51000  0.57000  Biso   1.000  H
  C89      1.0000 0.95500  0.01400  0.02200  Biso   1.000  C
  C90      1.0000 0.54500  0.51400  0.47800  Biso   1.000  C
  C91      1.0000 0.04500  0.98600  0.97800  Biso   1.000  C
  C92      1.0000 0.45500  0.48600  0.52200  Biso   1.000  C
  H141     1.0000 0.00980  0.05600  0.03720  Biso   1.000  H
  H142     1.0000 0.49020  0.55600  0.46280  Biso   1.000  H
  H143     1.0000 0.99020  0.94400  0.96280  Biso   1.000  H
  H144     1.0000 0.50980  0.44400  0.53720  Biso   1.000  H
  H145     1.0000 0.88400  0.02920  0.97640  Biso   1.000  H
  H146     1.0000 0.61600  0.52920  0.52360  Biso   1.000  H
  H147     1.0000 0.11600  0.97080  0.02360  Biso   1.000  H
  H148     1.0000 0.38400  0.47080  0.47640  Biso   1.000  H
  H149     1.0000 0.99400  0.97250  0.99810  Biso   1.000  H
  H150     1.0000 0.50600  0.47250  0.50190  Biso   1.000  H
  H151     1.0000 0.00600  0.02750  0.00190  Biso   1.000  H
  H152     1.0000 0.49400  0.52750  0.49810  Biso   1.000  H
  Cl17     1.0000 0.64430  0.04110  0.09410  Biso   1.000  Cl
  Cl18     1.0000 0.85570  0.54110  0.40590  Biso   1.000  Cl
  Cl19     1.0000 0.35570  0.95890  0.90590  Biso   1.000  Cl
  Cl20     1.0000 0.14430  0.45890  0.59410  Biso   1.000  Cl
