data_image0
_cell_length_a       13.4823
_cell_length_b       7.2714
_cell_length_c       13.6596
_cell_angle_alpha    90
_cell_angle_beta     110.85
_cell_angle_gamma    90

_symmetry_space_group_name_H-M    "P 1"
_symmetry_int_tables_number       1

loop_
  _symmetry_equiv_pos_as_xyz
  'x, y, z'

loop_
  _atom_site_label
  _atom_site_occupancy
  _atom_site_fract_x
  _atom_site_fract_y
  _atom_site_fract_z
  _atom_site_thermal_displace_type
  _atom_site_B_iso_or_equiv
  _atom_site_type_symbol
  Cu1      1.0000 0.09023  0.10202  0.58922  Biso   1.000  Cu
  Cu2      1.0000 0.40977  0.60202  0.91078  Biso   1.000  Cu
  Cu3      1.0000 0.90977  0.89798  0.41078  Biso   1.000  Cu
  Cu4      1.0000 0.59023  0.39798  0.08922  Biso   1.000  Cu
  Cu5      1.0000 0.85112  0.00929  0.60227  Biso   1.000  Cu
  Cu6      1.0000 0.64888  0.50929  0.89773  Biso   1.000  Cu
  Cu7      1.0000 0.14888  0.99071  0.39773  Biso   1.000  Cu
  Cu8      1.0000 0.35112  0.49071  0.10227  Biso   1.000  Cu
  O1       1.0000 0.76762  0.91800  0.68069  Biso   1.000  O
  O2       1.0000 0.73238  0.41800  0.81931  Biso   1.000  O
  O3       1.0000 0.23238  0.08200  0.31931  Biso   1.000  O
  O4       1.0000 0.26762  0.58200  0.18069  Biso   1.000  O
  O5       1.0000 0.64931  0.72560  0.57166  Biso   1.000  O
  O6       1.0000 0.85069  0.22560  0.92834  Biso   1.000  O
  O7       1.0000 0.35069  0.27440  0.42834  Biso   1.000  O
  O8       1.0000 0.14931  0.77440  0.07166  Biso   1.000  O
  O9       1.0000 0.27770  0.93380  0.51698  Biso   1.000  O
  O10      1.0000 0.22230  0.43380  0.98302  Biso   1.000  O
  O11      1.0000 0.72230  0.06620  0.48302  Biso   1.000  O
  O12      1.0000 0.77770  0.56620  0.01698  Biso   1.000  O
  O13      1.0000 0.24366  0.06510  0.65087  Biso   1.000  O
  O14      1.0000 0.25634  0.56510  0.84913  Biso   1.000  O
  O15      1.0000 0.75634  0.93490  0.34913  Biso   1.000  O
  O16      1.0000 0.74366  0.43490  0.15087  Biso   1.000  O
  O17      1.0000 0.63135  0.97060  0.02576  Biso   1.000  O
  O18      1.0000 0.86865  0.47060  0.47424  Biso   1.000  O
  O19      1.0000 0.36865  0.02940  0.97424  Biso   1.000  O
  O20      1.0000 0.13135  0.52940  0.52576  Biso   1.000  O
  O21      1.0000 0.59599  0.25660  0.96729  Biso   1.000  O
  O22      1.0000 0.90401  0.75660  0.53271  Biso   1.000  O
  O23      1.0000 0.40401  0.74340  0.03271  Biso   1.000  O
  O24      1.0000 0.09599  0.24340  0.46729  Biso   1.000  O
  O25      1.0000 0.06191  0.87590  0.46573  Biso   1.000  O
  O26      1.0000 0.43809  0.37590  0.03427  Biso   1.000  O
  O27      1.0000 0.93809  0.12410  0.53427  Biso   1.000  O
  O28      1.0000 0.56191  0.62410  0.96573  Biso   1.000  O
  H1       1.0000 0.08290  0.76790  0.48680  Biso   1.000  H
  H2       1.0000 0.41710  0.26790  0.01320  Biso   1.000  H
  H3       1.0000 0.91710  0.23210  0.51320  Biso   1.000  H
  H4       1.0000 0.58290  0.73210  0.98680  Biso   1.000  H
  N1       1.0000 0.98012  0.98940  0.73062  Biso   1.000  N
  N2       1.0000 0.51988  0.48940  0.76938  Biso   1.000  N
  N3       1.0000 0.01988  0.01060  0.26938  Biso   1.000  N
  N4       1.0000 0.48012  0.51060  0.23062  Biso   1.000  N
  N5       1.0000 0.07825  0.01660  0.72410  Biso   1.000  N
  N6       1.0000 0.42175  0.51660  0.77590  Biso   1.000  N
  N7       1.0000 0.92175  0.98340  0.27590  Biso   1.000  N
  N8       1.0000 0.57825  0.48340  0.22410  Biso   1.000  N
  N9       1.0000 0.09963  0.92420  0.88127  Biso   1.000  N
  N10      1.0000 0.40037  0.42420  0.61873  Biso   1.000  N
  N11      1.0000 0.90037  0.07580  0.11873  Biso   1.000  N
  N12      1.0000 0.59963  0.57580  0.38127  Biso   1.000  N
  H5       1.0000 0.12910  0.89150  0.94570  Biso   1.000  H
  H6       1.0000 0.37090  0.39150  0.55430  Biso   1.000  H
  H7       1.0000 0.87090  0.10850  0.05430  Biso   1.000  H
  H8       1.0000 0.62910  0.60850  0.44570  Biso   1.000  H
  C1       1.0000 0.14860  0.97640  0.81614  Biso   1.000  C
  C2       1.0000 0.35140  0.47640  0.68386  Biso   1.000  C
  C3       1.0000 0.85140  0.02360  0.18386  Biso   1.000  C
  C4       1.0000 0.64860  0.52360  0.31614  Biso   1.000  C
  H9       1.0000 0.22180  0.98310  0.83360  Biso   1.000  H
  H10      1.0000 0.27820  0.48310  0.66640  Biso   1.000  H
  H11      1.0000 0.77820  0.01690  0.16640  Biso   1.000  H
  H12      1.0000 0.72180  0.51690  0.33360  Biso   1.000  H
  C5       1.0000 0.99500  0.93330  0.82556  Biso   1.000  C
  C6       1.0000 0.50500  0.43330  0.67444  Biso   1.000  C
  C7       1.0000 0.00500  0.06670  0.17444  Biso   1.000  C
  C8       1.0000 0.49500  0.56670  0.32556  Biso   1.000  C
  H13      1.0000 0.94140  0.90410  0.85090  Biso   1.000  H
  H14      1.0000 0.55860  0.40410  0.64910  Biso   1.000  H
  H15      1.0000 0.05860  0.09590  0.14910  Biso   1.000  H
  H16      1.0000 0.44140  0.59590  0.35090  Biso   1.000  H
  C9       1.0000 0.59921  0.89850  0.69360  Biso   1.000  C
  C10      1.0000 0.90079  0.39850  0.80640  Biso   1.000  C
  C11      1.0000 0.40079  0.10150  0.30640  Biso   1.000  C
  C12      1.0000 0.09921  0.60150  0.19360  Biso   1.000  C
  C13      1.0000 0.49160  0.90360  0.63425  Biso   1.000  C
  C14      1.0000 0.00840  0.40360  0.86575  Biso   1.000  C
  C15      1.0000 0.50840  0.09640  0.36575  Biso   1.000  C
  C16      1.0000 0.99160  0.59640  0.13425  Biso   1.000  C
  H17      1.0000 0.46750  0.86100  0.56560  Biso   1.000  H
  H18      1.0000 0.03250  0.36100  0.93440  Biso   1.000  H
  H19      1.0000 0.53250  0.13900  0.43440  Biso   1.000  H
  H20      1.0000 0.96750  0.63900  0.06560  Biso   1.000  H
  C17      1.0000 0.41960  0.97220  0.67707  Biso   1.000  C
  C18      1.0000 0.08040  0.47220  0.82293  Biso   1.000  C
  C19      1.0000 0.58040  0.02780  0.32293  Biso   1.000  C
  C20      1.0000 0.91960  0.52780  0.17707  Biso   1.000  C
  C21      1.0000 0.45545  0.03250  0.78037  Biso   1.000  C
  C22      1.0000 0.04455  0.53250  0.71963  Biso   1.000  C
  C23      1.0000 0.54455  0.96750  0.21963  Biso   1.000  C
  C24      1.0000 0.95545  0.46750  0.28037  Biso   1.000  C
  H21      1.0000 0.40770  0.08040  0.80880  Biso   1.000  H
  H22      1.0000 0.09230  0.58040  0.69120  Biso   1.000  H
  H23      1.0000 0.59230  0.91960  0.19120  Biso   1.000  H
  H24      1.0000 0.90770  0.41960  0.30880  Biso   1.000  H
  C25      1.0000 0.56284  0.02120  0.84125  Biso   1.000  C
  C26      1.0000 0.93716  0.52120  0.65875  Biso   1.000  C
  C27      1.0000 0.43716  0.97880  0.15875  Biso   1.000  C
  C28      1.0000 0.06284  0.47880  0.34125  Biso   1.000  C
  C29      1.0000 0.63479  0.95590  0.79805  Biso   1.000  C
  C30      1.0000 0.86521  0.45590  0.70195  Biso   1.000  C
  C31      1.0000 0.36521  0.04410  0.20195  Biso   1.000  C
  C32      1.0000 0.13479  0.54410  0.29805  Biso   1.000  C
  H25      1.0000 0.70670  0.95030  0.83850  Biso   1.000  H
  H26      1.0000 0.79330  0.45030  0.66150  Biso   1.000  H
  H27      1.0000 0.29330  0.04970  0.16150  Biso   1.000  H
  H28      1.0000 0.20670  0.54970  0.33850  Biso   1.000  H
  C33      1.0000 0.67722  0.83970  0.64351  Biso   1.000  C
  C34      1.0000 0.82278  0.33970  0.85649  Biso   1.000  C
  C35      1.0000 0.32278  0.16030  0.35649  Biso   1.000  C
  C36      1.0000 0.17722  0.66030  0.14351  Biso   1.000  C
  C37      1.0000 0.30408  0.99080  0.60937  Biso   1.000  C
  C38      1.0000 0.19592  0.49080  0.89063  Biso   1.000  C
  C39      1.0000 0.69592  0.00920  0.39063  Biso   1.000  C
  C40      1.0000 0.80408  0.50920  0.10937  Biso   1.000  C
  C41      1.0000 0.60038  0.08360  0.95414  Biso   1.000  C
  C42      1.0000 0.89962  0.58360  0.54586  Biso   1.000  C
  C43      1.0000 0.39962  0.91640  0.04586  Biso   1.000  C
  C44      1.0000 0.10038  0.41640  0.45414  Biso   1.000  C
