data_image0
_cell_length_a       7.8804
_cell_length_b       24.87
_cell_length_c       10.8961
_cell_angle_alpha    90
_cell_angle_beta     94.315
_cell_angle_gamma    90

_symmetry_space_group_name_H-M    "P 1"
_symmetry_int_tables_number       1

loop_
  _symmetry_equiv_pos_as_xyz
  'x, y, z'

loop_
  _atom_site_label
  _atom_site_occupancy
  _atom_site_fract_x
  _atom_site_fract_y
  _atom_site_fract_z
  _atom_site_thermal_displace_type
  _atom_site_B_iso_or_equiv
  _atom_site_type_symbol
  C1       1.0000 0.36720  0.60615  0.21560  Biso   1.000  C
  C2       1.0000 0.63280  0.10615  0.28440  Biso   1.000  C
  C3       1.0000 0.63280  0.39385  0.78440  Biso   1.000  C
  C4       1.0000 0.36720  0.89385  0.71560  Biso   1.000  C
  C5       1.0000 0.55170  0.58404  0.21090  Biso   1.000  C
  C6       1.0000 0.44830  0.08404  0.28910  Biso   1.000  C
  C7       1.0000 0.44830  0.41596  0.78910  Biso   1.000  C
  C8       1.0000 0.55170  0.91596  0.71090  Biso   1.000  C
  C9       1.0000 0.55630  0.52231  0.22910  Biso   1.000  C
  C10      1.0000 0.44370  0.02231  0.27090  Biso   1.000  C
  C11      1.0000 0.44370  0.47769  0.77090  Biso   1.000  C
  C12      1.0000 0.55630  0.97769  0.72910  Biso   1.000  C
  C13      1.0000 0.08330  0.50980  0.13140  Biso   1.000  C
  C14      1.0000 0.91670  0.00980  0.36860  Biso   1.000  C
  C15      1.0000 0.91670  0.49020  0.86860  Biso   1.000  C
  C16      1.0000 0.08330  0.99020  0.63140  Biso   1.000  C
  C17      1.0000 0.09170  0.45065  0.17620  Biso   1.000  C
  C18      1.0000 0.90830  0.95065  0.32380  Biso   1.000  C
  C19      1.0000 0.90830  0.54935  0.82380  Biso   1.000  C
  C20      1.0000 0.09170  0.04935  0.67620  Biso   1.000  C
  C21      1.0000 0.15290  0.44499  0.31450  Biso   1.000  C
  C22      1.0000 0.84710  0.94499  0.18550  Biso   1.000  C
  C23      1.0000 0.84710  0.55501  0.68550  Biso   1.000  C
  C24      1.0000 0.15290  0.05501  0.81450  Biso   1.000  C
  C25      1.0000 0.32570  0.25120  0.23510  Biso   1.000  C
  C26      1.0000 0.67430  0.75120  0.26490  Biso   1.000  C
  C27      1.0000 0.67430  0.74880  0.76490  Biso   1.000  C
  C28      1.0000 0.32570  0.24880  0.73510  Biso   1.000  C
  C29      1.0000 0.34010  0.25790  0.09490  Biso   1.000  C
  C30      1.0000 0.65990  0.75790  0.40510  Biso   1.000  C
  C31      1.0000 0.65990  0.74210  0.90510  Biso   1.000  C
  C32      1.0000 0.34010  0.24210  0.59490  Biso   1.000  C
  C33      1.0000 0.52020  0.23842  0.06240  Biso   1.000  C
  C34      1.0000 0.47980  0.73842  0.43760  Biso   1.000  C
  C35      1.0000 0.47980  0.76158  0.93760  Biso   1.000  C
  C36      1.0000 0.52020  0.26158  0.56240  Biso   1.000  C
  Cu1      1.0000 0.28200  0.35846  0.20020  Biso   1.000  Cu
  Cu2      1.0000 0.71800  0.85846  0.29980  Biso   1.000  Cu
  Cu3      1.0000 0.71800  0.64154  0.79980  Biso   1.000  Cu
  Cu4      1.0000 0.28200  0.14154  0.70020  Biso   1.000  Cu
  Cu5      1.0000 0.69269  0.53674  0.01250  Biso   1.000  Cu
  Cu6      1.0000 0.30731  0.03674  0.48750  Biso   1.000  Cu
  Cu7      1.0000 0.30731  0.46326  0.98750  Biso   1.000  Cu
  Cu8      1.0000 0.69269  0.96326  0.51250  Biso   1.000  Cu
  Cu9      1.0000 0.49933  0.33882  0.96803  Biso   1.000  Cu
  Cu10     1.0000 0.50067  0.83882  0.53197  Biso   1.000  Cu
  Cu11     1.0000 0.50067  0.66118  0.03197  Biso   1.000  Cu
  Cu12     1.0000 0.49933  0.16118  0.46803  Biso   1.000  Cu
  O1       1.0000 0.32100  0.64027  0.13130  Biso   1.000  O
  O2       1.0000 0.67900  0.14027  0.36870  Biso   1.000  O
  O3       1.0000 0.67900  0.35973  0.86870  Biso   1.000  O
  O4       1.0000 0.32100  0.85973  0.63130  Biso   1.000  O
  O5       1.0000 0.28010  0.59156  0.29750  Biso   1.000  O
  O6       1.0000 0.71990  0.09156  0.20250  Biso   1.000  O
  O7       1.0000 0.71990  0.40844  0.70250  Biso   1.000  O
  O8       1.0000 0.28010  0.90844  0.79750  Biso   1.000  O
  O9       1.0000 0.56320  0.38562  0.17900  Biso   1.000  O
  O10      1.0000 0.43680  0.88562  0.32100  Biso   1.000  O
  O11      1.0000 0.43680  0.61438  0.82100  Biso   1.000  O
  O12      1.0000 0.56320  0.11438  0.67900  Biso   1.000  O
  O13      1.0000 0.58110  0.49455  0.13210  Biso   1.000  O
  O14      1.0000 0.41890  0.99455  0.36790  Biso   1.000  O
  O15      1.0000 0.41890  0.50545  0.86790  Biso   1.000  O
  O16      1.0000 0.58110  0.00545  0.63210  Biso   1.000  O
  O17      1.0000 0.14440  0.76257  0.13590  Biso   1.000  O
  O18      1.0000 0.85560  0.26257  0.36410  Biso   1.000  O
  O19      1.0000 0.85560  0.23743  0.86410  Biso   1.000  O
  O20      1.0000 0.14440  0.73743  0.63590  Biso   1.000  O
  O21      1.0000 0.53820  0.50308  0.33030  Biso   1.000  O
  O22      1.0000 0.46180  0.00308  0.16970  Biso   1.000  O
  O23      1.0000 0.46180  0.49692  0.66970  Biso   1.000  O
  O24      1.0000 0.53820  0.99692  0.83030  Biso   1.000  O
  O25      1.0000 0.18000  0.62627  0.61470  Biso   1.000  O
  O26      1.0000 0.82000  0.12627  0.88530  Biso   1.000  O
  O27      1.0000 0.82000  0.37373  0.38530  Biso   1.000  O
  O28      1.0000 0.18000  0.87373  0.11470  Biso   1.000  O
  O29      1.0000 0.61540  0.59773  0.09890  Biso   1.000  O
  O30      1.0000 0.38460  0.09773  0.40110  Biso   1.000  O
  O31      1.0000 0.38460  0.40227  0.90110  Biso   1.000  O
  O32      1.0000 0.61540  0.90227  0.59890  Biso   1.000  O
  O33      1.0000 0.06840  0.69130  0.33930  Biso   1.000  O
  O34      1.0000 0.93160  0.19130  0.16070  Biso   1.000  O
  O35      1.0000 0.93160  0.30870  0.66070  Biso   1.000  O
  O36      1.0000 0.06840  0.80870  0.83930  Biso   1.000  O
  O37      1.0000 0.65480  0.60520  0.31110  Biso   1.000  O
  O38      1.0000 0.34520  0.10520  0.18890  Biso   1.000  O
  O39      1.0000 0.34520  0.39480  0.68890  Biso   1.000  O
  O40      1.0000 0.65480  0.89480  0.81110  Biso   1.000  O
  O41      1.0000 0.07000  0.68130  0.88010  Biso   1.000  O
  O42      1.0000 0.93000  0.18130  0.61990  Biso   1.000  O
  O43      1.0000 0.93000  0.31870  0.11990  Biso   1.000  O
  O44      1.0000 0.07000  0.81870  0.38010  Biso   1.000  O
  O45      1.0000 0.97010  0.53955  0.16420  Biso   1.000  O
  O46      1.0000 0.02990  0.03955  0.33580  Biso   1.000  O
  O47      1.0000 0.02990  0.46045  0.83580  Biso   1.000  O
  O48      1.0000 0.97010  0.96045  0.66420  Biso   1.000  O
  O49      1.0000 0.19340  0.52334  0.05730  Biso   1.000  O
  O50      1.0000 0.80660  0.02334  0.44270  Biso   1.000  O
  O51      1.0000 0.80660  0.47666  0.94270  Biso   1.000  O
  O52      1.0000 0.19340  0.97666  0.55730  Biso   1.000  O
  O53      1.0000 0.11860  0.47843  0.39070  Biso   1.000  O
  O54      1.0000 0.88140  0.97843  0.10930  Biso   1.000  O
  O55      1.0000 0.88140  0.52157  0.60930  Biso   1.000  O
  O56      1.0000 0.11860  0.02157  0.89070  Biso   1.000  O
  O57      1.0000 0.23250  0.40098  0.34060  Biso   1.000  O
  O58      1.0000 0.76750  0.90098  0.15940  Biso   1.000  O
  O59      1.0000 0.76750  0.59902  0.65940  Biso   1.000  O
  O60      1.0000 0.23250  0.09902  0.84060  Biso   1.000  O
  O61      1.0000 0.19770  0.42073  0.10560  Biso   1.000  O
  O62      1.0000 0.80230  0.92073  0.39440  Biso   1.000  O
  O63      1.0000 0.80230  0.57927  0.89440  Biso   1.000  O
  O64      1.0000 0.19770  0.07927  0.60560  Biso   1.000  O
  O65      1.0000 0.92700  0.42786  0.16960  Biso   1.000  O
  O66      1.0000 0.07300  0.92786  0.33040  Biso   1.000  O
  O67      1.0000 0.07300  0.57214  0.83040  Biso   1.000  O
  O68      1.0000 0.92700  0.07214  0.66960  Biso   1.000  O
  O69      1.0000 0.61520  0.27393  0.01890  Biso   1.000  O
  O70      1.0000 0.38480  0.77393  0.48110  Biso   1.000  O
  O71      1.0000 0.38480  0.72607  0.98110  Biso   1.000  O
  O72      1.0000 0.61520  0.22607  0.51890  Biso   1.000  O
  O73      1.0000 0.56150  0.19132  0.07910  Biso   1.000  O
  O74      1.0000 0.43850  0.69132  0.42090  Biso   1.000  O
  O75      1.0000 0.43850  0.80868  0.92090  Biso   1.000  O
  O76      1.0000 0.56150  0.30868  0.57910  Biso   1.000  O
  O77      1.0000 0.31610  0.31188  0.06180  Biso   1.000  O
  O78      1.0000 0.68390  0.81188  0.43820  Biso   1.000  O
  O79      1.0000 0.68390  0.68812  0.93820  Biso   1.000  O
  O80      1.0000 0.31610  0.18812  0.56180  Biso   1.000  O
  O81      1.0000 0.31540  0.29389  0.29740  Biso   1.000  O
  O82      1.0000 0.68460  0.79389  0.20260  Biso   1.000  O
  O83      1.0000 0.68460  0.70611  0.70260  Biso   1.000  O
  O84      1.0000 0.31540  0.20611  0.79740  Biso   1.000  O
  O85      1.0000 0.32410  0.20578  0.28000  Biso   1.000  O
  O86      1.0000 0.67590  0.70578  0.22000  Biso   1.000  O
  O87      1.0000 0.67590  0.79422  0.72000  Biso   1.000  O
  O88      1.0000 0.32410  0.29422  0.78000  Biso   1.000  O
  O89      1.0000 0.21530  0.22463  0.03710  Biso   1.000  O
  O90      1.0000 0.78470  0.72463  0.46290  Biso   1.000  O
  O91      1.0000 0.78470  0.77537  0.96290  Biso   1.000  O
  O92      1.0000 0.21530  0.27537  0.53710  Biso   1.000  O
  K1       1.0000 0.97808  0.57581  0.40393  Biso   1.000  K
  K2       1.0000 0.02192  0.07581  0.09607  Biso   1.000  K
  K3       1.0000 0.02192  0.42419  0.59607  Biso   1.000  K
  K4       1.0000 0.97808  0.92419  0.90393  Biso   1.000  K
  K5       1.0000 0.95813  0.65162  0.10458  Biso   1.000  K
  K6       1.0000 0.04187  0.15162  0.39542  Biso   1.000  K
  K7       1.0000 0.04187  0.34838  0.89542  Biso   1.000  K
  K8       1.0000 0.95813  0.84838  0.60458  Biso   1.000  K
  K9       1.0000 0.52959  0.41790  0.48647  Biso   1.000  K
  K10      1.0000 0.47041  0.91790  0.01353  Biso   1.000  K
  K11      1.0000 0.47041  0.58210  0.51353  Biso   1.000  K
  K12      1.0000 0.52959  0.08210  0.98647  Biso   1.000  K
  H1       1.0000 0.24000  0.22120  0.97000  Biso   1.000  H
  H2       1.0000 0.76000  0.72120  0.53000  Biso   1.000  H
  H3       1.0000 0.76000  0.77880  0.03000  Biso   1.000  H
  H4       1.0000 0.24000  0.27880  0.47000  Biso   1.000  H
  H5       1.0000 0.87700  0.43580  0.10800  Biso   1.000  H
  H6       1.0000 0.12300  0.93580  0.39200  Biso   1.000  H
  H7       1.0000 0.12300  0.56420  0.89200  Biso   1.000  H
  H8       1.0000 0.87700  0.06420  0.60800  Biso   1.000  H
  H9       1.0000 0.66000  0.63130  0.30700  Biso   1.000  H
  H10      1.0000 0.34000  0.13130  0.19300  Biso   1.000  H
  H11      1.0000 0.34000  0.36870  0.69300  Biso   1.000  H
  H12      1.0000 0.66000  0.86870  0.80700  Biso   1.000  H
