data_image0
_cell_length_a       17.709
_cell_length_b       17.992
_cell_length_c       18.445
_cell_angle_alpha    90
_cell_angle_beta     90
_cell_angle_gamma    90

_symmetry_space_group_name_H-M    "P 1"
_symmetry_int_tables_number       1

loop_
  _symmetry_equiv_pos_as_xyz
  'x, y, z'

loop_
  _atom_site_label
  _atom_site_occupancy
  _atom_site_fract_x
  _atom_site_fract_y
  _atom_site_fract_z
  _atom_site_thermal_displace_type
  _atom_site_B_iso_or_equiv
  _atom_site_type_symbol
  C1       1.0000 0.53120  0.26820  0.17900  Biso   1.000  C
  C2       1.0000 0.96880  0.73180  0.67900  Biso   1.000  C
  C3       1.0000 0.03120  0.23180  0.82100  Biso   1.000  C
  C4       1.0000 0.46880  0.76820  0.32100  Biso   1.000  C
  C5       1.0000 0.51190  0.23810  0.10030  Biso   1.000  C
  C6       1.0000 0.98810  0.76190  0.60030  Biso   1.000  C
  C7       1.0000 0.01190  0.26190  0.89970  Biso   1.000  C
  C8       1.0000 0.48810  0.73810  0.39970  Biso   1.000  C
  C9       1.0000 0.47980  0.30310  0.05440  Biso   1.000  C
  C10      1.0000 0.02020  0.69690  0.55440  Biso   1.000  C
  C11      1.0000 0.97980  0.19690  0.94560  Biso   1.000  C
  C12      1.0000 0.52020  0.80310  0.44560  Biso   1.000  C
  C13      1.0000 0.74270  0.32580  0.02870  Biso   1.000  C
  C14      1.0000 0.75730  0.67420  0.52870  Biso   1.000  C
  C15      1.0000 0.24270  0.17420  0.97130  Biso   1.000  C
  C16      1.0000 0.25730  0.82580  0.47130  Biso   1.000  C
  C17      1.0000 0.77070  0.40370  0.00470  Biso   1.000  C
  C18      1.0000 0.72930  0.59630  0.50470  Biso   1.000  C
  C19      1.0000 0.27070  0.09630  0.99530  Biso   1.000  C
  C20      1.0000 0.22930  0.90370  0.49530  Biso   1.000  C
  C21      1.0000 0.70260  0.44830  0.97250  Biso   1.000  C
  C22      1.0000 0.79740  0.55170  0.47250  Biso   1.000  C
  C23      1.0000 0.20260  0.05170  0.02750  Biso   1.000  C
  C24      1.0000 0.29740  0.94830  0.52750  Biso   1.000  C
  C25      1.0000 0.68160  0.48410  0.23370  Biso   1.000  C
  C26      1.0000 0.81840  0.51590  0.73370  Biso   1.000  C
  C27      1.0000 0.18160  0.01590  0.76630  Biso   1.000  C
  C28      1.0000 0.31840  0.98410  0.26630  Biso   1.000  C
  C29      1.0000 0.59750  0.50380  0.26290  Biso   1.000  C
  C30      1.0000 0.90250  0.49620  0.76290  Biso   1.000  C
  C31      1.0000 0.09750  0.99620  0.73710  Biso   1.000  C
  C32      1.0000 0.40250  0.00380  0.23710  Biso   1.000  C
  C33      1.0000 0.55330  0.53310  0.19570  Biso   1.000  C
  C34      1.0000 0.94670  0.46690  0.69570  Biso   1.000  C
  C35      1.0000 0.05330  0.96690  0.80430  Biso   1.000  C
  C36      1.0000 0.44670  0.03310  0.30430  Biso   1.000  C
  O1       1.0000 0.50730  0.23100  0.23100  Biso   1.000  O
  O2       1.0000 0.99270  0.76900  0.73100  Biso   1.000  O
  O3       1.0000 0.00730  0.26900  0.76900  Biso   1.000  O
  O4       1.0000 0.49270  0.73100  0.26900  Biso   1.000  O
  O5       1.0000 0.56810  0.32590  0.18610  Biso   1.000  O
  O6       1.0000 0.93190  0.67410  0.68610  Biso   1.000  O
  O7       1.0000 0.06810  0.17410  0.81390  Biso   1.000  O
  O8       1.0000 0.43190  0.82590  0.31390  Biso   1.000  O
  O9       1.0000 0.41410  0.29530  0.03110  Biso   1.000  O
  O10      1.0000 0.08590  0.70470  0.53110  Biso   1.000  O
  O11      1.0000 0.91410  0.20470  0.96890  Biso   1.000  O
  O12      1.0000 0.58590  0.79530  0.46890  Biso   1.000  O
  O13      1.0000 0.51870  0.35760  0.04180  Biso   1.000  O
  O14      1.0000 0.98130  0.64240  0.54180  Biso   1.000  O
  O15      1.0000 0.01870  0.14240  0.95820  Biso   1.000  O
  O16      1.0000 0.48130  0.85760  0.45820  Biso   1.000  O
  O17      1.0000 0.45970  0.18190  0.10590  Biso   1.000  O
  O18      1.0000 0.04030  0.81810  0.60590  Biso   1.000  O
  O19      1.0000 0.95970  0.31810  0.89410  Biso   1.000  O
  O20      1.0000 0.54030  0.68190  0.39410  Biso   1.000  O
  O21      1.0000 0.57890  0.21210  0.07110  Biso   1.000  O
  O22      1.0000 0.92110  0.78790  0.57110  Biso   1.000  O
  O23      1.0000 0.07890  0.28790  0.92890  Biso   1.000  O
  O24      1.0000 0.42110  0.71210  0.42890  Biso   1.000  O
  O25      1.0000 0.68830  0.32160  0.07130  Biso   1.000  O
  O26      1.0000 0.81170  0.67840  0.57130  Biso   1.000  O
  O27      1.0000 0.18830  0.17840  0.92870  Biso   1.000  O
  O28      1.0000 0.31170  0.82160  0.42870  Biso   1.000  O
  O29      1.0000 0.78110  0.27140  0.00600  Biso   1.000  O
  O30      1.0000 0.71890  0.72860  0.50600  Biso   1.000  O
  O31      1.0000 0.28110  0.22860  0.99400  Biso   1.000  O
  O32      1.0000 0.21890  0.77140  0.49400  Biso   1.000  O
  O33      1.0000 0.65040  0.46570  0.01550  Biso   1.000  O
  O34      1.0000 0.84960  0.53430  0.51550  Biso   1.000  O
  O35      1.0000 0.15040  0.03430  0.98450  Biso   1.000  O
  O36      1.0000 0.34960  0.96570  0.48450  Biso   1.000  O
  O37      1.0000 0.70540  0.46430  0.90860  Biso   1.000  O
  O38      1.0000 0.79460  0.53570  0.40860  Biso   1.000  O
  O39      1.0000 0.20540  0.03570  0.09140  Biso   1.000  O
  O40      1.0000 0.29460  0.96430  0.59140  Biso   1.000  O
  O41      1.0000 0.82710  0.39890  0.95140  Biso   1.000  O
  O42      1.0000 0.67290  0.60110  0.45140  Biso   1.000  O
  O43      1.0000 0.32710  0.10110  0.04860  Biso   1.000  O
  O44      1.0000 0.17290  0.89890  0.54860  Biso   1.000  O
  O45      1.0000 0.80190  0.43980  0.06430  Biso   1.000  O
  O46      1.0000 0.69810  0.56020  0.56430  Biso   1.000  O
  O47      1.0000 0.30190  0.06020  0.93570  Biso   1.000  O
  O48      1.0000 0.19810  0.93980  0.43570  Biso   1.000  O
  O49      1.0000 0.53030  0.59810  0.20270  Biso   1.000  O
  O50      1.0000 0.96970  0.40190  0.70270  Biso   1.000  O
  O51      1.0000 0.03030  0.90190  0.79730  Biso   1.000  O
  O52      1.0000 0.46970  0.09810  0.29730  Biso   1.000  O
  O53      1.0000 0.53720  0.49230  0.14670  Biso   1.000  O
  O54      1.0000 0.96280  0.50770  0.64670  Biso   1.000  O
  O55      1.0000 0.03720  0.00770  0.85330  Biso   1.000  O
  O56      1.0000 0.46280  0.99230  0.35330  Biso   1.000  O
  O57      1.0000 0.60300  0.55240  0.31790  Biso   1.000  O
  O58      1.0000 0.89700  0.44760  0.81790  Biso   1.000  O
  O59      1.0000 0.10300  0.94760  0.68210  Biso   1.000  O
  O60      1.0000 0.39700  0.05240  0.18210  Biso   1.000  O
  O61      1.0000 0.73590  0.50750  0.27380  Biso   1.000  O
  O62      1.0000 0.76410  0.49250  0.77380  Biso   1.000  O
  O63      1.0000 0.23590  0.99250  0.72620  Biso   1.000  O
  O64      1.0000 0.26410  0.00750  0.22620  Biso   1.000  O
  O65      1.0000 0.68970  0.44800  0.17810  Biso   1.000  O
  O66      1.0000 0.81030  0.55200  0.67810  Biso   1.000  O
  O67      1.0000 0.18970  0.05200  0.82190  Biso   1.000  O
  O68      1.0000 0.31030  0.94800  0.32190  Biso   1.000  O
  O69      1.0000 0.56840  0.43780  0.28860  Biso   1.000  O
  O70      1.0000 0.93160  0.56220  0.78860  Biso   1.000  O
  O71      1.0000 0.06840  0.06220  0.71140  Biso   1.000  O
  O72      1.0000 0.43160  0.93780  0.21140  Biso   1.000  O
  Co1      1.0000 0.60581  0.40481  0.10446  Biso   1.000  Co
  Co2      1.0000 0.89419  0.59519  0.60446  Biso   1.000  Co
  Co3      1.0000 0.10581  0.09519  0.89554  Biso   1.000  Co
  Co4      1.0000 0.39419  0.90481  0.39554  Biso   1.000  Co
  Cu1      1.0000 0.79660  0.43920  0.85873  Biso   1.000  Cu
  Cu2      1.0000 0.70340  0.56080  0.35873  Biso   1.000  Cu
  Cu3      1.0000 0.29660  0.06080  0.14127  Biso   1.000  Cu
  Cu4      1.0000 0.20340  0.93920  0.64127  Biso   1.000  Cu
  Cu5      1.0000 0.36519  0.20320  0.05585  Biso   1.000  Cu
  Cu6      1.0000 0.13481  0.79680  0.55585  Biso   1.000  Cu
  Cu7      1.0000 0.86519  0.29680  0.94415  Biso   1.000  Cu
  Cu8      1.0000 0.63481  0.70320  0.44415  Biso   1.000  Cu
  Cu9      1.0000 0.44808  0.14535  0.20518  Biso   1.000  Cu
  Cu10     1.0000 0.05192  0.85465  0.70518  Biso   1.000  Cu
  Cu11     1.0000 0.94808  0.35465  0.79482  Biso   1.000  Cu
  Cu12     1.0000 0.55192  0.64535  0.29482  Biso   1.000  Cu
  Cl1      1.0000 0.80690  0.29710  0.81240  Biso   1.000  Cl
  Cl2      1.0000 0.69310  0.70290  0.31240  Biso   1.000  Cl
  Cl3      1.0000 0.30690  0.20290  0.18760  Biso   1.000  Cl
  Cl4      1.0000 0.19310  0.79710  0.68760  Biso   1.000  Cl
  P1       1.0000 0.15860  0.32940  0.32840  Biso   1.000  P
  P2       1.0000 0.34140  0.67060  0.82840  Biso   1.000  P
  P3       1.0000 0.65860  0.17060  0.67160  Biso   1.000  P
  P4       1.0000 0.84140  0.82940  0.17160  Biso   1.000  P
  P5       1.0000 0.87530  0.11660  0.39280  Biso   1.000  P
  P6       1.0000 0.62470  0.88340  0.89280  Biso   1.000  P
  P7       1.0000 0.37530  0.38340  0.60720  Biso   1.000  P
  P8       1.0000 0.12470  0.61660  0.10720  Biso   1.000  P
  C37      1.0000 0.94750  0.07380  0.34450  Biso   1.000  C
  C38      1.0000 0.55250  0.92620  0.84450  Biso   1.000  C
  C39      1.0000 0.44750  0.42620  0.65550  Biso   1.000  C
  C40      1.0000 0.05250  0.57380  0.15550  Biso   1.000  C
  C41      1.0000 0.01360  0.07720  0.37260  Biso   1.000  C
  C42      1.0000 0.48640  0.92280  0.87260  Biso   1.000  C
  C43      1.0000 0.51360  0.42280  0.62740  Biso   1.000  C
  C44      1.0000 0.98640  0.57720  0.12740  Biso   1.000  C
  H1       1.0000 0.02360  0.10640  0.41310  Biso   1.000  H
  H2       1.0000 0.47640  0.89360  0.91310  Biso   1.000  H
  H3       1.0000 0.52360  0.39360  0.58690  Biso   1.000  H
  H4       1.0000 0.97640  0.60640  0.08690  Biso   1.000  H
  C45      1.0000 0.92740  0.05400  0.26620  Biso   1.000  C
  C46      1.0000 0.57260  0.94600  0.76620  Biso   1.000  C
  C47      1.0000 0.42740  0.44600  0.73380  Biso   1.000  C
  C48      1.0000 0.07260  0.55400  0.23380  Biso   1.000  C
  H5       1.0000 0.88350  0.06310  0.24000  Biso   1.000  H
  H6       1.0000 0.61650  0.93690  0.74000  Biso   1.000  H
  H7       1.0000 0.38350  0.43690  0.76000  Biso   1.000  H
  H8       1.0000 0.11650  0.56310  0.26000  Biso   1.000  H
  C49      1.0000 0.07600  0.03030  0.33580  Biso   1.000  C
  C50      1.0000 0.42400  0.96970  0.83580  Biso   1.000  C
  C51      1.0000 0.57600  0.46970  0.66420  Biso   1.000  C
  C52      1.0000 0.92400  0.53030  0.16420  Biso   1.000  C
  H9       1.0000 0.12600  0.02820  0.35120  Biso   1.000  H
  H10      1.0000 0.37400  0.97180  0.85120  Biso   1.000  H
  H11      1.0000 0.62600  0.47180  0.64880  Biso   1.000  H
  H12      1.0000 0.87400  0.52820  0.14880  Biso   1.000  H
  C53      1.0000 0.05460  0.00140  0.29160  Biso   1.000  C
  C54      1.0000 0.44540  0.99860  0.79160  Biso   1.000  C
  C55      1.0000 0.55460  0.49860  0.70840  Biso   1.000  C
  C56      1.0000 0.94540  0.50140  0.20840  Biso   1.000  C
  H13      1.0000 0.07920  0.95660  0.28310  Biso   1.000  H
  H14      1.0000 0.42080  0.04340  0.78310  Biso   1.000  H
  H15      1.0000 0.57920  0.54340  0.71690  Biso   1.000  H
  H16      1.0000 0.92080  0.45660  0.21690  Biso   1.000  H
  C57      1.0000 0.99830  0.01500  0.24370  Biso   1.000  C
  C58      1.0000 0.50170  0.98500  0.74370  Biso   1.000  C
  C59      1.0000 0.49830  0.48500  0.75630  Biso   1.000  C
  C60      1.0000 0.00170  0.51500  0.25630  Biso   1.000  C
  H17      1.0000 0.00390  0.00050  0.19570  Biso   1.000  H
  H18      1.0000 0.49610  0.99950  0.69570  Biso   1.000  H
  H19      1.0000 0.50390  0.49950  0.80430  Biso   1.000  H
  H20      1.0000 0.99610  0.50050  0.30430  Biso   1.000  H
  C61      1.0000 0.84430  0.19550  0.34350  Biso   1.000  C
  C62      1.0000 0.65570  0.80450  0.84350  Biso   1.000  C
  C63      1.0000 0.34430  0.30450  0.65650  Biso   1.000  C
  C64      1.0000 0.15570  0.69550  0.15650  Biso   1.000  C
  C65      1.0000 0.86230  0.25960  0.36710  Biso   1.000  C
  C66      1.0000 0.63770  0.74040  0.86710  Biso   1.000  C
  C67      1.0000 0.36230  0.24040  0.63290  Biso   1.000  C
  C68      1.0000 0.13770  0.75960  0.13290  Biso   1.000  C
  H21      1.0000 0.88180  0.26060  0.41390  Biso   1.000  H
  H22      1.0000 0.61820  0.73940  0.91390  Biso   1.000  H
  H23      1.0000 0.38180  0.23940  0.58610  Biso   1.000  H
  H24      1.0000 0.11820  0.76060  0.08610  Biso   1.000  H
  C69      1.0000 0.80300  0.18950  0.29170  Biso   1.000  C
  C70      1.0000 0.69700  0.81050  0.79170  Biso   1.000  C
  C71      1.0000 0.30300  0.31050  0.70830  Biso   1.000  C
  C72      1.0000 0.19700  0.68950  0.20830  Biso   1.000  C
  H25      1.0000 0.77690  0.14650  0.28050  Biso   1.000  H
  H26      1.0000 0.72310  0.85350  0.78050  Biso   1.000  H
  H27      1.0000 0.27690  0.35350  0.71950  Biso   1.000  H
  H28      1.0000 0.22310  0.64650  0.21950  Biso   1.000  H
  C73      1.0000 0.85700  0.32870  0.33200  Biso   1.000  C
  C74      1.0000 0.64300  0.67130  0.83200  Biso   1.000  C
  C75      1.0000 0.35700  0.17130  0.66800  Biso   1.000  C
  C76      1.0000 0.14300  0.82870  0.16800  Biso   1.000  C
  H29      1.0000 0.87100  0.37450  0.35160  Biso   1.000  H
  H30      1.0000 0.62900  0.62550  0.85160  Biso   1.000  H
  H31      1.0000 0.37100  0.12550  0.64840  Biso   1.000  H
  H32      1.0000 0.12900  0.87450  0.14840  Biso   1.000  H
  C77      1.0000 0.80000  0.26200  0.24500  Biso   1.000  C
  C78      1.0000 0.70000  0.73800  0.74500  Biso   1.000  C
  C79      1.0000 0.30000  0.23800  0.75500  Biso   1.000  C
  C80      1.0000 0.20000  0.76200  0.25500  Biso   1.000  C
  H33      1.0000 0.77720  0.26430  0.20020  Biso   1.000  H
  H34      1.0000 0.72280  0.73570  0.70020  Biso   1.000  H
  H35      1.0000 0.27720  0.23570  0.79980  Biso   1.000  H
  H36      1.0000 0.22280  0.76430  0.29980  Biso   1.000  H
  C81      1.0000 0.83100  0.31800  0.27400  Biso   1.000  C
  C82      1.0000 0.66900  0.68200  0.77400  Biso   1.000  C
  C83      1.0000 0.33100  0.18200  0.72600  Biso   1.000  C
  C84      1.0000 0.16900  0.81800  0.22600  Biso   1.000  C
  H37      1.0000 0.83430  0.35870  0.24330  Biso   1.000  H
  H38      1.0000 0.66570  0.64130  0.74330  Biso   1.000  H
  H39      1.0000 0.33430  0.14130  0.75670  Biso   1.000  H
  H40      1.0000 0.16570  0.85870  0.25670  Biso   1.000  H
  C85      1.0000 0.80270  0.05640  0.40930  Biso   1.000  C
  C86      1.0000 0.69730  0.94360  0.90930  Biso   1.000  C
  C87      1.0000 0.30270  0.44360  0.59070  Biso   1.000  C
  C88      1.0000 0.19730  0.55640  0.09070  Biso   1.000  C
  C89      1.0000 0.81310  0.98160  0.42600  Biso   1.000  C
  C90      1.0000 0.68690  0.01840  0.92600  Biso   1.000  C
  C91      1.0000 0.31310  0.51840  0.57400  Biso   1.000  C
  C92      1.0000 0.18690  0.48160  0.07400  Biso   1.000  C
  H41      1.0000 0.86140  0.96140  0.42560  Biso   1.000  H
  H42      1.0000 0.63860  0.03860  0.92560  Biso   1.000  H
  H43      1.0000 0.36140  0.53860  0.57440  Biso   1.000  H
  H44      1.0000 0.13860  0.46140  0.07440  Biso   1.000  H
  C93      1.0000 0.75100  0.93710  0.44200  Biso   1.000  C
  C94      1.0000 0.74900  0.06290  0.94200  Biso   1.000  C
  C95      1.0000 0.25100  0.56290  0.55800  Biso   1.000  C
  C96      1.0000 0.24900  0.43710  0.05800  Biso   1.000  C
  H45      1.0000 0.75810  0.88710  0.45250  Biso   1.000  H
  H46      1.0000 0.74190  0.11290  0.95250  Biso   1.000  H
  H47      1.0000 0.25810  0.61290  0.54750  Biso   1.000  H
  H48      1.0000 0.24190  0.38710  0.04750  Biso   1.000  H
  C97      1.0000 0.67890  0.96700  0.44160  Biso   1.000  C
  C98      1.0000 0.82110  0.03300  0.94160  Biso   1.000  C
  C99      1.0000 0.17890  0.53300  0.55840  Biso   1.000  C
  C100     1.0000 0.32110  0.46700  0.05840  Biso   1.000  C
  H49      1.0000 0.63750  0.93750  0.45240  Biso   1.000  H
  H50      1.0000 0.86250  0.06250  0.95240  Biso   1.000  H
  H51      1.0000 0.13750  0.56250  0.54760  Biso   1.000  H
  H52      1.0000 0.36250  0.43750  0.04760  Biso   1.000  H
  C101     1.0000 0.66860  0.04200  0.42500  Biso   1.000  C
  C102     1.0000 0.83140  0.95800  0.92500  Biso   1.000  C
  C103     1.0000 0.16860  0.45800  0.57500  Biso   1.000  C
  C104     1.0000 0.33140  0.54200  0.07500  Biso   1.000  C
  H53      1.0000 0.62020  0.06220  0.42530  Biso   1.000  H
  H54      1.0000 0.87980  0.93780  0.92530  Biso   1.000  H
  H55      1.0000 0.12020  0.43780  0.57470  Biso   1.000  H
  H56      1.0000 0.37980  0.56220  0.07470  Biso   1.000  H
  C105     1.0000 0.73040  0.08660  0.40900  Biso   1.000  C
  C106     1.0000 0.76960  0.91340  0.90900  Biso   1.000  C
  C107     1.0000 0.23040  0.41340  0.59100  Biso   1.000  C
  C108     1.0000 0.26960  0.58660  0.09100  Biso   1.000  C
  H57      1.0000 0.72350  0.13660  0.39840  Biso   1.000  H
  H58      1.0000 0.77650  0.86340  0.89840  Biso   1.000  H
  H59      1.0000 0.22350  0.36340  0.60160  Biso   1.000  H
  H60      1.0000 0.27650  0.63660  0.10160  Biso   1.000  H
  C109     1.0000 0.91350  0.15090  0.47730  Biso   1.000  C
  C110     1.0000 0.58650  0.84910  0.97730  Biso   1.000  C
  C111     1.0000 0.41350  0.34910  0.52270  Biso   1.000  C
  C112     1.0000 0.08650  0.65090  0.02270  Biso   1.000  C
  C113     1.0000 0.96170  0.17430  0.60140  Biso   1.000  C
  C114     1.0000 0.53830  0.82570  0.10140  Biso   1.000  C
  C115     1.0000 0.46170  0.32570  0.39860  Biso   1.000  C
  C116     1.0000 0.03830  0.67430  0.89860  Biso   1.000  C
  H61      1.0000 0.97430  0.18990  0.64790  Biso   1.000  H
  H62      1.0000 0.52570  0.81010  0.14790  Biso   1.000  H
  H63      1.0000 0.47430  0.31010  0.35210  Biso   1.000  H
  H64      1.0000 0.02570  0.68990  0.85210  Biso   1.000  H
  C117     1.0000 0.90040  0.09070  0.53590  Biso   1.000  C
  C118     1.0000 0.59960  0.90930  0.03590  Biso   1.000  C
  C119     1.0000 0.40040  0.40930  0.46410  Biso   1.000  C
  C120     1.0000 0.09960  0.59070  0.96410  Biso   1.000  C
  H65      1.0000 0.87370  0.04660  0.53060  Biso   1.000  H
  H66      1.0000 0.62630  0.95340  0.03060  Biso   1.000  H
  H67      1.0000 0.37370  0.45340  0.46940  Biso   1.000  H
  H68      1.0000 0.12630  0.54660  0.96940  Biso   1.000  H
  C121     1.0000 0.97870  0.23380  0.54380  Biso   1.000  C
  C122     1.0000 0.52130  0.76620  0.04380  Biso   1.000  C
  C123     1.0000 0.47870  0.26620  0.45620  Biso   1.000  C
  C124     1.0000 0.02130  0.73380  0.95620  Biso   1.000  C
  H69      1.0000 0.99730  0.28090  0.55450  Biso   1.000  H
  H70      1.0000 0.50270  0.71910  0.05450  Biso   1.000  H
  H71      1.0000 0.49730  0.21910  0.44550  Biso   1.000  H
  H72      1.0000 0.00270  0.78090  0.94550  Biso   1.000  H
  C125     1.0000 0.96160  0.20660  0.46640  Biso   1.000  C
  C126     1.0000 0.53840  0.79340  0.96640  Biso   1.000  C
  C127     1.0000 0.46160  0.29340  0.53360  Biso   1.000  C
  C128     1.0000 0.03840  0.70660  0.03360  Biso   1.000  C
  H73      1.0000 0.98020  0.22470  0.42270  Biso   1.000  H
  H74      1.0000 0.51980  0.77530  0.92270  Biso   1.000  H
  H75      1.0000 0.48020  0.27530  0.57730  Biso   1.000  H
  H76      1.0000 0.01980  0.72470  0.07730  Biso   1.000  H
  C129     1.0000 0.93780  0.11680  0.60050  Biso   1.000  C
  C130     1.0000 0.56220  0.88320  0.10050  Biso   1.000  C
  C131     1.0000 0.43780  0.38320  0.39950  Biso   1.000  C
  C132     1.0000 0.06220  0.61680  0.89950  Biso   1.000  C
  H77      1.0000 0.94200  0.08620  0.64090  Biso   1.000  H
  H78      1.0000 0.55800  0.91380  0.14090  Biso   1.000  H
  H79      1.0000 0.44200  0.41380  0.35910  Biso   1.000  H
  H80      1.0000 0.05800  0.58620  0.85910  Biso   1.000  H
  C133     1.0000 0.12080  0.29860  0.24160  Biso   1.000  C
  C134     1.0000 0.37920  0.70140  0.74160  Biso   1.000  C
  C135     1.0000 0.62080  0.20140  0.75840  Biso   1.000  C
  C136     1.0000 0.87920  0.79860  0.25840  Biso   1.000  C
  C137     1.0000 0.12060  0.22140  0.24030  Biso   1.000  C
  C138     1.0000 0.37940  0.77860  0.74030  Biso   1.000  C
  C139     1.0000 0.62060  0.27860  0.75970  Biso   1.000  C
  C140     1.0000 0.87940  0.72140  0.25970  Biso   1.000  C
  H81      1.0000 0.14320  0.19480  0.27770  Biso   1.000  H
  H82      1.0000 0.35680  0.80520  0.77770  Biso   1.000  H
  H83      1.0000 0.64320  0.30520  0.72230  Biso   1.000  H
  H84      1.0000 0.85680  0.69480  0.22230  Biso   1.000  H
  C141     1.0000 0.08650  0.18380  0.18320  Biso   1.000  C
  C142     1.0000 0.41350  0.81620  0.68320  Biso   1.000  C
  C143     1.0000 0.58650  0.31620  0.81680  Biso   1.000  C
  C144     1.0000 0.91350  0.68380  0.31680  Biso   1.000  C
  H85      1.0000 0.08630  0.13220  0.18230  Biso   1.000  H
  H86      1.0000 0.41370  0.86780  0.68230  Biso   1.000  H
  H87      1.0000 0.58630  0.36780  0.81770  Biso   1.000  H
  H88      1.0000 0.91370  0.63220  0.31770  Biso   1.000  H
  C145     1.0000 0.05260  0.22350  0.12730  Biso   1.000  C
  C146     1.0000 0.44740  0.77650  0.62730  Biso   1.000  C
  C147     1.0000 0.55260  0.27650  0.87270  Biso   1.000  C
  C148     1.0000 0.94740  0.72350  0.37270  Biso   1.000  C
  H89      1.0000 0.02980  0.19840  0.08910  Biso   1.000  H
  H90      1.0000 0.47020  0.80160  0.58910  Biso   1.000  H
  H91      1.0000 0.52980  0.30160  0.91090  Biso   1.000  H
  H92      1.0000 0.97020  0.69840  0.41090  Biso   1.000  H
  C149     1.0000 0.05290  0.30080  0.12860  Biso   1.000  C
  C150     1.0000 0.44710  0.69920  0.62860  Biso   1.000  C
  C151     1.0000 0.55290  0.19920  0.87140  Biso   1.000  C
  C152     1.0000 0.94710  0.80080  0.37140  Biso   1.000  C
  H93      1.0000 0.03020  0.32740  0.09120  Biso   1.000  H
  H94      1.0000 0.46980  0.67260  0.59120  Biso   1.000  H
  H95      1.0000 0.53020  0.17260  0.90880  Biso   1.000  H
  H96      1.0000 0.96980  0.82740  0.40880  Biso   1.000  H
  C153     1.0000 0.08700  0.33830  0.18570  Biso   1.000  C
  C154     1.0000 0.41300  0.66170  0.68570  Biso   1.000  C
  C155     1.0000 0.58700  0.16170  0.81430  Biso   1.000  C
  C156     1.0000 0.91300  0.83830  0.31430  Biso   1.000  C
  H97      1.0000 0.08710  0.39000  0.18660  Biso   1.000  H
  H98      1.0000 0.41290  0.61000  0.68660  Biso   1.000  H
  H99      1.0000 0.58710  0.11000  0.81340  Biso   1.000  H
  H100     1.0000 0.91290  0.89000  0.31340  Biso   1.000  H
  C157     1.0000 0.22920  0.39970  0.31070  Biso   1.000  C
  C158     1.0000 0.27080  0.60030  0.81070  Biso   1.000  C
  C159     1.0000 0.72920  0.10030  0.68930  Biso   1.000  C
  C160     1.0000 0.77080  0.89970  0.18930  Biso   1.000  C
  C161     1.0000 0.28720  0.38320  0.26250  Biso   1.000  C
  C162     1.0000 0.21280  0.61680  0.76250  Biso   1.000  C
  C163     1.0000 0.78720  0.11680  0.73750  Biso   1.000  C
  C164     1.0000 0.71280  0.88320  0.23750  Biso   1.000  C
  H101     1.0000 0.28870  0.33710  0.23970  Biso   1.000  H
  H102     1.0000 0.21130  0.66290  0.73970  Biso   1.000  H
  H103     1.0000 0.78870  0.16290  0.76030  Biso   1.000  H
  H104     1.0000 0.71130  0.83710  0.26030  Biso   1.000  H
  C165     1.0000 0.34290  0.43570  0.24830  Biso   1.000  C
  C166     1.0000 0.15710  0.56430  0.74830  Biso   1.000  C
  C167     1.0000 0.84290  0.06430  0.75170  Biso   1.000  C
  C168     1.0000 0.65710  0.93570  0.25170  Biso   1.000  C
  H105     1.0000 0.38170  0.42460  0.21600  Biso   1.000  H
  H106     1.0000 0.11830  0.57540  0.71600  Biso   1.000  H
  H107     1.0000 0.88170  0.07540  0.78400  Biso   1.000  H
  H108     1.0000 0.61830  0.92460  0.28400  Biso   1.000  H
  C169     1.0000 0.34070  0.50460  0.28200  Biso   1.000  C
  C170     1.0000 0.15930  0.49540  0.78200  Biso   1.000  C
  C171     1.0000 0.84070  0.99540  0.71800  Biso   1.000  C
  C172     1.0000 0.65930  0.00460  0.21800  Biso   1.000  C
  H109     1.0000 0.37790  0.53960  0.27280  Biso   1.000  H
  H110     1.0000 0.12210  0.46040  0.77280  Biso   1.000  H
  H111     1.0000 0.87790  0.96040  0.72720  Biso   1.000  H
  H112     1.0000 0.62210  0.03960  0.22720  Biso   1.000  H
  C173     1.0000 0.28270  0.52100  0.33050  Biso   1.000  C
  C174     1.0000 0.21730  0.47900  0.83050  Biso   1.000  C
  C175     1.0000 0.78270  0.97900  0.66950  Biso   1.000  C
  C176     1.0000 0.71730  0.02100  0.16950  Biso   1.000  C
  H113     1.0000 0.28120  0.56710  0.35330  Biso   1.000  H
  H114     1.0000 0.21880  0.43290  0.85330  Biso   1.000  H
  H115     1.0000 0.78120  0.93290  0.64670  Biso   1.000  H
  H116     1.0000 0.71880  0.06710  0.14670  Biso   1.000  H
  C177     1.0000 0.22700  0.46860  0.34470  Biso   1.000  C
  C178     1.0000 0.27300  0.53140  0.84470  Biso   1.000  C
  C179     1.0000 0.72700  0.03140  0.65530  Biso   1.000  C
  C180     1.0000 0.77300  0.96860  0.15530  Biso   1.000  C
  H117     1.0000 0.18820  0.47960  0.37700  Biso   1.000  H
  H118     1.0000 0.31180  0.52040  0.87700  Biso   1.000  H
  H119     1.0000 0.68820  0.02040  0.62300  Biso   1.000  H
  H120     1.0000 0.81180  0.97960  0.12300  Biso   1.000  H
  C181     1.0000 0.20100  0.25230  0.37150  Biso   1.000  C
  C182     1.0000 0.29900  0.74770  0.87150  Biso   1.000  C
  C183     1.0000 0.70100  0.24770  0.62850  Biso   1.000  C
  C184     1.0000 0.79900  0.75230  0.12850  Biso   1.000  C
  C185     1.0000 0.27930  0.25110  0.37540  Biso   1.000  C
  C186     1.0000 0.22070  0.74890  0.87540  Biso   1.000  C
  C187     1.0000 0.77930  0.24890  0.62460  Biso   1.000  C
  C188     1.0000 0.72070  0.75110  0.12460  Biso   1.000  C
  H121     1.0000 0.30700  0.29330  0.36360  Biso   1.000  H
  H122     1.0000 0.19300  0.70670  0.86360  Biso   1.000  H
  H123     1.0000 0.80700  0.20670  0.63640  Biso   1.000  H
  H124     1.0000 0.69300  0.79330  0.13640  Biso   1.000  H
  C189     1.0000 0.31640  0.18670  0.39710  Biso   1.000  C
  C190     1.0000 0.18360  0.81330  0.89710  Biso   1.000  C
  C191     1.0000 0.81640  0.31330  0.60290  Biso   1.000  C
  C192     1.0000 0.68360  0.68670  0.10290  Biso   1.000  C
  H125     1.0000 0.36880  0.18590  0.39980  Biso   1.000  H
  H126     1.0000 0.13120  0.81410  0.89980  Biso   1.000  H
  H127     1.0000 0.86880  0.31410  0.60020  Biso   1.000  H
  H128     1.0000 0.63120  0.68590  0.10020  Biso   1.000  H
  C193     1.0000 0.27500  0.12360  0.41490  Biso   1.000  C
  C194     1.0000 0.22500  0.87640  0.91490  Biso   1.000  C
  C195     1.0000 0.77500  0.37640  0.58510  Biso   1.000  C
  C196     1.0000 0.72500  0.62360  0.08510  Biso   1.000  C
  H129     1.0000 0.29980  0.08050  0.42940  Biso   1.000  H
  H130     1.0000 0.20020  0.91950  0.92940  Biso   1.000  H
  H131     1.0000 0.79980  0.41950  0.57060  Biso   1.000  H
  H132     1.0000 0.70020  0.58050  0.07060  Biso   1.000  H
  C197     1.0000 0.19700  0.12480  0.41100  Biso   1.000  C
  C198     1.0000 0.30300  0.87520  0.91100  Biso   1.000  C
  C199     1.0000 0.69700  0.37520  0.58900  Biso   1.000  C
  C200     1.0000 0.80300  0.62480  0.08900  Biso   1.000  C
  H133     1.0000 0.16900  0.08260  0.42270  Biso   1.000  H
  H134     1.0000 0.33100  0.91740  0.92270  Biso   1.000  H
  H135     1.0000 0.66900  0.41740  0.57730  Biso   1.000  H
  H136     1.0000 0.83100  0.58260  0.07730  Biso   1.000  H
  C201     1.0000 0.15960  0.18920  0.38900  Biso   1.000  C
  C202     1.0000 0.34040  0.81080  0.88900  Biso   1.000  C
  C203     1.0000 0.65960  0.31080  0.61100  Biso   1.000  C
  C204     1.0000 0.84040  0.68920  0.11100  Biso   1.000  C
  H137     1.0000 0.10720  0.19010  0.38650  Biso   1.000  H
  H138     1.0000 0.39280  0.80990  0.88650  Biso   1.000  H
  H139     1.0000 0.60720  0.30990  0.61350  Biso   1.000  H
  H140     1.0000 0.89280  0.69010  0.11350  Biso   1.000  H
  C205     1.0000 0.08470  0.36720  0.38110  Biso   1.000  C
  C206     1.0000 0.41530  0.63280  0.88110  Biso   1.000  C
  C207     1.0000 0.58470  0.13280  0.61890  Biso   1.000  C
  C208     1.0000 0.91530  0.86720  0.11890  Biso   1.000  C
  C209     1.0000 0.07860  0.41200  0.44220  Biso   1.000  C
  C210     1.0000 0.42140  0.58800  0.94220  Biso   1.000  C
  C211     1.0000 0.57860  0.08800  0.55780  Biso   1.000  C
  C212     1.0000 0.92140  0.91200  0.05780  Biso   1.000  C
  H141     1.0000 0.12090  0.42110  0.47080  Biso   1.000  H
  H142     1.0000 0.37910  0.57890  0.97080  Biso   1.000  H
  H143     1.0000 0.62090  0.07890  0.52920  Biso   1.000  H
  H144     1.0000 0.87910  0.92110  0.02920  Biso   1.000  H
  C213     1.0000 0.00900  0.44330  0.46050  Biso   1.000  C
  C214     1.0000 0.49100  0.55670  0.96050  Biso   1.000  C
  C215     1.0000 0.50900  0.05670  0.53950  Biso   1.000  C
  C216     1.0000 0.99100  0.94330  0.03950  Biso   1.000  C
  H145     1.0000 0.00540  0.47330  0.50140  Biso   1.000  H
  H146     1.0000 0.49460  0.52670  0.00140  Biso   1.000  H
  H147     1.0000 0.50540  0.02670  0.49860  Biso   1.000  H
  H148     1.0000 0.99460  0.97330  0.99860  Biso   1.000  H
  C217     1.0000 0.94630  0.43000  0.41800  Biso   1.000  C
  C218     1.0000 0.55370  0.57000  0.91800  Biso   1.000  C
  C219     1.0000 0.44630  0.07000  0.58200  Biso   1.000  C
  C220     1.0000 0.05370  0.93000  0.08200  Biso   1.000  C
  H149     1.0000 0.90000  0.45060  0.43000  Biso   1.000  H
  H150     1.0000 0.60000  0.54940  0.93000  Biso   1.000  H
  H151     1.0000 0.40000  0.04940  0.57000  Biso   1.000  H
  H152     1.0000 0.10000  0.95060  0.07000  Biso   1.000  H
  C221     1.0000 0.95230  0.38500  0.35700  Biso   1.000  C
  C222     1.0000 0.54770  0.61500  0.85700  Biso   1.000  C
  C223     1.0000 0.45230  0.11500  0.64300  Biso   1.000  C
  C224     1.0000 0.04770  0.88500  0.14300  Biso   1.000  C
  H153     1.0000 0.91010  0.37580  0.32810  Biso   1.000  H
  H154     1.0000 0.58990  0.62420  0.82810  Biso   1.000  H
  H155     1.0000 0.41010  0.12420  0.67190  Biso   1.000  H
  H156     1.0000 0.08990  0.87580  0.17190  Biso   1.000  H
  C225     1.0000 0.02150  0.35360  0.33830  Biso   1.000  C
  C226     1.0000 0.47850  0.64640  0.83830  Biso   1.000  C
  C227     1.0000 0.52150  0.14640  0.66170  Biso   1.000  C
  C228     1.0000 0.97850  0.85360  0.16170  Biso   1.000  C
  H157     1.0000 0.02560  0.32360  0.29740  Biso   1.000  H
  H158     1.0000 0.47440  0.67640  0.79740  Biso   1.000  H
  H159     1.0000 0.52560  0.17640  0.70260  Biso   1.000  H
  H160     1.0000 0.97440  0.82360  0.20260  Biso   1.000  H
