data_image0
_cell_length_a       7.646
_cell_length_b       9.617
_cell_length_c       11.906
_cell_angle_alpha    66.233
_cell_angle_beta     80.653
_cell_angle_gamma    84.832

_symmetry_space_group_name_H-M    "P 1"
_symmetry_int_tables_number       1

loop_
  _symmetry_equiv_pos_as_xyz
  'x, y, z'

loop_
  _atom_site_label
  _atom_site_occupancy
  _atom_site_fract_x
  _atom_site_fract_y
  _atom_site_fract_z
  _atom_site_thermal_displace_type
  _atom_site_B_iso_or_equiv
  _atom_site_type_symbol
  Cu1      1.0000 0.12467  0.16024  0.26412  Biso   1.000  Cu
  Cu2      1.0000 0.87533  0.83976  0.73588  Biso   1.000  Cu
  O1       1.0000 0.14200  0.93090  0.38974  Biso   1.000  O
  O2       1.0000 0.85800  0.06910  0.61026  Biso   1.000  O
  O3       1.0000 0.04570  0.99080  0.21161  Biso   1.000  O
  O4       1.0000 0.95430  0.00920  0.78839  Biso   1.000  O
  O5       1.0000 0.69240  0.46530  0.26610  Biso   1.000  O
  O6       1.0000 0.30760  0.53470  0.73390  Biso   1.000  O
  O7       1.0000 0.90560  0.59720  0.11970  Biso   1.000  O
  O8       1.0000 0.09440  0.40280  0.88030  Biso   1.000  O
  O9       1.0000 0.86680  0.18210  0.34910  Biso   1.000  O
  O10      1.0000 0.13320  0.81790  0.65090  Biso   1.000  O
  O11      1.0000 0.08400  0.35330  0.11930  Biso   1.000  O
  O12      1.0000 0.91600  0.64670  0.88070  Biso   1.000  O
  N1       1.0000 0.21900  0.26010  0.36570  Biso   1.000  N
  N2       1.0000 0.78100  0.73990  0.63430  Biso   1.000  N
  N3       1.0000 0.38590  0.14940  0.17180  Biso   1.000  N
  N4       1.0000 0.61410  0.85060  0.82820  Biso   1.000  N
  C1       1.0000 0.09190  0.89210  0.30980  Biso   1.000  C
  C2       1.0000 0.90810  0.10790  0.69020  Biso   1.000  C
  C3       1.0000 0.10510  0.73030  0.32540  Biso   1.000  C
  C4       1.0000 0.89490  0.26970  0.67460  Biso   1.000  C
  H1       1.0000 0.04830  0.70080  0.27540  Biso   1.000  H
  H2       1.0000 0.95170  0.29920  0.72460  Biso   1.000  H
  C5       1.0000 0.19600  0.62660  0.40890  Biso   1.000  C
  C6       1.0000 0.80400  0.37340  0.59110  Biso   1.000  C
  H3       1.0000 0.23940  0.65850  0.46290  Biso   1.000  H
  H4       1.0000 0.76060  0.34150  0.53710  Biso   1.000  H
  C7       1.0000 0.23600  0.46760  0.42590  Biso   1.000  C
  C8       1.0000 0.76400  0.53240  0.57410  Biso   1.000  C
  C9       1.0000 0.33340  0.37440  0.51890  Biso   1.000  C
  C10      1.0000 0.66660  0.62560  0.48110  Biso   1.000  C
  H5       1.0000 0.37130  0.41210  0.57140  Biso   1.000  H
  H6       1.0000 0.62870  0.58790  0.42860  Biso   1.000  H
  C11      1.0000 0.37360  0.22630  0.53330  Biso   1.000  C
  C12      1.0000 0.62640  0.77370  0.46670  Biso   1.000  C
  H7       1.0000 0.43950  0.16340  0.59490  Biso   1.000  H
  H8       1.0000 0.56050  0.83660  0.40510  Biso   1.000  H
  C13      1.0000 0.31540  0.17280  0.45570  Biso   1.000  C
  C14      1.0000 0.68460  0.82720  0.54430  Biso   1.000  C
  H9       1.0000 0.34330  0.07280  0.46550  Biso   1.000  H
  H10      1.0000 0.65670  0.92720  0.53450  Biso   1.000  H
  C15      1.0000 0.18090  0.40330  0.35200  Biso   1.000  C
  C16      1.0000 0.81910  0.59670  0.64800  Biso   1.000  C
  H11      1.0000 0.11420  0.46350  0.29000  Biso   1.000  H
  H12      1.0000 0.88580  0.53650  0.71000  Biso   1.000  H
  C17      1.0000 0.75510  0.58500  0.18620  Biso   1.000  C
  C18      1.0000 0.24490  0.41500  0.81380  Biso   1.000  C
  C19      1.0000 0.65030  0.73070  0.17110  Biso   1.000  C
  C20      1.0000 0.34970  0.26930  0.82890  Biso   1.000  C
  H13      1.0000 0.53190  0.72420  0.20630  Biso   1.000  H
  H14      1.0000 0.46810  0.27580  0.79370  Biso   1.000  H
  C21      1.0000 0.71770  0.86650  0.11080  Biso   1.000  C
  C22      1.0000 0.28230  0.13350  0.88920  Biso   1.000  C
  H15      1.0000 0.83000  0.87100  0.06580  Biso   1.000  H
  H16      1.0000 0.17000  0.12900  0.93420  Biso   1.000  H
  C23      1.0000 0.63410  0.01250  0.10690  Biso   1.000  C
  C24      1.0000 0.36590  0.98750  0.89310  Biso   1.000  C
  C25      1.0000 0.72870  0.14620  0.05030  Biso   1.000  C
  C26      1.0000 0.27130  0.85380  0.94970  Biso   1.000  C
  H17      1.0000 0.84280  0.14640  0.00880  Biso   1.000  H
  H18      1.0000 0.15720  0.85360  0.99120  Biso   1.000  H
  C27      1.0000 0.65030  0.27850  0.05680  Biso   1.000  C
  C28      1.0000 0.34970  0.72150  0.94320  Biso   1.000  C
  H19      1.0000 0.71130  0.36890  0.01940  Biso   1.000  H
  H20      1.0000 0.28870  0.63110  0.98060  Biso   1.000  H
  C29      1.0000 0.48240  0.27570  0.11850  Biso   1.000  C
  C30      1.0000 0.51760  0.72430  0.88150  Biso   1.000  C
  H21      1.0000 0.43270  0.36510  0.12390  Biso   1.000  H
  H22      1.0000 0.56730  0.63490  0.87610  Biso   1.000  H
  C31      1.0000 0.46320  0.02240  0.16380  Biso   1.000  C
  C32      1.0000 0.53680  0.97760  0.83620  Biso   1.000  C
  H23      1.0000 0.39730  0.93460  0.19890  Biso   1.000  H
  H24      1.0000 0.60270  0.06540  0.80110  Biso   1.000  H
  H25      1.0000 0.87100  0.15200  0.42620  Biso   1.000  H
  H26      1.0000 0.12900  0.84800  0.57380  Biso   1.000  H
  H27      1.0000 0.81000  0.26600  0.31800  Biso   1.000  H
  H28      1.0000 0.19000  0.73400  0.68200  Biso   1.000  H
  H29      1.0000 0.01300  0.42300  0.12700  Biso   1.000  H
  H30      1.0000 0.98700  0.57700  0.87300  Biso   1.000  H
  H31      1.0000 0.09300  0.34300  0.05080  Biso   1.000  H
  H32      1.0000 0.90700  0.65700  0.94920  Biso   1.000  H
