data_image0
_cell_length_a       15.109
_cell_length_b       11.113
_cell_length_c       20.228
_cell_angle_alpha    90
_cell_angle_beta     107.22
_cell_angle_gamma    90

_symmetry_space_group_name_H-M    "P 1"
_symmetry_int_tables_number       1

loop_
  _symmetry_equiv_pos_as_xyz
  'x, y, z'

loop_
  _atom_site_label
  _atom_site_occupancy
  _atom_site_fract_x
  _atom_site_fract_y
  _atom_site_fract_z
  _atom_site_thermal_displace_type
  _atom_site_B_iso_or_equiv
  _atom_site_type_symbol
  Gd1      1.0000 0.50000  0.38709  0.25000  Biso   1.000  Gd
  Gd2      1.0000 0.50000  0.61291  0.75000  Biso   1.000  Gd
  Cu1      1.0000 0.00000  0.09975  0.25000  Biso   1.000  Cu
  Cu2      1.0000 0.00000  0.90025  0.75000  Biso   1.000  Cu
  F1       1.0000 0.69750  0.14300  0.13120  Biso   1.000  F
  F2       1.0000 0.30250  0.14300  0.36880  Biso   1.000  F
  F3       1.0000 0.30250  0.85700  0.86880  Biso   1.000  F
  F4       1.0000 0.69750  0.85700  0.63120  Biso   1.000  F
  F5       1.0000 0.59400  0.27200  0.04710  Biso   1.000  F
  F6       1.0000 0.40600  0.27200  0.45290  Biso   1.000  F
  F7       1.0000 0.40600  0.72800  0.95290  Biso   1.000  F
  F8       1.0000 0.59400  0.72800  0.54710  Biso   1.000  F
  F9       1.0000 0.58600  0.07400  0.05780  Biso   1.000  F
  F10      1.0000 0.41400  0.07400  0.44220  Biso   1.000  F
  F11      1.0000 0.41400  0.92600  0.94220  Biso   1.000  F
  F12      1.0000 0.58600  0.92600  0.55780  Biso   1.000  F
  F13      1.0000 0.67650  0.95750  0.30580  Biso   1.000  F
  F14      1.0000 0.32350  0.95750  0.19420  Biso   1.000  F
  F15      1.0000 0.32350  0.04250  0.69420  Biso   1.000  F
  F16      1.0000 0.67650  0.04250  0.80580  Biso   1.000  F
  F17      1.0000 0.75100  0.08430  0.37140  Biso   1.000  F
  F18      1.0000 0.24900  0.08430  0.12860  Biso   1.000  F
  F19      1.0000 0.24900  0.91570  0.62860  Biso   1.000  F
  F20      1.0000 0.75100  0.91570  0.87140  Biso   1.000  F
  F21      1.0000 0.64050  0.00300  0.37770  Biso   1.000  F
  F22      1.0000 0.35950  0.00300  0.12230  Biso   1.000  F
  F23      1.0000 0.35950  0.99700  0.62230  Biso   1.000  F
  F24      1.0000 0.64050  0.99700  0.87770  Biso   1.000  F
  F25      1.0000 0.65220  0.70490  0.15090  Biso   1.000  F
  F26      1.0000 0.34780  0.70490  0.34910  Biso   1.000  F
  F27      1.0000 0.34780  0.29510  0.84910  Biso   1.000  F
  F28      1.0000 0.65220  0.29510  0.65090  Biso   1.000  F
  F29      1.0000 0.52680  0.73080  0.09400  Biso   1.000  F
  F30      1.0000 0.47320  0.73080  0.40600  Biso   1.000  F
  F31      1.0000 0.47320  0.26920  0.90600  Biso   1.000  F
  F32      1.0000 0.52680  0.26920  0.59400  Biso   1.000  F
  F33      1.0000 0.58600  0.84860  0.16710  Biso   1.000  F
  F34      1.0000 0.41400  0.84860  0.33290  Biso   1.000  F
  F35      1.0000 0.41400  0.15140  0.83290  Biso   1.000  F
  F36      1.0000 0.58600  0.15140  0.66710  Biso   1.000  F
  F37      1.0000 0.19350  0.76360  0.19140  Biso   1.000  F
  F38      1.0000 0.80650  0.76360  0.30860  Biso   1.000  F
  F39      1.0000 0.80650  0.23640  0.80860  Biso   1.000  F
  F40      1.0000 0.19350  0.23640  0.69140  Biso   1.000  F
  F41      1.0000 0.12910  0.72130  0.25580  Biso   1.000  F
  F42      1.0000 0.87090  0.72130  0.24420  Biso   1.000  F
  F43      1.0000 0.87090  0.27870  0.74420  Biso   1.000  F
  F44      1.0000 0.12910  0.27870  0.75580  Biso   1.000  F
  F45      1.0000 0.07790  0.68100  0.15720  Biso   1.000  F
  F46      1.0000 0.92210  0.68100  0.34280  Biso   1.000  F
  F47      1.0000 0.92210  0.31900  0.84280  Biso   1.000  F
  F48      1.0000 0.07790  0.31900  0.65720  Biso   1.000  F
  F49      1.0000 0.89780  0.95770  0.99090  Biso   1.000  F
  F50      1.0000 0.10220  0.95770  0.50910  Biso   1.000  F
  F51      1.0000 0.10220  0.04230  0.00910  Biso   1.000  F
  F52      1.0000 0.89780  0.04230  0.49090  Biso   1.000  F
  F53      1.0000 0.79990  0.02300  0.03700  Biso   1.000  F
  F54      1.0000 0.20010  0.02300  0.46300  Biso   1.000  F
  F55      1.0000 0.20010  0.97700  0.96300  Biso   1.000  F
  F56      1.0000 0.79990  0.97700  0.53700  Biso   1.000  F
  F57      1.0000 0.90080  0.14130  0.01340  Biso   1.000  F
  F58      1.0000 0.09920  0.14130  0.48660  Biso   1.000  F
  F59      1.0000 0.09920  0.85870  0.98660  Biso   1.000  F
  F60      1.0000 0.90080  0.85870  0.51340  Biso   1.000  F
  O1       1.0000 0.55780  0.30520  0.16410  Biso   1.000  O
  O2       1.0000 0.44220  0.30520  0.33590  Biso   1.000  O
  O3       1.0000 0.44220  0.69480  0.83590  Biso   1.000  O
  O4       1.0000 0.55780  0.69480  0.66410  Biso   1.000  O
  O5       1.0000 0.59660  0.22460  0.30170  Biso   1.000  O
  O6       1.0000 0.40340  0.22460  0.19830  Biso   1.000  O
  O7       1.0000 0.40340  0.77540  0.69830  Biso   1.000  O
  O8       1.0000 0.59660  0.77540  0.80170  Biso   1.000  O
  O9       1.0000 0.54390  0.55640  0.19700  Biso   1.000  O
  O10      1.0000 0.45610  0.55640  0.30300  Biso   1.000  O
  O11      1.0000 0.45610  0.44360  0.80300  Biso   1.000  O
  O12      1.0000 0.54390  0.44360  0.69700  Biso   1.000  O
  O13      1.0000 0.35900  0.46630  0.17480  Biso   1.000  O
  O14      1.0000 0.64100  0.46630  0.32520  Biso   1.000  O
  O15      1.0000 0.64100  0.53370  0.82520  Biso   1.000  O
  O16      1.0000 0.35900  0.53370  0.67480  Biso   1.000  O
  O17      1.0000 0.07110  0.33670  0.04510  Biso   1.000  O
  O18      1.0000 0.92890  0.33670  0.45490  Biso   1.000  O
  O19      1.0000 0.92890  0.66330  0.95490  Biso   1.000  O
  O20      1.0000 0.07110  0.66330  0.54510  Biso   1.000  O
  O21      1.0000 0.08600  0.95300  0.23940  Biso   1.000  O
  O22      1.0000 0.91400  0.95300  0.26060  Biso   1.000  O
  O23      1.0000 0.91400  0.04700  0.76060  Biso   1.000  O
  O24      1.0000 0.08600  0.04700  0.73940  Biso   1.000  O
  O25      1.0000 0.95080  0.09880  0.14970  Biso   1.000  O
  O26      1.0000 0.04920  0.09880  0.35030  Biso   1.000  O
  O27      1.0000 0.04920  0.90120  0.85030  Biso   1.000  O
  O28      1.0000 0.95080  0.90120  0.64970  Biso   1.000  O
  N1       1.0000 0.28860  0.44050  0.12100  Biso   1.000  N
  N2       1.0000 0.71140  0.44050  0.37900  Biso   1.000  N
  N3       1.0000 0.71140  0.55950  0.87900  Biso   1.000  N
  N4       1.0000 0.28860  0.55950  0.62100  Biso   1.000  N
  N5       1.0000 0.15170  0.38010  0.06020  Biso   1.000  N
  N6       1.0000 0.84830  0.38010  0.43980  Biso   1.000  N
  N7       1.0000 0.84830  0.61990  0.93980  Biso   1.000  N
  N8       1.0000 0.15170  0.61990  0.56020  Biso   1.000  N
  N9       1.0000 0.19890  0.39870  0.30720  Biso   1.000  N
  N10      1.0000 0.80110  0.39870  0.19280  Biso   1.000  N
  N11      1.0000 0.80110  0.60130  0.69280  Biso   1.000  N
  N12      1.0000 0.19890  0.60130  0.80720  Biso   1.000  N
  N13      1.0000 0.10070  0.24160  0.24620  Biso   1.000  N
  N14      1.0000 0.89930  0.24160  0.25380  Biso   1.000  N
  N15      1.0000 0.89930  0.75840  0.75380  Biso   1.000  N
  N16      1.0000 0.10070  0.75840  0.74620  Biso   1.000  N
  C1       1.0000 0.67570  0.04510  0.33730  Biso   1.000  C
  C2       1.0000 0.32430  0.04510  0.16270  Biso   1.000  C
  C3       1.0000 0.32430  0.95490  0.66270  Biso   1.000  C
  C4       1.0000 0.67570  0.95490  0.83730  Biso   1.000  C
  C5       1.0000 0.63240  0.14530  0.28030  Biso   1.000  C
  C6       1.0000 0.36760  0.14530  0.21970  Biso   1.000  C
  C7       1.0000 0.36760  0.85470  0.71970  Biso   1.000  C
  C8       1.0000 0.63240  0.85470  0.78030  Biso   1.000  C
  C9       1.0000 0.63330  0.12460  0.20610  Biso   1.000  C
  C10      1.0000 0.36670  0.12460  0.29390  Biso   1.000  C
  C11      1.0000 0.36670  0.87540  0.79390  Biso   1.000  C
  C12      1.0000 0.63330  0.87540  0.70610  Biso   1.000  C
  H1       1.0000 0.66150  0.05630  0.19500  Biso   1.000  H
  H2       1.0000 0.33850  0.05630  0.30500  Biso   1.000  H
  H3       1.0000 0.33850  0.94370  0.80500  Biso   1.000  H
  H4       1.0000 0.66150  0.94370  0.69500  Biso   1.000  H
  C13      1.0000 0.59270  0.20630  0.15560  Biso   1.000  C
  C14      1.0000 0.40730  0.20630  0.34440  Biso   1.000  C
  C15      1.0000 0.40730  0.79370  0.84440  Biso   1.000  C
  C16      1.0000 0.59270  0.79370  0.65560  Biso   1.000  C
  C17      1.0000 0.60440  0.17970  0.08870  Biso   1.000  C
  C18      1.0000 0.39560  0.17970  0.41130  Biso   1.000  C
  C19      1.0000 0.39560  0.82030  0.91130  Biso   1.000  C
  C20      1.0000 0.60440  0.82030  0.58870  Biso   1.000  C
  C21      1.0000 0.56910  0.74400  0.15440  Biso   1.000  C
  C22      1.0000 0.43090  0.74400  0.34560  Biso   1.000  C
  C23      1.0000 0.43090  0.25600  0.84560  Biso   1.000  C
  C24      1.0000 0.56910  0.25600  0.65440  Biso   1.000  C
  C25      1.0000 0.53730  0.66820  0.20420  Biso   1.000  C
  C26      1.0000 0.46270  0.66820  0.29580  Biso   1.000  C
  C27      1.0000 0.46270  0.33180  0.79580  Biso   1.000  C
  C28      1.0000 0.53730  0.33180  0.70420  Biso   1.000  C
  C29      1.0000 0.50000  0.72700  0.25000  Biso   1.000  C
  C30      1.0000 0.50000  0.27300  0.75000  Biso   1.000  C
  H5       1.0000 0.50000  0.81070  0.25000  Biso   1.000  H
  H6       1.0000 0.50000  0.18930  0.75000  Biso   1.000  H
  C31      1.0000 0.22160  0.42460  0.24980  Biso   1.000  C
  C32      1.0000 0.77840  0.42460  0.25020  Biso   1.000  C
  C33      1.0000 0.77840  0.57540  0.75020  Biso   1.000  C
  C34      1.0000 0.22160  0.57540  0.74980  Biso   1.000  C
  H7       1.0000 0.26270  0.48730  0.25080  Biso   1.000  H
  H8       1.0000 0.73730  0.48730  0.24920  Biso   1.000  H
  H9       1.0000 0.73730  0.51270  0.74920  Biso   1.000  H
  H10      1.0000 0.26270  0.51270  0.75080  Biso   1.000  H
  C35      1.0000 0.18570  0.36040  0.18850  Biso   1.000  C
  C36      1.0000 0.81430  0.36040  0.31150  Biso   1.000  C
  C37      1.0000 0.81430  0.63960  0.81150  Biso   1.000  C
  C38      1.0000 0.18570  0.63960  0.68850  Biso   1.000  C
  C39      1.0000 0.12660  0.26920  0.18920  Biso   1.000  C
  C40      1.0000 0.87340  0.26920  0.31080  Biso   1.000  C
  C41      1.0000 0.87340  0.73080  0.81080  Biso   1.000  C
  C42      1.0000 0.12660  0.73080  0.68920  Biso   1.000  C
  H11      1.0000 0.10290  0.22390  0.14920  Biso   1.000  H
  H12      1.0000 0.89710  0.22390  0.35080  Biso   1.000  H
  H13      1.0000 0.89710  0.77610  0.85080  Biso   1.000  H
  H14      1.0000 0.10290  0.77610  0.64920  Biso   1.000  H
  C43      1.0000 0.13960  0.30920  0.30050  Biso   1.000  C
  C44      1.0000 0.86040  0.30920  0.19950  Biso   1.000  C
  C45      1.0000 0.86040  0.69080  0.69950  Biso   1.000  C
  C46      1.0000 0.13960  0.69080  0.80050  Biso   1.000  C
  H15      1.0000 0.12270  0.29110  0.34000  Biso   1.000  H
  H16      1.0000 0.87730  0.29110  0.16000  Biso   1.000  H
  H17      1.0000 0.87730  0.70890  0.66000  Biso   1.000  H
  H18      1.0000 0.12270  0.70890  0.84000  Biso   1.000  H
  C47      1.0000 0.20900  0.39140  0.12480  Biso   1.000  C
  C48      1.0000 0.79100  0.39140  0.37520  Biso   1.000  C
  C49      1.0000 0.79100  0.60860  0.87520  Biso   1.000  C
  C50      1.0000 0.20900  0.60860  0.62480  Biso   1.000  C
  C51      1.0000 0.26230  0.62390  0.05140  Biso   1.000  C
  C52      1.0000 0.73770  0.62390  0.44860  Biso   1.000  C
  C53      1.0000 0.73770  0.37610  0.94860  Biso   1.000  C
  C54      1.0000 0.26230  0.37610  0.55140  Biso   1.000  C
  H19      1.0000 0.19790  0.63440  0.04760  Biso   1.000  H
  H20      1.0000 0.80210  0.63440  0.45240  Biso   1.000  H
  H21      1.0000 0.80210  0.36560  0.95240  Biso   1.000  H
  H22      1.0000 0.19790  0.36560  0.54760  Biso   1.000  H
  H23      1.0000 0.27590  0.66400  0.01350  Biso   1.000  H
  H24      1.0000 0.72410  0.66400  0.48650  Biso   1.000  H
  H25      1.0000 0.72410  0.33600  0.98650  Biso   1.000  H
  H26      1.0000 0.27590  0.33600  0.51350  Biso   1.000  H
  H27      1.0000 0.29950  0.65770  0.09430  Biso   1.000  H
  H28      1.0000 0.70050  0.65770  0.40570  Biso   1.000  H
  H29      1.0000 0.70050  0.34230  0.90570  Biso   1.000  H
  H30      1.0000 0.29950  0.34230  0.59430  Biso   1.000  H
  C55      1.0000 0.37510  0.46460  0.03710  Biso   1.000  C
  C56      1.0000 0.62490  0.46460  0.46290  Biso   1.000  C
  C57      1.0000 0.62490  0.53540  0.96290  Biso   1.000  C
  C58      1.0000 0.37510  0.53540  0.53710  Biso   1.000  C
  H31      1.0000 0.42250  0.49920  0.07480  Biso   1.000  H
  H32      1.0000 0.57750  0.49920  0.42520  Biso   1.000  H
  H33      1.0000 0.57750  0.50080  0.92520  Biso   1.000  H
  H34      1.0000 0.42250  0.50080  0.57480  Biso   1.000  H
  H35      1.0000 0.37450  0.50410  0.99480  Biso   1.000  H
  H36      1.0000 0.62550  0.50410  0.50520  Biso   1.000  H
  H37      1.0000 0.62550  0.49590  0.00520  Biso   1.000  H
  H38      1.0000 0.37450  0.49590  0.49480  Biso   1.000  H
  H39      1.0000 0.38730  0.38040  0.03370  Biso   1.000  H
  H40      1.0000 0.61270  0.38040  0.46630  Biso   1.000  H
  H41      1.0000 0.61270  0.61960  0.96630  Biso   1.000  H
  H42      1.0000 0.38730  0.61960  0.53370  Biso   1.000  H
  C59      1.0000 0.28530  0.47970  0.04920  Biso   1.000  C
  C60      1.0000 0.71470  0.47970  0.45080  Biso   1.000  C
  C61      1.0000 0.71470  0.52030  0.95080  Biso   1.000  C
  C62      1.0000 0.28530  0.52030  0.54920  Biso   1.000  C
  C63      1.0000 0.19870  0.42020  0.00640  Biso   1.000  C
  C64      1.0000 0.80130  0.42020  0.49360  Biso   1.000  C
  C65      1.0000 0.80130  0.57980  0.99360  Biso   1.000  C
  C66      1.0000 0.19870  0.57980  0.50640  Biso   1.000  C
  C67      1.0000 0.22470  0.29620  0.97910  Biso   1.000  C
  C68      1.0000 0.77530  0.29620  0.52090  Biso   1.000  C
  C69      1.0000 0.77530  0.70380  0.02090  Biso   1.000  C
  C70      1.0000 0.22470  0.70380  0.47910  Biso   1.000  C
  H43      1.0000 0.25120  0.31060  0.94220  Biso   1.000  H
  H44      1.0000 0.74880  0.31060  0.55780  Biso   1.000  H
  H45      1.0000 0.74880  0.68940  0.05780  Biso   1.000  H
  H46      1.0000 0.25120  0.68940  0.44220  Biso   1.000  H
  H47      1.0000 0.16990  0.24800  0.96230  Biso   1.000  H
  H48      1.0000 0.83010  0.24800  0.53770  Biso   1.000  H
  H49      1.0000 0.83010  0.75200  0.03770  Biso   1.000  H
  H50      1.0000 0.16990  0.75200  0.46230  Biso   1.000  H
  H51      1.0000 0.26870  0.25470  0.01610  Biso   1.000  H
  H52      1.0000 0.73130  0.25470  0.48390  Biso   1.000  H
  H53      1.0000 0.73130  0.74530  0.98390  Biso   1.000  H
  H54      1.0000 0.26870  0.74530  0.51610  Biso   1.000  H
  C71      1.0000 0.13130  0.48650  0.95180  Biso   1.000  C
  C72      1.0000 0.86870  0.48650  0.54820  Biso   1.000  C
  C73      1.0000 0.86870  0.51350  0.04820  Biso   1.000  C
  C74      1.0000 0.13130  0.51350  0.45180  Biso   1.000  C
  H55      1.0000 0.07700  0.43800  0.93340  Biso   1.000  H
  H56      1.0000 0.92300  0.43800  0.56660  Biso   1.000  H
  H57      1.0000 0.92300  0.56200  0.06660  Biso   1.000  H
  H58      1.0000 0.07700  0.56200  0.43340  Biso   1.000  H
  H59      1.0000 0.15810  0.50550  0.91550  Biso   1.000  H
  H60      1.0000 0.84190  0.50550  0.58450  Biso   1.000  H
  H61      1.0000 0.84190  0.49450  0.08450  Biso   1.000  H
  H62      1.0000 0.15810  0.49450  0.41550  Biso   1.000  H
  H63      1.0000 0.11470  0.55960  0.97050  Biso   1.000  H
  H64      1.0000 0.88530  0.55960  0.52950  Biso   1.000  H
  H65      1.0000 0.88530  0.44040  0.02950  Biso   1.000  H
  H66      1.0000 0.11470  0.44040  0.47050  Biso   1.000  H
  C75      1.0000 0.88870  0.03190  0.04170  Biso   1.000  C
  C76      1.0000 0.11130  0.03190  0.45830  Biso   1.000  C
  C77      1.0000 0.11130  0.96810  0.95830  Biso   1.000  C
  C78      1.0000 0.88870  0.96810  0.54170  Biso   1.000  C
  C79      1.0000 0.95110  0.01400  0.10960  Biso   1.000  C
  C80      1.0000 0.04890  0.01400  0.39040  Biso   1.000  C
  C81      1.0000 0.04890  0.98600  0.89040  Biso   1.000  C
  C82      1.0000 0.95110  0.98600  0.60960  Biso   1.000  C
  C83      1.0000 0.00360  0.90880  0.12320  Biso   1.000  C
  C84      1.0000 0.99640  0.90880  0.37680  Biso   1.000  C
  C85      1.0000 0.99640  0.09120  0.87680  Biso   1.000  C
  C86      1.0000 0.00360  0.09120  0.62320  Biso   1.000  C
  H67      1.0000 0.99720  0.85250  0.08810  Biso   1.000  H
  H68      1.0000 0.00280  0.85250  0.41190  Biso   1.000  H
  H69      1.0000 0.00280  0.14750  0.91190  Biso   1.000  H
  H70      1.0000 0.99720  0.14750  0.58810  Biso   1.000  H
  C87      1.0000 0.06530  0.88600  0.18810  Biso   1.000  C
  C88      1.0000 0.93470  0.88600  0.31190  Biso   1.000  C
  C89      1.0000 0.93470  0.11400  0.81190  Biso   1.000  C
  C90      1.0000 0.06530  0.11400  0.68810  Biso   1.000  C
  C91      1.0000 0.11230  0.76500  0.19520  Biso   1.000  C
  C92      1.0000 0.88770  0.76500  0.30480  Biso   1.000  C
  C93      1.0000 0.88770  0.23500  0.80480  Biso   1.000  C
  C94      1.0000 0.11230  0.23500  0.69520  Biso   1.000  C
  F61      1.0000 0.66500  0.24000  0.07170  Biso   1.000  F
  F62      1.0000 0.33500  0.24000  0.42830  Biso   1.000  F
  F63      1.0000 0.33500  0.76000  0.92830  Biso   1.000  F
  F64      1.0000 0.66500  0.76000  0.57170  Biso   1.000  F
  F65      1.0000 0.50900  0.16400  0.04460  Biso   1.000  F
  F66      1.0000 0.49100  0.16400  0.45540  Biso   1.000  F
  F67      1.0000 0.49100  0.83600  0.95540  Biso   1.000  F
  F68      1.0000 0.50900  0.83600  0.54460  Biso   1.000  F
  F69      1.0000 0.64300  0.07600  0.08030  Biso   1.000  F
  F70      1.0000 0.35700  0.07600  0.41970  Biso   1.000  F
  F71      1.0000 0.35700  0.92400  0.91970  Biso   1.000  F
  F72      1.0000 0.64300  0.92400  0.58030  Biso   1.000  F
