data_image0
_cell_length_a       14.588
_cell_length_b       11.141
_cell_length_c       20.125
_cell_angle_alpha    90
_cell_angle_beta     108.21
_cell_angle_gamma    90

_symmetry_space_group_name_H-M    "P 1"
_symmetry_int_tables_number       1

loop_
  _symmetry_equiv_pos_as_xyz
  'x, y, z'

loop_
  _atom_site_label
  _atom_site_occupancy
  _atom_site_fract_x
  _atom_site_fract_y
  _atom_site_fract_z
  _atom_site_thermal_displace_type
  _atom_site_B_iso_or_equiv
  _atom_site_type_symbol
  Dy1      1.0000 0.50000  0.40805  0.25000  Biso   1.000  Dy
  Dy2      1.0000 0.50000  0.59195  0.75000  Biso   1.000  Dy
  Cu1      1.0000 0.00000  0.09564  0.25000  Biso   1.000  Cu
  Cu2      1.0000 0.00000  0.90436  0.75000  Biso   1.000  Cu
  F1       1.0000 0.68900  0.98250  0.29590  Biso   1.000  F
  F2       1.0000 0.31100  0.98250  0.20410  Biso   1.000  F
  F3       1.0000 0.31100  0.01750  0.70410  Biso   1.000  F
  F4       1.0000 0.68900  0.01750  0.79590  Biso   1.000  F
  F5       1.0000 0.75550  0.10000  0.37410  Biso   1.000  F
  F6       1.0000 0.24450  0.10000  0.12590  Biso   1.000  F
  F7       1.0000 0.24450  0.90000  0.62590  Biso   1.000  F
  F8       1.0000 0.75550  0.90000  0.87410  Biso   1.000  F
  F9       1.0000 0.63010  0.01480  0.36630  Biso   1.000  F
  F10      1.0000 0.36990  0.01480  0.13370  Biso   1.000  F
  F11      1.0000 0.36990  0.98520  0.63370  Biso   1.000  F
  F12      1.0000 0.63010  0.98520  0.86630  Biso   1.000  F
  F13      1.0000 0.63330  0.71290  0.13200  Biso   1.000  F
  F14      1.0000 0.36670  0.71290  0.36800  Biso   1.000  F
  F15      1.0000 0.36670  0.28710  0.86800  Biso   1.000  F
  F16      1.0000 0.63330  0.28710  0.63200  Biso   1.000  F
  F17      1.0000 0.49210  0.77360  0.09450  Biso   1.000  F
  F18      1.0000 0.50790  0.77360  0.40550  Biso   1.000  F
  F19      1.0000 0.50790  0.22640  0.90550  Biso   1.000  F
  F20      1.0000 0.49210  0.22640  0.59450  Biso   1.000  F
  F21      1.0000 0.59170  0.86850  0.16900  Biso   1.000  F
  F22      1.0000 0.40830  0.86850  0.33100  Biso   1.000  F
  F23      1.0000 0.40830  0.13150  0.83100  Biso   1.000  F
  F24      1.0000 0.59170  0.13150  0.66900  Biso   1.000  F
  F25      1.0000 0.21690  0.76820  0.20880  Biso   1.000  F
  F26      1.0000 0.78310  0.76820  0.29120  Biso   1.000  F
  F27      1.0000 0.78310  0.23180  0.79120  Biso   1.000  F
  F28      1.0000 0.21690  0.23180  0.70880  Biso   1.000  F
  F29      1.0000 0.12310  0.71030  0.26020  Biso   1.000  F
  F30      1.0000 0.87690  0.71030  0.23980  Biso   1.000  F
  F31      1.0000 0.87690  0.28970  0.73980  Biso   1.000  F
  F32      1.0000 0.12310  0.28970  0.76020  Biso   1.000  F
  F33      1.0000 0.09390  0.68270  0.15510  Biso   1.000  F
  F34      1.0000 0.90610  0.68270  0.34490  Biso   1.000  F
  F35      1.0000 0.90610  0.31730  0.84490  Biso   1.000  F
  F36      1.0000 0.09390  0.31730  0.65510  Biso   1.000  F
  F37      1.0000 0.90330  0.94930  0.98930  Biso   1.000  F
  F38      1.0000 0.09670  0.94930  0.51070  Biso   1.000  F
  F39      1.0000 0.09670  0.05070  0.01070  Biso   1.000  F
  F40      1.0000 0.90330  0.05070  0.48930  Biso   1.000  F
  F41      1.0000 0.79560  0.01540  0.03260  Biso   1.000  F
  F42      1.0000 0.20440  0.01540  0.46740  Biso   1.000  F
  F43      1.0000 0.20440  0.98460  0.96740  Biso   1.000  F
  F44      1.0000 0.79560  0.98460  0.53260  Biso   1.000  F
  F45      1.0000 0.89880  0.13790  0.01220  Biso   1.000  F
  F46      1.0000 0.10120  0.13790  0.48780  Biso   1.000  F
  F47      1.0000 0.10120  0.86210  0.98780  Biso   1.000  F
  F48      1.0000 0.89880  0.86210  0.51220  Biso   1.000  F
  O1       1.0000 0.55670  0.32520  0.16360  Biso   1.000  O
  O2       1.0000 0.44330  0.32520  0.33640  Biso   1.000  O
  O3       1.0000 0.44330  0.67480  0.83640  Biso   1.000  O
  O4       1.0000 0.55670  0.67480  0.66360  Biso   1.000  O
  O5       1.0000 0.60100  0.24690  0.30150  Biso   1.000  O
  O6       1.0000 0.39900  0.24690  0.19850  Biso   1.000  O
  O7       1.0000 0.39900  0.75310  0.69850  Biso   1.000  O
  O8       1.0000 0.60100  0.75310  0.80150  Biso   1.000  O
  O9       1.0000 0.54390  0.57450  0.19590  Biso   1.000  O
  O10      1.0000 0.45610  0.57450  0.30410  Biso   1.000  O
  O11      1.0000 0.45610  0.42550  0.80410  Biso   1.000  O
  O12      1.0000 0.54390  0.42550  0.69590  Biso   1.000  O
  O13      1.0000 0.35510  0.48840  0.17400  Biso   1.000  O
  O14      1.0000 0.64490  0.48840  0.32600  Biso   1.000  O
  O15      1.0000 0.64490  0.51160  0.82600  Biso   1.000  O
  O16      1.0000 0.35510  0.51160  0.67400  Biso   1.000  O
  O17      1.0000 0.06210  0.32910  0.04210  Biso   1.000  O
  O18      1.0000 0.93790  0.32910  0.45790  Biso   1.000  O
  O19      1.0000 0.93790  0.67090  0.95790  Biso   1.000  O
  O20      1.0000 0.06210  0.67090  0.54210  Biso   1.000  O
  O21      1.0000 0.09250  0.95070  0.24390  Biso   1.000  O
  O22      1.0000 0.90750  0.95070  0.25610  Biso   1.000  O
  O23      1.0000 0.90750  0.04930  0.75610  Biso   1.000  O
  O24      1.0000 0.09250  0.04930  0.74390  Biso   1.000  O
  O25      1.0000 0.95010  0.09500  0.14870  Biso   1.000  O
  O26      1.0000 0.04990  0.09500  0.35130  Biso   1.000  O
  O27      1.0000 0.04990  0.90500  0.85130  Biso   1.000  O
  O28      1.0000 0.95010  0.90500  0.64870  Biso   1.000  O
  N1       1.0000 0.28310  0.45310  0.12050  Biso   1.000  N
  N2       1.0000 0.71690  0.45310  0.37950  Biso   1.000  N
  N3       1.0000 0.71690  0.54690  0.87950  Biso   1.000  N
  N4       1.0000 0.28310  0.54690  0.62050  Biso   1.000  N
  N5       1.0000 0.14440  0.37940  0.05800  Biso   1.000  N
  N6       1.0000 0.85560  0.37940  0.44200  Biso   1.000  N
  N7       1.0000 0.85560  0.62060  0.94200  Biso   1.000  N
  N8       1.0000 0.14440  0.62060  0.55800  Biso   1.000  N
  N9       1.0000 0.20060  0.39980  0.30890  Biso   1.000  N
  N10      1.0000 0.79940  0.39980  0.19110  Biso   1.000  N
  N11      1.0000 0.79940  0.60020  0.69110  Biso   1.000  N
  N12      1.0000 0.20060  0.60020  0.80890  Biso   1.000  N
  N13      1.0000 0.10310  0.23800  0.24770  Biso   1.000  N
  N14      1.0000 0.89690  0.23800  0.25230  Biso   1.000  N
  N15      1.0000 0.89690  0.76200  0.75230  Biso   1.000  N
  N16      1.0000 0.10310  0.76200  0.74770  Biso   1.000  N
  C1       1.0000 0.67430  0.06110  0.33330  Biso   1.000  C
  C2       1.0000 0.32570  0.06110  0.16670  Biso   1.000  C
  C3       1.0000 0.32570  0.93890  0.66670  Biso   1.000  C
  C4       1.0000 0.67430  0.93890  0.83330  Biso   1.000  C
  C5       1.0000 0.62970  0.16200  0.27810  Biso   1.000  C
  C6       1.0000 0.37030  0.16200  0.22190  Biso   1.000  C
  C7       1.0000 0.37030  0.83800  0.72190  Biso   1.000  C
  C8       1.0000 0.62970  0.83800  0.77810  Biso   1.000  C
  C9       1.0000 0.62880  0.14280  0.20730  Biso   1.000  C
  C10      1.0000 0.37120  0.14280  0.29270  Biso   1.000  C
  C11      1.0000 0.37120  0.85720  0.79270  Biso   1.000  C
  C12      1.0000 0.62880  0.85720  0.70730  Biso   1.000  C
  H1       1.0000 0.65500  0.07280  0.19570  Biso   1.000  H
  H2       1.0000 0.34500  0.07280  0.30430  Biso   1.000  H
  H3       1.0000 0.34500  0.92720  0.80430  Biso   1.000  H
  H4       1.0000 0.65500  0.92720  0.69570  Biso   1.000  H
  C13      1.0000 0.58750  0.23080  0.15420  Biso   1.000  C
  C14      1.0000 0.41250  0.23080  0.34580  Biso   1.000  C
  C15      1.0000 0.41250  0.76920  0.84580  Biso   1.000  C
  C16      1.0000 0.58750  0.76920  0.65420  Biso   1.000  C
  C17      1.0000 0.59650  0.19380  0.08750  Biso   1.000  C
  C18      1.0000 0.40350  0.19380  0.41250  Biso   1.000  C
  C19      1.0000 0.40350  0.80620  0.91250  Biso   1.000  C
  C20      1.0000 0.59650  0.80620  0.58750  Biso   1.000  C
  C21      1.0000 0.56470  0.76110  0.14900  Biso   1.000  C
  C22      1.0000 0.43530  0.76110  0.35100  Biso   1.000  C
  C23      1.0000 0.43530  0.23890  0.85100  Biso   1.000  C
  C24      1.0000 0.56470  0.23890  0.64900  Biso   1.000  C
  C25      1.0000 0.53480  0.68540  0.20260  Biso   1.000  C
  C26      1.0000 0.46520  0.68540  0.29740  Biso   1.000  C
  C27      1.0000 0.46520  0.31460  0.79740  Biso   1.000  C
  C28      1.0000 0.53480  0.31460  0.70260  Biso   1.000  C
  C29      1.0000 0.50000  0.74840  0.25000  Biso   1.000  C
  C30      1.0000 0.50000  0.25160  0.75000  Biso   1.000  C
  H5       1.0000 0.50000  0.83190  0.25000  Biso   1.000  H
  H6       1.0000 0.50000  0.16810  0.75000  Biso   1.000  H
  C31      1.0000 0.22070  0.42930  0.25020  Biso   1.000  C
  C32      1.0000 0.77930  0.42930  0.24980  Biso   1.000  C
  C33      1.0000 0.77930  0.57070  0.74980  Biso   1.000  C
  C34      1.0000 0.22070  0.57070  0.75020  Biso   1.000  C
  H7       1.0000 0.26080  0.49440  0.25080  Biso   1.000  H
  H8       1.0000 0.73920  0.49440  0.24920  Biso   1.000  H
  H9       1.0000 0.73920  0.50560  0.74920  Biso   1.000  H
  H10      1.0000 0.26080  0.50560  0.75080  Biso   1.000  H
  C35      1.0000 0.18290  0.36440  0.18830  Biso   1.000  C
  C36      1.0000 0.81710  0.36440  0.31170  Biso   1.000  C
  C37      1.0000 0.81710  0.63560  0.81170  Biso   1.000  C
  C38      1.0000 0.18290  0.63560  0.68830  Biso   1.000  C
  C39      1.0000 0.12380  0.26910  0.18940  Biso   1.000  C
  C40      1.0000 0.87620  0.26910  0.31060  Biso   1.000  C
  C41      1.0000 0.87620  0.73090  0.81060  Biso   1.000  C
  C42      1.0000 0.12380  0.73090  0.68940  Biso   1.000  C
  H11      1.0000 0.09740  0.22480  0.14880  Biso   1.000  H
  H12      1.0000 0.90260  0.22480  0.35120  Biso   1.000  H
  H13      1.0000 0.90260  0.77520  0.85120  Biso   1.000  H
  H14      1.0000 0.09740  0.77520  0.64880  Biso   1.000  H
  C43      1.0000 0.14280  0.30660  0.30420  Biso   1.000  C
  C44      1.0000 0.85720  0.30660  0.19580  Biso   1.000  C
  C45      1.0000 0.85720  0.69340  0.69580  Biso   1.000  C
  C46      1.0000 0.14280  0.69340  0.80420  Biso   1.000  C
  H15      1.0000 0.12810  0.28630  0.34450  Biso   1.000  H
  H16      1.0000 0.87190  0.28630  0.15550  Biso   1.000  H
  H17      1.0000 0.87190  0.71370  0.65550  Biso   1.000  H
  H18      1.0000 0.12810  0.71370  0.84450  Biso   1.000  H
  C47      1.0000 0.20450  0.39880  0.12360  Biso   1.000  C
  C48      1.0000 0.79550  0.39880  0.37640  Biso   1.000  C
  C49      1.0000 0.79550  0.60120  0.87640  Biso   1.000  C
  C50      1.0000 0.20450  0.60120  0.62360  Biso   1.000  C
  C51      1.0000 0.24840  0.62640  0.04430  Biso   1.000  C
  C52      1.0000 0.75160  0.62640  0.45570  Biso   1.000  C
  C53      1.0000 0.75160  0.37360  0.95570  Biso   1.000  C
  C54      1.0000 0.24840  0.37360  0.54430  Biso   1.000  C
  H19      1.0000 0.18710  0.63570  0.05200  Biso   1.000  H
  H20      1.0000 0.81290  0.63570  0.44800  Biso   1.000  H
  H21      1.0000 0.81290  0.36430  0.94800  Biso   1.000  H
  H22      1.0000 0.18710  0.36430  0.55200  Biso   1.000  H
  H23      1.0000 0.24470  0.65840  0.99920  Biso   1.000  H
  H24      1.0000 0.75530  0.65840  0.50080  Biso   1.000  H
  H25      1.0000 0.75530  0.34160  0.00080  Biso   1.000  H
  H26      1.0000 0.24470  0.34160  0.49920  Biso   1.000  H
  H27      1.0000 0.29700  0.66880  0.07990  Biso   1.000  H
  H28      1.0000 0.70300  0.66880  0.42010  Biso   1.000  H
  H29      1.0000 0.70300  0.33120  0.92010  Biso   1.000  H
  H30      1.0000 0.29700  0.33120  0.57990  Biso   1.000  H
  C55      1.0000 0.37070  0.47510  0.03420  Biso   1.000  C
  C56      1.0000 0.62930  0.47510  0.46580  Biso   1.000  C
  C57      1.0000 0.62930  0.52490  0.96580  Biso   1.000  C
  C58      1.0000 0.37070  0.52490  0.53420  Biso   1.000  C
  H31      1.0000 0.41830  0.52660  0.06480  Biso   1.000  H
  H32      1.0000 0.58170  0.52660  0.43520  Biso   1.000  H
  H33      1.0000 0.58170  0.47340  0.93520  Biso   1.000  H
  H34      1.0000 0.41830  0.47340  0.56480  Biso   1.000  H
  H35      1.0000 0.36440  0.49420  0.98650  Biso   1.000  H
  H36      1.0000 0.63560  0.49420  0.51350  Biso   1.000  H
  H37      1.0000 0.63560  0.50580  0.01350  Biso   1.000  H
  H38      1.0000 0.36440  0.50580  0.48650  Biso   1.000  H
  H39      1.0000 0.39040  0.39300  0.04340  Biso   1.000  H
  H40      1.0000 0.60960  0.39300  0.45660  Biso   1.000  H
  H41      1.0000 0.60960  0.60700  0.95660  Biso   1.000  H
  H42      1.0000 0.39040  0.60700  0.54340  Biso   1.000  H
  C59      1.0000 0.27440  0.49350  0.04690  Biso   1.000  C
  C60      1.0000 0.72560  0.49350  0.45310  Biso   1.000  C
  C61      1.0000 0.72560  0.50650  0.95310  Biso   1.000  C
  C62      1.0000 0.27440  0.50650  0.54690  Biso   1.000  C
  C63      1.0000 0.19180  0.41080  0.00340  Biso   1.000  C
  C64      1.0000 0.80820  0.41080  0.49660  Biso   1.000  C
  C65      1.0000 0.80820  0.58920  0.99660  Biso   1.000  C
  C66      1.0000 0.19180  0.58920  0.50340  Biso   1.000  C
  C67      1.0000 0.22540  0.29400  0.98130  Biso   1.000  C
  C68      1.0000 0.77460  0.29400  0.51870  Biso   1.000  C
  C69      1.0000 0.77460  0.70600  0.01870  Biso   1.000  C
  C70      1.0000 0.22540  0.70600  0.48130  Biso   1.000  C
  H43      1.0000 0.27030  0.25610  0.02110  Biso   1.000  H
  H44      1.0000 0.72970  0.25610  0.47890  Biso   1.000  H
  H45      1.0000 0.72970  0.74390  0.97890  Biso   1.000  H
  H46      1.0000 0.27030  0.74390  0.52110  Biso   1.000  H
  H47      1.0000 0.25630  0.30920  0.94640  Biso   1.000  H
  H48      1.0000 0.74370  0.30920  0.55360  Biso   1.000  H
  H49      1.0000 0.74370  0.69080  0.05360  Biso   1.000  H
  H50      1.0000 0.25630  0.69080  0.44640  Biso   1.000  H
  H51      1.0000 0.17090  0.24210  0.96220  Biso   1.000  H
  H52      1.0000 0.82910  0.24210  0.53780  Biso   1.000  H
  H53      1.0000 0.82910  0.75790  0.03780  Biso   1.000  H
  H54      1.0000 0.17090  0.75790  0.46220  Biso   1.000  H
  C71      1.0000 0.11740  0.47080  0.94200  Biso   1.000  C
  C72      1.0000 0.88260  0.47080  0.55800  Biso   1.000  C
  C73      1.0000 0.88260  0.52920  0.05800  Biso   1.000  C
  C74      1.0000 0.11740  0.52920  0.44200  Biso   1.000  C
  H55      1.0000 0.06900  0.41330  0.91860  Biso   1.000  H
  H56      1.0000 0.93100  0.41330  0.58140  Biso   1.000  H
  H57      1.0000 0.93100  0.58670  0.08140  Biso   1.000  H
  H58      1.0000 0.06900  0.58670  0.41860  Biso   1.000  H
  H59      1.0000 0.14850  0.50100  0.90990  Biso   1.000  H
  H60      1.0000 0.85150  0.50100  0.59010  Biso   1.000  H
  H61      1.0000 0.85150  0.49900  0.09010  Biso   1.000  H
  H62      1.0000 0.14850  0.49900  0.40990  Biso   1.000  H
  H63      1.0000 0.08760  0.53590  0.95880  Biso   1.000  H
  H64      1.0000 0.91240  0.53590  0.54120  Biso   1.000  H
  H65      1.0000 0.91240  0.46410  0.04120  Biso   1.000  H
  H66      1.0000 0.08760  0.46410  0.45880  Biso   1.000  H
  C75      1.0000 0.89030  0.02780  0.03720  Biso   1.000  C
  C76      1.0000 0.10970  0.02780  0.46280  Biso   1.000  C
  C77      1.0000 0.10970  0.97220  0.96280  Biso   1.000  C
  C78      1.0000 0.89030  0.97220  0.53720  Biso   1.000  C
  C79      1.0000 0.95340  0.00980  0.10800  Biso   1.000  C
  C80      1.0000 0.04660  0.00980  0.39200  Biso   1.000  C
  C81      1.0000 0.04660  0.99020  0.89200  Biso   1.000  C
  C82      1.0000 0.95340  0.99020  0.60800  Biso   1.000  C
  C83      1.0000 0.00870  0.90520  0.12550  Biso   1.000  C
  C84      1.0000 0.99130  0.90520  0.37450  Biso   1.000  C
  C85      1.0000 0.99130  0.09480  0.87450  Biso   1.000  C
  C86      1.0000 0.00870  0.09480  0.62550  Biso   1.000  C
  H67      1.0000 0.00200  0.84740  0.09100  Biso   1.000  H
  H68      1.0000 0.99800  0.84740  0.40900  Biso   1.000  H
  H69      1.0000 0.99800  0.15260  0.90900  Biso   1.000  H
  H70      1.0000 0.00200  0.15260  0.59100  Biso   1.000  H
  C87      1.0000 0.07280  0.88260  0.19150  Biso   1.000  C
  C88      1.0000 0.92720  0.88260  0.30850  Biso   1.000  C
  C89      1.0000 0.92720  0.11740  0.80850  Biso   1.000  C
  C90      1.0000 0.07280  0.11740  0.69150  Biso   1.000  C
  C91      1.0000 0.12720  0.76270  0.20490  Biso   1.000  C
  C92      1.0000 0.87280  0.76270  0.29510  Biso   1.000  C
  C93      1.0000 0.87280  0.23730  0.79510  Biso   1.000  C
  C94      1.0000 0.12720  0.23730  0.70490  Biso   1.000  C
  F49      1.0000 0.49860  0.16460  0.04600  Biso   1.000  F
  F50      1.0000 0.50140  0.16460  0.45400  Biso   1.000  F
  F51      1.0000 0.50140  0.83540  0.95400  Biso   1.000  F
  F52      1.0000 0.49860  0.83540  0.54600  Biso   1.000  F
  F53      1.0000 0.61880  0.10020  0.06800  Biso   1.000  F
  F54      1.0000 0.38120  0.10020  0.43200  Biso   1.000  F
  F55      1.0000 0.38120  0.89980  0.93200  Biso   1.000  F
  F56      1.0000 0.61880  0.89980  0.56800  Biso   1.000  F
  F57      1.0000 0.61990  0.28110  0.05500  Biso   1.000  F
  F58      1.0000 0.38010  0.28110  0.44500  Biso   1.000  F
  F59      1.0000 0.38010  0.71890  0.94500  Biso   1.000  F
  F60      1.0000 0.61990  0.71890  0.55500  Biso   1.000  F
