data_image0
_cell_length_a       14.58
_cell_length_b       11.217
_cell_length_c       20.13
_cell_angle_alpha    90
_cell_angle_beta     108.29
_cell_angle_gamma    90

_symmetry_space_group_name_H-M    "P 1"
_symmetry_int_tables_number       1

loop_
  _symmetry_equiv_pos_as_xyz
  'x, y, z'

loop_
  _atom_site_label
  _atom_site_occupancy
  _atom_site_fract_x
  _atom_site_fract_y
  _atom_site_fract_z
  _atom_site_thermal_displace_type
  _atom_site_B_iso_or_equiv
  _atom_site_type_symbol
  Gd1      1.0000 0.50000  0.41020  0.25000  Biso   1.000  Gd
  Gd2      1.0000 0.50000  0.58980  0.75000  Biso   1.000  Gd
  Cu1      1.0000 0.00000  0.09640  0.25000  Biso   1.000  Cu
  Cu2      1.0000 0.00000  0.90360  0.75000  Biso   1.000  Cu
  F1       1.0000 0.68420  0.98530  0.29570  Biso   1.000  F
  F2       1.0000 0.31580  0.98530  0.20430  Biso   1.000  F
  F3       1.0000 0.31580  0.01470  0.70430  Biso   1.000  F
  F4       1.0000 0.68420  0.01470  0.79570  Biso   1.000  F
  F5       1.0000 0.75740  0.10180  0.37320  Biso   1.000  F
  F6       1.0000 0.24260  0.10180  0.12680  Biso   1.000  F
  F7       1.0000 0.24260  0.89820  0.62680  Biso   1.000  F
  F8       1.0000 0.75740  0.89820  0.87320  Biso   1.000  F
  F9       1.0000 0.63590  0.00810  0.36720  Biso   1.000  F
  F10      1.0000 0.36410  0.00810  0.13280  Biso   1.000  F
  F11      1.0000 0.36410  0.99190  0.63280  Biso   1.000  F
  F12      1.0000 0.63590  0.99190  0.86720  Biso   1.000  F
  F13      1.0000 0.62960  0.71550  0.12930  Biso   1.000  F
  F14      1.0000 0.37040  0.71550  0.37070  Biso   1.000  F
  F15      1.0000 0.37040  0.28450  0.87070  Biso   1.000  F
  F16      1.0000 0.62960  0.28450  0.62930  Biso   1.000  F
  F17      1.0000 0.48740  0.77930  0.09380  Biso   1.000  F
  F18      1.0000 0.51260  0.77930  0.40620  Biso   1.000  F
  F19      1.0000 0.51260  0.22070  0.90620  Biso   1.000  F
  F20      1.0000 0.48740  0.22070  0.59380  Biso   1.000  F
  F21      1.0000 0.59070  0.87100  0.16840  Biso   1.000  F
  F22      1.0000 0.40930  0.87100  0.33160  Biso   1.000  F
  F23      1.0000 0.40930  0.12900  0.83160  Biso   1.000  F
  F24      1.0000 0.59070  0.12900  0.66840  Biso   1.000  F
  F25      1.0000 0.21920  0.77340  0.21050  Biso   1.000  F
  F26      1.0000 0.78080  0.77340  0.28950  Biso   1.000  F
  F27      1.0000 0.78080  0.22660  0.78950  Biso   1.000  F
  F28      1.0000 0.21920  0.22660  0.71050  Biso   1.000  F
  F29      1.0000 0.12570  0.71540  0.26200  Biso   1.000  F
  F30      1.0000 0.87430  0.71540  0.23800  Biso   1.000  F
  F31      1.0000 0.87430  0.28460  0.73800  Biso   1.000  F
  F32      1.0000 0.12570  0.28460  0.76200  Biso   1.000  F
  F33      1.0000 0.09650  0.68630  0.15490  Biso   1.000  F
  F34      1.0000 0.90350  0.68630  0.34510  Biso   1.000  F
  F35      1.0000 0.90350  0.31370  0.84510  Biso   1.000  F
  F36      1.0000 0.09650  0.31370  0.65490  Biso   1.000  F
  F37      1.0000 0.90270  0.94930  0.98920  Biso   1.000  F
  F38      1.0000 0.09730  0.94930  0.51080  Biso   1.000  F
  F39      1.0000 0.09730  0.05070  0.01080  Biso   1.000  F
  F40      1.0000 0.90270  0.05070  0.48920  Biso   1.000  F
  F41      1.0000 0.79520  0.01500  0.03280  Biso   1.000  F
  F42      1.0000 0.20480  0.01500  0.46720  Biso   1.000  F
  F43      1.0000 0.20480  0.98500  0.96720  Biso   1.000  F
  F44      1.0000 0.79520  0.98500  0.53280  Biso   1.000  F
  F45      1.0000 0.89710  0.13650  0.01130  Biso   1.000  F
  F46      1.0000 0.10290  0.13650  0.48870  Biso   1.000  F
  F47      1.0000 0.10290  0.86350  0.98870  Biso   1.000  F
  F48      1.0000 0.89710  0.86350  0.51130  Biso   1.000  F
  O1       1.0000 0.55770  0.32670  0.16290  Biso   1.000  O
  O2       1.0000 0.44230  0.32670  0.33710  Biso   1.000  O
  O3       1.0000 0.44230  0.67330  0.83710  Biso   1.000  O
  O4       1.0000 0.55770  0.67330  0.66290  Biso   1.000  O
  O5       1.0000 0.60210  0.24820  0.30190  Biso   1.000  O
  O6       1.0000 0.39790  0.24820  0.19810  Biso   1.000  O
  O7       1.0000 0.39790  0.75180  0.69810  Biso   1.000  O
  O8       1.0000 0.60210  0.75180  0.80190  Biso   1.000  O
  O9       1.0000 0.54430  0.57880  0.19560  Biso   1.000  O
  O10      1.0000 0.45570  0.57880  0.30440  Biso   1.000  O
  O11      1.0000 0.45570  0.42120  0.80440  Biso   1.000  O
  O12      1.0000 0.54430  0.42120  0.69560  Biso   1.000  O
  O13      1.0000 0.35300  0.49010  0.17300  Biso   1.000  O
  O14      1.0000 0.64700  0.49010  0.32700  Biso   1.000  O
  O15      1.0000 0.64700  0.50990  0.82700  Biso   1.000  O
  O16      1.0000 0.35300  0.50990  0.67300  Biso   1.000  O
  O17      1.0000 0.06110  0.32820  0.04130  Biso   1.000  O
  O18      1.0000 0.93890  0.32820  0.45870  Biso   1.000  O
  O19      1.0000 0.93890  0.67180  0.95870  Biso   1.000  O
  O20      1.0000 0.06110  0.67180  0.54130  Biso   1.000  O
  O21      1.0000 0.09300  0.95270  0.24410  Biso   1.000  O
  O22      1.0000 0.90700  0.95270  0.25590  Biso   1.000  O
  O23      1.0000 0.90700  0.04730  0.75590  Biso   1.000  O
  O24      1.0000 0.09300  0.04730  0.74410  Biso   1.000  O
  O25      1.0000 0.95030  0.09580  0.14900  Biso   1.000  O
  O26      1.0000 0.04970  0.09580  0.35100  Biso   1.000  O
  O27      1.0000 0.04970  0.90420  0.85100  Biso   1.000  O
  O28      1.0000 0.95030  0.90420  0.64900  Biso   1.000  O
  N1       1.0000 0.28120  0.45570  0.11960  Biso   1.000  N
  N2       1.0000 0.71880  0.45570  0.38040  Biso   1.000  N
  N3       1.0000 0.71880  0.54430  0.88040  Biso   1.000  N
  N4       1.0000 0.28120  0.54430  0.61960  Biso   1.000  N
  N5       1.0000 0.14300  0.37890  0.05750  Biso   1.000  N
  N6       1.0000 0.85700  0.37890  0.44250  Biso   1.000  N
  N7       1.0000 0.85700  0.62110  0.94250  Biso   1.000  N
  N8       1.0000 0.14300  0.62110  0.55750  Biso   1.000  N
  N9       1.0000 0.19900  0.40160  0.30810  Biso   1.000  N
  N10      1.0000 0.80100  0.40160  0.19190  Biso   1.000  N
  N11      1.0000 0.80100  0.59840  0.69190  Biso   1.000  N
  N12      1.0000 0.19900  0.59840  0.80810  Biso   1.000  N
  N13      1.0000 0.10300  0.23930  0.24750  Biso   1.000  N
  N14      1.0000 0.89700  0.23930  0.25250  Biso   1.000  N
  N15      1.0000 0.89700  0.76070  0.75250  Biso   1.000  N
  N16      1.0000 0.10300  0.76070  0.74750  Biso   1.000  N
  C1       1.0000 0.67540  0.06280  0.33450  Biso   1.000  C
  C2       1.0000 0.32460  0.06280  0.16550  Biso   1.000  C
  C3       1.0000 0.32460  0.93720  0.66550  Biso   1.000  C
  C4       1.0000 0.67540  0.93720  0.83450  Biso   1.000  C
  C5       1.0000 0.62980  0.16430  0.27700  Biso   1.000  C
  C6       1.0000 0.37020  0.16430  0.22300  Biso   1.000  C
  C7       1.0000 0.37020  0.83570  0.72300  Biso   1.000  C
  C8       1.0000 0.62980  0.83570  0.77700  Biso   1.000  C
  C9       1.0000 0.62680  0.14410  0.20760  Biso   1.000  C
  C10      1.0000 0.37320  0.14410  0.29240  Biso   1.000  C
  C11      1.0000 0.37320  0.85590  0.79240  Biso   1.000  C
  C12      1.0000 0.62680  0.85590  0.70760  Biso   1.000  C
  H1       1.0000 0.65340  0.07430  0.19680  Biso   1.000  H
  H2       1.0000 0.34660  0.07430  0.30320  Biso   1.000  H
  H3       1.0000 0.34660  0.92570  0.80320  Biso   1.000  H
  H4       1.0000 0.65340  0.92570  0.69680  Biso   1.000  H
  C13      1.0000 0.58350  0.22820  0.15270  Biso   1.000  C
  C14      1.0000 0.41650  0.22820  0.34730  Biso   1.000  C
  C15      1.0000 0.41650  0.77180  0.84730  Biso   1.000  C
  C16      1.0000 0.58350  0.77180  0.65270  Biso   1.000  C
  C17      1.0000 0.59240  0.19490  0.08390  Biso   1.000  C
  C18      1.0000 0.40760  0.19490  0.41610  Biso   1.000  C
  C19      1.0000 0.40760  0.80510  0.91610  Biso   1.000  C
  C20      1.0000 0.59240  0.80510  0.58390  Biso   1.000  C
  C21      1.0000 0.56260  0.76300  0.14790  Biso   1.000  C
  C22      1.0000 0.43740  0.76300  0.35210  Biso   1.000  C
  C23      1.0000 0.43740  0.23700  0.85210  Biso   1.000  C
  C24      1.0000 0.56260  0.23700  0.64790  Biso   1.000  C
  C25      1.0000 0.53430  0.68880  0.20170  Biso   1.000  C
  C26      1.0000 0.46570  0.68880  0.29830  Biso   1.000  C
  C27      1.0000 0.46570  0.31120  0.79830  Biso   1.000  C
  C28      1.0000 0.53430  0.31120  0.70170  Biso   1.000  C
  C29      1.0000 0.50000  0.74940  0.25000  Biso   1.000  C
  C30      1.0000 0.50000  0.25060  0.75000  Biso   1.000  C
  H5       1.0000 0.50000  0.83230  0.25000  Biso   1.000  H
  H6       1.0000 0.50000  0.16770  0.75000  Biso   1.000  H
  C31      1.0000 0.21890  0.43130  0.24980  Biso   1.000  C
  C32      1.0000 0.78110  0.43130  0.25020  Biso   1.000  C
  C33      1.0000 0.78110  0.56870  0.75020  Biso   1.000  C
  C34      1.0000 0.21890  0.56870  0.74980  Biso   1.000  C
  H7       1.0000 0.25840  0.49670  0.25050  Biso   1.000  H
  H8       1.0000 0.74160  0.49670  0.24950  Biso   1.000  H
  H9       1.0000 0.74160  0.50330  0.74950  Biso   1.000  H
  H10      1.0000 0.25840  0.50330  0.75050  Biso   1.000  H
  C35      1.0000 0.18180  0.36620  0.18760  Biso   1.000  C
  C36      1.0000 0.81820  0.36620  0.31240  Biso   1.000  C
  C37      1.0000 0.81820  0.63380  0.81240  Biso   1.000  C
  C38      1.0000 0.18180  0.63380  0.68760  Biso   1.000  C
  C39      1.0000 0.12260  0.26880  0.18940  Biso   1.000  C
  C40      1.0000 0.87740  0.26880  0.31060  Biso   1.000  C
  C41      1.0000 0.87740  0.73120  0.81060  Biso   1.000  C
  C42      1.0000 0.12260  0.73120  0.68940  Biso   1.000  C
  H11      1.0000 0.09650  0.22370  0.14920  Biso   1.000  H
  H12      1.0000 0.90350  0.22370  0.35080  Biso   1.000  H
  H13      1.0000 0.90350  0.77630  0.85080  Biso   1.000  H
  H14      1.0000 0.09650  0.77630  0.64920  Biso   1.000  H
  C43      1.0000 0.14270  0.30720  0.30400  Biso   1.000  C
  C44      1.0000 0.85730  0.30720  0.19600  Biso   1.000  C
  C45      1.0000 0.85730  0.69280  0.69600  Biso   1.000  C
  C46      1.0000 0.14270  0.69280  0.80400  Biso   1.000  C
  H15      1.0000 0.12940  0.28580  0.34470  Biso   1.000  H
  H16      1.0000 0.87060  0.28580  0.15530  Biso   1.000  H
  H17      1.0000 0.87060  0.71420  0.65530  Biso   1.000  H
  H18      1.0000 0.12940  0.71420  0.84470  Biso   1.000  H
  C47      1.0000 0.20270  0.39930  0.12350  Biso   1.000  C
  C48      1.0000 0.79730  0.39930  0.37650  Biso   1.000  C
  C49      1.0000 0.79730  0.60070  0.87650  Biso   1.000  C
  C50      1.0000 0.20270  0.60070  0.62350  Biso   1.000  C
  C51      1.0000 0.24480  0.62690  0.04350  Biso   1.000  C
  C52      1.0000 0.75520  0.62690  0.45650  Biso   1.000  C
  C53      1.0000 0.75520  0.37310  0.95650  Biso   1.000  C
  C54      1.0000 0.24480  0.37310  0.54350  Biso   1.000  C
  H19      1.0000 0.18130  0.63440  0.04770  Biso   1.000  H
  H20      1.0000 0.81870  0.63440  0.45230  Biso   1.000  H
  H21      1.0000 0.81870  0.36560  0.95230  Biso   1.000  H
  H22      1.0000 0.18130  0.36560  0.54770  Biso   1.000  H
  H23      1.0000 0.24530  0.66020  0.99960  Biso   1.000  H
  H24      1.0000 0.75470  0.66020  0.50040  Biso   1.000  H
  H25      1.0000 0.75470  0.33980  0.00040  Biso   1.000  H
  H26      1.0000 0.24530  0.33980  0.49960  Biso   1.000  H
  H27      1.0000 0.29030  0.66890  0.08120  Biso   1.000  H
  H28      1.0000 0.70970  0.66890  0.41880  Biso   1.000  H
  H29      1.0000 0.70970  0.33110  0.91880  Biso   1.000  H
  H30      1.0000 0.29030  0.33110  0.58120  Biso   1.000  H
  C55      1.0000 0.36940  0.47780  0.03350  Biso   1.000  C
  C56      1.0000 0.63060  0.47780  0.46650  Biso   1.000  C
  C57      1.0000 0.63060  0.52220  0.96650  Biso   1.000  C
  C58      1.0000 0.36940  0.52220  0.53350  Biso   1.000  C
  H31      1.0000 0.41350  0.53850  0.05810  Biso   1.000  H
  H32      1.0000 0.58650  0.53850  0.44190  Biso   1.000  H
  H33      1.0000 0.58650  0.46150  0.94190  Biso   1.000  H
  H34      1.0000 0.41350  0.46150  0.55810  Biso   1.000  H
  H35      1.0000 0.36030  0.48420  0.98420  Biso   1.000  H
  H36      1.0000 0.63970  0.48420  0.51580  Biso   1.000  H
  H37      1.0000 0.63970  0.51580  0.01580  Biso   1.000  H
  H38      1.0000 0.36030  0.51580  0.48420  Biso   1.000  H
  H39      1.0000 0.39540  0.40070  0.04980  Biso   1.000  H
  H40      1.0000 0.60460  0.40070  0.45020  Biso   1.000  H
  H41      1.0000 0.60460  0.59930  0.95020  Biso   1.000  H
  H42      1.0000 0.39540  0.59930  0.54980  Biso   1.000  H
  C59      1.0000 0.27300  0.49380  0.04650  Biso   1.000  C
  C60      1.0000 0.72700  0.49380  0.45350  Biso   1.000  C
  C61      1.0000 0.72700  0.50620  0.95350  Biso   1.000  C
  C62      1.0000 0.27300  0.50620  0.54650  Biso   1.000  C
  C63      1.0000 0.19070  0.41140  0.00280  Biso   1.000  C
  C64      1.0000 0.80930  0.41140  0.49720  Biso   1.000  C
  C65      1.0000 0.80930  0.58860  0.99720  Biso   1.000  C
  C66      1.0000 0.19070  0.58860  0.50280  Biso   1.000  C
  C67      1.0000 0.22730  0.29410  0.98170  Biso   1.000  C
  C68      1.0000 0.77270  0.29410  0.51830  Biso   1.000  C
  C69      1.0000 0.77270  0.70590  0.01830  Biso   1.000  C
  C70      1.0000 0.22730  0.70590  0.48170  Biso   1.000  C
  H43      1.0000 0.26770  0.25440  0.02270  Biso   1.000  H
  H44      1.0000 0.73230  0.25440  0.47730  Biso   1.000  H
  H45      1.0000 0.73230  0.74560  0.97730  Biso   1.000  H
  H46      1.0000 0.26770  0.74560  0.52270  Biso   1.000  H
  H47      1.0000 0.26390  0.31030  0.95050  Biso   1.000  H
  H48      1.0000 0.73610  0.31030  0.54950  Biso   1.000  H
  H49      1.0000 0.73610  0.68970  0.04950  Biso   1.000  H
  H50      1.0000 0.26390  0.68970  0.45050  Biso   1.000  H
  H51      1.0000 0.17330  0.24400  0.95860  Biso   1.000  H
  H52      1.0000 0.82670  0.24400  0.54140  Biso   1.000  H
  H53      1.0000 0.82670  0.75600  0.04140  Biso   1.000  H
  H54      1.0000 0.17330  0.75600  0.45860  Biso   1.000  H
  C71      1.0000 0.11650  0.46840  0.93990  Biso   1.000  C
  C72      1.0000 0.88350  0.46840  0.56010  Biso   1.000  C
  C73      1.0000 0.88350  0.53160  0.06010  Biso   1.000  C
  C74      1.0000 0.11650  0.53160  0.43990  Biso   1.000  C
  H55      1.0000 0.06610  0.41210  0.91910  Biso   1.000  H
  H56      1.0000 0.93390  0.41210  0.58090  Biso   1.000  H
  H57      1.0000 0.93390  0.58790  0.08090  Biso   1.000  H
  H58      1.0000 0.06610  0.58790  0.41910  Biso   1.000  H
  H59      1.0000 0.14740  0.49170  0.90620  Biso   1.000  H
  H60      1.0000 0.85260  0.49170  0.59380  Biso   1.000  H
  H61      1.0000 0.85260  0.50830  0.09380  Biso   1.000  H
  H62      1.0000 0.14740  0.50830  0.40620  Biso   1.000  H
  H63      1.0000 0.08940  0.53750  0.95490  Biso   1.000  H
  H64      1.0000 0.91060  0.53750  0.54510  Biso   1.000  H
  H65      1.0000 0.91060  0.46250  0.04510  Biso   1.000  H
  H66      1.0000 0.08940  0.46250  0.45490  Biso   1.000  H
  C75      1.0000 0.88870  0.02640  0.03690  Biso   1.000  C
  C76      1.0000 0.11130  0.02640  0.46310  Biso   1.000  C
  C77      1.0000 0.11130  0.97360  0.96310  Biso   1.000  C
  C78      1.0000 0.88870  0.97360  0.53690  Biso   1.000  C
  C79      1.0000 0.95340  0.00980  0.10760  Biso   1.000  C
  C80      1.0000 0.04660  0.00980  0.39240  Biso   1.000  C
  C81      1.0000 0.04660  0.99020  0.89240  Biso   1.000  C
  C82      1.0000 0.95340  0.99020  0.60760  Biso   1.000  C
  C83      1.0000 0.00950  0.90630  0.12570  Biso   1.000  C
  C84      1.0000 0.99050  0.90630  0.37430  Biso   1.000  C
  C85      1.0000 0.99050  0.09370  0.87430  Biso   1.000  C
  C86      1.0000 0.00950  0.09370  0.62570  Biso   1.000  C
  H67      1.0000 0.00340  0.84850  0.09140  Biso   1.000  H
  H68      1.0000 0.99660  0.84850  0.40860  Biso   1.000  H
  H69      1.0000 0.99660  0.15150  0.90860  Biso   1.000  H
  H70      1.0000 0.00340  0.15150  0.59140  Biso   1.000  H
  C87      1.0000 0.07440  0.88520  0.19240  Biso   1.000  C
  C88      1.0000 0.92560  0.88520  0.30760  Biso   1.000  C
  C89      1.0000 0.92560  0.11480  0.80760  Biso   1.000  C
  C90      1.0000 0.07440  0.11480  0.69240  Biso   1.000  C
  C91      1.0000 0.12830  0.76540  0.20560  Biso   1.000  C
  C92      1.0000 0.87170  0.76540  0.29440  Biso   1.000  C
  C93      1.0000 0.87170  0.23460  0.79440  Biso   1.000  C
  C94      1.0000 0.12830  0.23460  0.70560  Biso   1.000  C
  F49      1.0000 0.69820  0.14460  0.13670  Biso   1.000  F
  F50      1.0000 0.30180  0.14460  0.36330  Biso   1.000  F
  F51      1.0000 0.30180  0.85540  0.86330  Biso   1.000  F
  F52      1.0000 0.69820  0.85540  0.63670  Biso   1.000  F
  F53      1.0000 0.62770  0.27440  0.05680  Biso   1.000  F
  F54      1.0000 0.37230  0.27440  0.44320  Biso   1.000  F
  F55      1.0000 0.37230  0.72560  0.94320  Biso   1.000  F
  F56      1.0000 0.62770  0.72560  0.55680  Biso   1.000  F
  F57      1.0000 0.59850  0.09050  0.06100  Biso   1.000  F
  F58      1.0000 0.40150  0.09050  0.43900  Biso   1.000  F
  F59      1.0000 0.40150  0.90950  0.93900  Biso   1.000  F
  F60      1.0000 0.59850  0.90950  0.56100  Biso   1.000  F
