data_image0
_cell_length_a       15.071
_cell_length_b       11.095
_cell_length_c       20.235
_cell_angle_alpha    90
_cell_angle_beta     107.42
_cell_angle_gamma    90

_symmetry_space_group_name_H-M    "P 1"
_symmetry_int_tables_number       1

loop_
  _symmetry_equiv_pos_as_xyz
  'x, y, z'

loop_
  _atom_site_label
  _atom_site_occupancy
  _atom_site_fract_x
  _atom_site_fract_y
  _atom_site_fract_z
  _atom_site_thermal_displace_type
  _atom_site_B_iso_or_equiv
  _atom_site_type_symbol
  Dy1      1.0000 0.50000  0.38891  0.25000  Biso   1.000  Dy
  Dy2      1.0000 0.50000  0.61109  0.75000  Biso   1.000  Dy
  Cu1      1.0000 0.00000  0.10019  0.25000  Biso   1.000  Cu
  Cu2      1.0000 0.00000  0.89981  0.75000  Biso   1.000  Cu
  F1       1.0000 0.59500  0.28000  0.04720  Biso   1.000  F
  F2       1.0000 0.40500  0.28000  0.45280  Biso   1.000  F
  F3       1.0000 0.40500  0.72000  0.95280  Biso   1.000  F
  F4       1.0000 0.59500  0.72000  0.54720  Biso   1.000  F
  F5       1.0000 0.50540  0.16900  0.04530  Biso   1.000  F
  F6       1.0000 0.49460  0.16900  0.45470  Biso   1.000  F
  F7       1.0000 0.49460  0.83100  0.95470  Biso   1.000  F
  F8       1.0000 0.50540  0.83100  0.54530  Biso   1.000  F
  F9       1.0000 0.63410  0.07800  0.07630  Biso   1.000  F
  F10      1.0000 0.36590  0.07800  0.42370  Biso   1.000  F
  F11      1.0000 0.36590  0.92200  0.92370  Biso   1.000  F
  F12      1.0000 0.63410  0.92200  0.57630  Biso   1.000  F
  F13      1.0000 0.67900  0.95800  0.30490  Biso   1.000  F
  F14      1.0000 0.32100  0.95800  0.19510  Biso   1.000  F
  F15      1.0000 0.32100  0.04200  0.69510  Biso   1.000  F
  F16      1.0000 0.67900  0.04200  0.80490  Biso   1.000  F
  F17      1.0000 0.75010  0.08500  0.37240  Biso   1.000  F
  F18      1.0000 0.24990  0.08500  0.12760  Biso   1.000  F
  F19      1.0000 0.24990  0.91500  0.62760  Biso   1.000  F
  F20      1.0000 0.75010  0.91500  0.87240  Biso   1.000  F
  F21      1.0000 0.63830  0.01100  0.37730  Biso   1.000  F
  F22      1.0000 0.36170  0.01100  0.12270  Biso   1.000  F
  F23      1.0000 0.36170  0.98900  0.62270  Biso   1.000  F
  F24      1.0000 0.63830  0.98900  0.87730  Biso   1.000  F
  F25      1.0000 0.65290  0.70730  0.15240  Biso   1.000  F
  F26      1.0000 0.34710  0.70730  0.34760  Biso   1.000  F
  F27      1.0000 0.34710  0.29270  0.84760  Biso   1.000  F
  F28      1.0000 0.65290  0.29270  0.65240  Biso   1.000  F
  F29      1.0000 0.52730  0.72800  0.09370  Biso   1.000  F
  F30      1.0000 0.47270  0.72800  0.40630  Biso   1.000  F
  F31      1.0000 0.47270  0.27200  0.90630  Biso   1.000  F
  F32      1.0000 0.52730  0.27200  0.59370  Biso   1.000  F
  F33      1.0000 0.58300  0.85100  0.16720  Biso   1.000  F
  F34      1.0000 0.41700  0.85100  0.33280  Biso   1.000  F
  F35      1.0000 0.41700  0.14900  0.83280  Biso   1.000  F
  F36      1.0000 0.58300  0.14900  0.66720  Biso   1.000  F
  F37      1.0000 0.19420  0.76280  0.19260  Biso   1.000  F
  F38      1.0000 0.80580  0.76280  0.30740  Biso   1.000  F
  F39      1.0000 0.80580  0.23720  0.80740  Biso   1.000  F
  F40      1.0000 0.19420  0.23720  0.69260  Biso   1.000  F
  F41      1.0000 0.12920  0.72340  0.25670  Biso   1.000  F
  F42      1.0000 0.87080  0.72340  0.24330  Biso   1.000  F
  F43      1.0000 0.87080  0.27660  0.74330  Biso   1.000  F
  F44      1.0000 0.12920  0.27660  0.75670  Biso   1.000  F
  F45      1.0000 0.07450  0.68100  0.15920  Biso   1.000  F
  F46      1.0000 0.92550  0.68100  0.34080  Biso   1.000  F
  F47      1.0000 0.92550  0.31900  0.84080  Biso   1.000  F
  F48      1.0000 0.07450  0.31900  0.65920  Biso   1.000  F
  F49      1.0000 0.89760  0.95760  0.99130  Biso   1.000  F
  F50      1.0000 0.10240  0.95760  0.50870  Biso   1.000  F
  F51      1.0000 0.10240  0.04240  0.00870  Biso   1.000  F
  F52      1.0000 0.89760  0.04240  0.49130  Biso   1.000  F
  F53      1.0000 0.79960  0.02630  0.03680  Biso   1.000  F
  F54      1.0000 0.20040  0.02630  0.46320  Biso   1.000  F
  F55      1.0000 0.20040  0.97370  0.96320  Biso   1.000  F
  F56      1.0000 0.79960  0.97370  0.53680  Biso   1.000  F
  F57      1.0000 0.89880  0.14200  0.01390  Biso   1.000  F
  F58      1.0000 0.10120  0.14200  0.48610  Biso   1.000  F
  F59      1.0000 0.10120  0.85800  0.98610  Biso   1.000  F
  F60      1.0000 0.89880  0.85800  0.51390  Biso   1.000  F
  O1       1.0000 0.55830  0.30860  0.16550  Biso   1.000  O
  O2       1.0000 0.44170  0.30860  0.33450  Biso   1.000  O
  O3       1.0000 0.44170  0.69140  0.83450  Biso   1.000  O
  O4       1.0000 0.55830  0.69140  0.66550  Biso   1.000  O
  O5       1.0000 0.59580  0.22680  0.30130  Biso   1.000  O
  O6       1.0000 0.40420  0.22680  0.19870  Biso   1.000  O
  O7       1.0000 0.40420  0.77320  0.69870  Biso   1.000  O
  O8       1.0000 0.59580  0.77320  0.80130  Biso   1.000  O
  O9       1.0000 0.54300  0.55500  0.19660  Biso   1.000  O
  O10      1.0000 0.45700  0.55500  0.30340  Biso   1.000  O
  O11      1.0000 0.45700  0.44500  0.80340  Biso   1.000  O
  O12      1.0000 0.54300  0.44500  0.69660  Biso   1.000  O
  O13      1.0000 0.36020  0.46870  0.17560  Biso   1.000  O
  O14      1.0000 0.63980  0.46870  0.32440  Biso   1.000  O
  O15      1.0000 0.63980  0.53130  0.82440  Biso   1.000  O
  O16      1.0000 0.36020  0.53130  0.67560  Biso   1.000  O
  O17      1.0000 0.07130  0.33550  0.04440  Biso   1.000  O
  O18      1.0000 0.92870  0.33550  0.45560  Biso   1.000  O
  O19      1.0000 0.92870  0.66450  0.95560  Biso   1.000  O
  O20      1.0000 0.07130  0.66450  0.54440  Biso   1.000  O
  O21      1.0000 0.08590  0.95310  0.24020  Biso   1.000  O
  O22      1.0000 0.91410  0.95310  0.25980  Biso   1.000  O
  O23      1.0000 0.91410  0.04690  0.75980  Biso   1.000  O
  O24      1.0000 0.08590  0.04690  0.74020  Biso   1.000  O
  O25      1.0000 0.95090  0.10010  0.15060  Biso   1.000  O
  O26      1.0000 0.04910  0.10010  0.34940  Biso   1.000  O
  O27      1.0000 0.04910  0.89990  0.84940  Biso   1.000  O
  O28      1.0000 0.95090  0.89990  0.65060  Biso   1.000  O
  N1       1.0000 0.29010  0.44100  0.12160  Biso   1.000  N
  N2       1.0000 0.70990  0.44100  0.37840  Biso   1.000  N
  N3       1.0000 0.70990  0.55900  0.87840  Biso   1.000  N
  N4       1.0000 0.29010  0.55900  0.62160  Biso   1.000  N
  N5       1.0000 0.15250  0.37940  0.06020  Biso   1.000  N
  N6       1.0000 0.84750  0.37940  0.43980  Biso   1.000  N
  N7       1.0000 0.84750  0.62060  0.93980  Biso   1.000  N
  N8       1.0000 0.15250  0.62060  0.56020  Biso   1.000  N
  N9       1.0000 0.19880  0.40020  0.30630  Biso   1.000  N
  N10      1.0000 0.80120  0.40020  0.19370  Biso   1.000  N
  N11      1.0000 0.80120  0.59980  0.69370  Biso   1.000  N
  N12      1.0000 0.19880  0.59980  0.80630  Biso   1.000  N
  N13      1.0000 0.10190  0.24110  0.24600  Biso   1.000  N
  N14      1.0000 0.89810  0.24110  0.25400  Biso   1.000  N
  N15      1.0000 0.89810  0.75890  0.75400  Biso   1.000  N
  N16      1.0000 0.10190  0.75890  0.74600  Biso   1.000  N
  C1       1.0000 0.67230  0.04630  0.33480  Biso   1.000  C
  C2       1.0000 0.32770  0.04630  0.16520  Biso   1.000  C
  C3       1.0000 0.32770  0.95370  0.66520  Biso   1.000  C
  C4       1.0000 0.67230  0.95370  0.83480  Biso   1.000  C
  C5       1.0000 0.62970  0.14470  0.28030  Biso   1.000  C
  C6       1.0000 0.37030  0.14470  0.21970  Biso   1.000  C
  C7       1.0000 0.37030  0.85530  0.71970  Biso   1.000  C
  C8       1.0000 0.62970  0.85530  0.78030  Biso   1.000  C
  C9       1.0000 0.63330  0.12590  0.20960  Biso   1.000  C
  C10      1.0000 0.36670  0.12590  0.29040  Biso   1.000  C
  C11      1.0000 0.36670  0.87410  0.79040  Biso   1.000  C
  C12      1.0000 0.63330  0.87410  0.70960  Biso   1.000  C
  H1       1.0000 0.66750  0.06160  0.20050  Biso   1.000  H
  H2       1.0000 0.33250  0.06160  0.29950  Biso   1.000  H
  H3       1.0000 0.33250  0.93840  0.79950  Biso   1.000  H
  H4       1.0000 0.66750  0.93840  0.70050  Biso   1.000  H
  C13      1.0000 0.58410  0.20650  0.15220  Biso   1.000  C
  C14      1.0000 0.41590  0.20650  0.34780  Biso   1.000  C
  C15      1.0000 0.41590  0.79350  0.84780  Biso   1.000  C
  C16      1.0000 0.58410  0.79350  0.65220  Biso   1.000  C
  C17      1.0000 0.60510  0.18600  0.08990  Biso   1.000  C
  C18      1.0000 0.39490  0.18600  0.41010  Biso   1.000  C
  C19      1.0000 0.39490  0.81400  0.91010  Biso   1.000  C
  C20      1.0000 0.60510  0.81400  0.58990  Biso   1.000  C
  C21      1.0000 0.56890  0.74390  0.15440  Biso   1.000  C
  C22      1.0000 0.43110  0.74390  0.34560  Biso   1.000  C
  C23      1.0000 0.43110  0.25610  0.84560  Biso   1.000  C
  C24      1.0000 0.56890  0.25610  0.65440  Biso   1.000  C
  C25      1.0000 0.53480  0.66930  0.20380  Biso   1.000  C
  C26      1.0000 0.46520  0.66930  0.29620  Biso   1.000  C
  C27      1.0000 0.46520  0.33070  0.79620  Biso   1.000  C
  C28      1.0000 0.53480  0.33070  0.70380  Biso   1.000  C
  C29      1.0000 0.50000  0.72900  0.25000  Biso   1.000  C
  C30      1.0000 0.50000  0.27100  0.75000  Biso   1.000  C
  H5       1.0000 0.50000  0.81330  0.25000  Biso   1.000  H
  H6       1.0000 0.50000  0.18670  0.75000  Biso   1.000  H
  C31      1.0000 0.22120  0.42450  0.25010  Biso   1.000  C
  C32      1.0000 0.77880  0.42450  0.24990  Biso   1.000  C
  C33      1.0000 0.77880  0.57550  0.74990  Biso   1.000  C
  C34      1.0000 0.22120  0.57550  0.75010  Biso   1.000  C
  H7       1.0000 0.26230  0.48760  0.25140  Biso   1.000  H
  H8       1.0000 0.73770  0.48760  0.24860  Biso   1.000  H
  H9       1.0000 0.73770  0.51240  0.74860  Biso   1.000  H
  H10      1.0000 0.26230  0.51240  0.75140  Biso   1.000  H
  C35      1.0000 0.18690  0.36100  0.18860  Biso   1.000  C
  C36      1.0000 0.81310  0.36100  0.31140  Biso   1.000  C
  C37      1.0000 0.81310  0.63900  0.81140  Biso   1.000  C
  C38      1.0000 0.18690  0.63900  0.68860  Biso   1.000  C
  C39      1.0000 0.12660  0.27070  0.18930  Biso   1.000  C
  C40      1.0000 0.87340  0.27070  0.31070  Biso   1.000  C
  C41      1.0000 0.87340  0.72930  0.81070  Biso   1.000  C
  C42      1.0000 0.12660  0.72930  0.68930  Biso   1.000  C
  H11      1.0000 0.10100  0.22720  0.14880  Biso   1.000  H
  H12      1.0000 0.89900  0.22720  0.35120  Biso   1.000  H
  H13      1.0000 0.89900  0.77280  0.85120  Biso   1.000  H
  H14      1.0000 0.10100  0.77280  0.64880  Biso   1.000  H
  C43      1.0000 0.14020  0.30960  0.30050  Biso   1.000  C
  C44      1.0000 0.85980  0.30960  0.19950  Biso   1.000  C
  C45      1.0000 0.85980  0.69040  0.69950  Biso   1.000  C
  C46      1.0000 0.14020  0.69040  0.80050  Biso   1.000  C
  H15      1.0000 0.12350  0.29150  0.34010  Biso   1.000  H
  H16      1.0000 0.87650  0.29150  0.15990  Biso   1.000  H
  H17      1.0000 0.87650  0.70850  0.65990  Biso   1.000  H
  H18      1.0000 0.12350  0.70850  0.84010  Biso   1.000  H
  C47      1.0000 0.20990  0.39150  0.12600  Biso   1.000  C
  C48      1.0000 0.79010  0.39150  0.37400  Biso   1.000  C
  C49      1.0000 0.79010  0.60850  0.87400  Biso   1.000  C
  C50      1.0000 0.20990  0.60850  0.62600  Biso   1.000  C
  C51      1.0000 0.26640  0.62410  0.05250  Biso   1.000  C
  C52      1.0000 0.73360  0.62410  0.44750  Biso   1.000  C
  C53      1.0000 0.73360  0.37590  0.94750  Biso   1.000  C
  C54      1.0000 0.26640  0.37590  0.55250  Biso   1.000  C
  H19      1.0000 0.20450  0.63630  0.05510  Biso   1.000  H
  H20      1.0000 0.79550  0.63630  0.44490  Biso   1.000  H
  H21      1.0000 0.79550  0.36370  0.94490  Biso   1.000  H
  H22      1.0000 0.20450  0.36370  0.55510  Biso   1.000  H
  H23      1.0000 0.27260  0.66170  0.01130  Biso   1.000  H
  H24      1.0000 0.72740  0.66170  0.48870  Biso   1.000  H
  H25      1.0000 0.72740  0.33830  0.98870  Biso   1.000  H
  H26      1.0000 0.27260  0.33830  0.51130  Biso   1.000  H
  H27      1.0000 0.31030  0.65920  0.09240  Biso   1.000  H
  H28      1.0000 0.68970  0.65920  0.40760  Biso   1.000  H
  H29      1.0000 0.68970  0.34080  0.90760  Biso   1.000  H
  H30      1.0000 0.31030  0.34080  0.59240  Biso   1.000  H
  C55      1.0000 0.37600  0.46400  0.03710  Biso   1.000  C
  C56      1.0000 0.62400  0.46400  0.46290  Biso   1.000  C
  C57      1.0000 0.62400  0.53600  0.96290  Biso   1.000  C
  C58      1.0000 0.37600  0.53600  0.53710  Biso   1.000  C
  H31      1.0000 0.42310  0.51050  0.06950  Biso   1.000  H
  H32      1.0000 0.57690  0.51050  0.43050  Biso   1.000  H
  H33      1.0000 0.57690  0.48950  0.93050  Biso   1.000  H
  H34      1.0000 0.42310  0.48950  0.56950  Biso   1.000  H
  H35      1.0000 0.37130  0.48910  0.99080  Biso   1.000  H
  H36      1.0000 0.62870  0.48910  0.50920  Biso   1.000  H
  H37      1.0000 0.62870  0.51090  0.00920  Biso   1.000  H
  H38      1.0000 0.37130  0.51090  0.49080  Biso   1.000  H
  H39      1.0000 0.39210  0.38010  0.04250  Biso   1.000  H
  H40      1.0000 0.60790  0.38010  0.45750  Biso   1.000  H
  H41      1.0000 0.60790  0.61990  0.95750  Biso   1.000  H
  H42      1.0000 0.39210  0.61990  0.54250  Biso   1.000  H
  C59      1.0000 0.28640  0.48280  0.05030  Biso   1.000  C
  C60      1.0000 0.71360  0.48280  0.44970  Biso   1.000  C
  C61      1.0000 0.71360  0.51720  0.94970  Biso   1.000  C
  C62      1.0000 0.28640  0.51720  0.55030  Biso   1.000  C
  C63      1.0000 0.19870  0.41920  0.00730  Biso   1.000  C
  C64      1.0000 0.80130  0.41920  0.49270  Biso   1.000  C
  C65      1.0000 0.80130  0.58080  0.99270  Biso   1.000  C
  C66      1.0000 0.19870  0.58080  0.50730  Biso   1.000  C
  C67      1.0000 0.22520  0.29640  0.97940  Biso   1.000  C
  C68      1.0000 0.77480  0.29640  0.52060  Biso   1.000  C
  C69      1.0000 0.77480  0.70360  0.02060  Biso   1.000  C
  C70      1.0000 0.22520  0.70360  0.47940  Biso   1.000  C
  H43      1.0000 0.25670  0.31210  0.94550  Biso   1.000  H
  H44      1.0000 0.74330  0.31210  0.55450  Biso   1.000  H
  H45      1.0000 0.74330  0.68790  0.05450  Biso   1.000  H
  H46      1.0000 0.25670  0.68790  0.44550  Biso   1.000  H
  H47      1.0000 0.16970  0.25080  0.95860  Biso   1.000  H
  H48      1.0000 0.83030  0.25080  0.54140  Biso   1.000  H
  H49      1.0000 0.83030  0.74920  0.04140  Biso   1.000  H
  H50      1.0000 0.16970  0.74920  0.45860  Biso   1.000  H
  H51      1.0000 0.26530  0.25140  0.01710  Biso   1.000  H
  H52      1.0000 0.73470  0.25140  0.48290  Biso   1.000  H
  H53      1.0000 0.73470  0.74860  0.98290  Biso   1.000  H
  H54      1.0000 0.26530  0.74860  0.51710  Biso   1.000  H
  C71      1.0000 0.13080  0.48400  0.95140  Biso   1.000  C
  C72      1.0000 0.86920  0.48400  0.54860  Biso   1.000  C
  C73      1.0000 0.86920  0.51600  0.04860  Biso   1.000  C
  C74      1.0000 0.13080  0.51600  0.45140  Biso   1.000  C
  H55      1.0000 0.07960  0.43110  0.93010  Biso   1.000  H
  H56      1.0000 0.92040  0.43110  0.56990  Biso   1.000  H
  H57      1.0000 0.92040  0.56890  0.06990  Biso   1.000  H
  H58      1.0000 0.07960  0.56890  0.43010  Biso   1.000  H
  H59      1.0000 0.15980  0.50890  0.91740  Biso   1.000  H
  H60      1.0000 0.84020  0.50890  0.58260  Biso   1.000  H
  H61      1.0000 0.84020  0.49110  0.08260  Biso   1.000  H
  H62      1.0000 0.15980  0.49110  0.41740  Biso   1.000  H
  H63      1.0000 0.10850  0.55290  0.97000  Biso   1.000  H
  H64      1.0000 0.89150  0.55290  0.53000  Biso   1.000  H
  H65      1.0000 0.89150  0.44710  0.03000  Biso   1.000  H
  H66      1.0000 0.10850  0.44710  0.47000  Biso   1.000  H
  C75      1.0000 0.88710  0.03280  0.03850  Biso   1.000  C
  C76      1.0000 0.11290  0.03280  0.46150  Biso   1.000  C
  C77      1.0000 0.11290  0.96720  0.96150  Biso   1.000  C
  C78      1.0000 0.88710  0.96720  0.53850  Biso   1.000  C
  C79      1.0000 0.95280  0.01470  0.11010  Biso   1.000  C
  C80      1.0000 0.04720  0.01470  0.38990  Biso   1.000  C
  C81      1.0000 0.04720  0.98530  0.88990  Biso   1.000  C
  C82      1.0000 0.95280  0.98530  0.61010  Biso   1.000  C
  C83      1.0000 0.00550  0.91040  0.12440  Biso   1.000  C
  C84      1.0000 0.99450  0.91040  0.37560  Biso   1.000  C
  C85      1.0000 0.99450  0.08960  0.87560  Biso   1.000  C
  C86      1.0000 0.00550  0.08960  0.62440  Biso   1.000  C
  H67      1.0000 0.99890  0.85410  0.08920  Biso   1.000  H
  H68      1.0000 0.00110  0.85410  0.41080  Biso   1.000  H
  H69      1.0000 0.00110  0.14590  0.91080  Biso   1.000  H
  H70      1.0000 0.99890  0.14590  0.58920  Biso   1.000  H
  C87      1.0000 0.06710  0.88620  0.18830  Biso   1.000  C
  C88      1.0000 0.93290  0.88620  0.31170  Biso   1.000  C
  C89      1.0000 0.93290  0.11380  0.81170  Biso   1.000  C
  C90      1.0000 0.06710  0.11380  0.68830  Biso   1.000  C
  C91      1.0000 0.11430  0.76400  0.19370  Biso   1.000  C
  C92      1.0000 0.88570  0.76400  0.30630  Biso   1.000  C
  C93      1.0000 0.88570  0.23600  0.80630  Biso   1.000  C
  C94      1.0000 0.11430  0.23600  0.69370  Biso   1.000  C
  F61      1.0000 0.69700  0.14200  0.12900  Biso   1.000  F
  F62      1.0000 0.30300  0.14200  0.37100  Biso   1.000  F
  F63      1.0000 0.30300  0.85800  0.87100  Biso   1.000  F
  F64      1.0000 0.69700  0.85800  0.62900  Biso   1.000  F
  F65      1.0000 0.66700  0.24000  0.07320  Biso   1.000  F
  F66      1.0000 0.33300  0.24000  0.42680  Biso   1.000  F
  F67      1.0000 0.33300  0.76000  0.92680  Biso   1.000  F
  F68      1.0000 0.66700  0.76000  0.57320  Biso   1.000  F
  F69      1.0000 0.57400  0.08100  0.05690  Biso   1.000  F
  F70      1.0000 0.42600  0.08100  0.44310  Biso   1.000  F
  F71      1.0000 0.42600  0.91900  0.94310  Biso   1.000  F
  F72      1.0000 0.57400  0.91900  0.55690  Biso   1.000  F
