data_image0
_cell_length_a       19.146
_cell_length_b       19.146
_cell_length_c       6.7427
_cell_angle_alpha    90
_cell_angle_beta     90
_cell_angle_gamma    90

_symmetry_space_group_name_H-M    "P 1"
_symmetry_int_tables_number       1

loop_
  _symmetry_equiv_pos_as_xyz
  'x, y, z'

loop_
  _atom_site_label
  _atom_site_occupancy
  _atom_site_fract_x
  _atom_site_fract_y
  _atom_site_fract_z
  _atom_site_thermal_displace_type
  _atom_site_B_iso_or_equiv
  _atom_site_type_symbol
  Cu1      1.0000 0.03088  0.46912  0.35198  Biso   1.000  Cu
  Cu2      1.0000 0.46912  0.03088  0.35198  Biso   1.000  Cu
  Cu3      1.0000 0.03088  0.03088  0.35198  Biso   1.000  Cu
  Cu4      1.0000 0.46912  0.46912  0.35198  Biso   1.000  Cu
  Cu5      1.0000 0.96912  0.96912  0.64802  Biso   1.000  Cu
  Cu6      1.0000 0.53088  0.53088  0.64802  Biso   1.000  Cu
  Cu7      1.0000 0.96912  0.53088  0.64802  Biso   1.000  Cu
  Cu8      1.0000 0.53088  0.96912  0.64802  Biso   1.000  Cu
  C1       1.0000 0.75000  0.43780  0.94550  Biso   1.000  C
  C2       1.0000 0.75000  0.06220  0.94550  Biso   1.000  C
  C3       1.0000 0.06220  0.75000  0.94550  Biso   1.000  C
  C4       1.0000 0.43780  0.75000  0.94550  Biso   1.000  C
  C5       1.0000 0.25000  0.93780  0.05450  Biso   1.000  C
  C6       1.0000 0.25000  0.56220  0.05450  Biso   1.000  C
  C7       1.0000 0.93780  0.25000  0.05450  Biso   1.000  C
  C8       1.0000 0.56220  0.25000  0.05450  Biso   1.000  C
  H1       1.0000 0.75000  0.42250  0.81460  Biso   1.000  H
  H2       1.0000 0.75000  0.07750  0.81460  Biso   1.000  H
  H3       1.0000 0.07750  0.75000  0.81460  Biso   1.000  H
  H4       1.0000 0.42250  0.75000  0.81460  Biso   1.000  H
  H5       1.0000 0.25000  0.92250  0.18540  Biso   1.000  H
  H6       1.0000 0.25000  0.57750  0.18540  Biso   1.000  H
  H7       1.0000 0.92250  0.25000  0.18540  Biso   1.000  H
  H8       1.0000 0.57750  0.25000  0.18540  Biso   1.000  H
  C9       1.0000 0.81250  0.44900  0.04110  Biso   1.000  C
  C10      1.0000 0.68750  0.05100  0.04110  Biso   1.000  C
  C11      1.0000 0.05100  0.81250  0.04110  Biso   1.000  C
  C12      1.0000 0.44900  0.68750  0.04110  Biso   1.000  C
  C13      1.0000 0.18750  0.94900  0.95890  Biso   1.000  C
  C14      1.0000 0.31250  0.55100  0.95890  Biso   1.000  C
  C15      1.0000 0.94900  0.31250  0.95890  Biso   1.000  C
  C16      1.0000 0.55100  0.18750  0.95890  Biso   1.000  C
  C17      1.0000 0.18750  0.55100  0.95890  Biso   1.000  C
  C18      1.0000 0.31250  0.94900  0.95890  Biso   1.000  C
  C19      1.0000 0.94900  0.18750  0.95890  Biso   1.000  C
  C20      1.0000 0.55100  0.31250  0.95890  Biso   1.000  C
  C21      1.0000 0.81250  0.05100  0.04110  Biso   1.000  C
  C22      1.0000 0.68750  0.44900  0.04110  Biso   1.000  C
  C23      1.0000 0.05100  0.68750  0.04110  Biso   1.000  C
  C24      1.0000 0.44900  0.81250  0.04110  Biso   1.000  C
  H9       1.0000 0.85450  0.44070  0.97590  Biso   1.000  H
  H10      1.0000 0.64550  0.05930  0.97590  Biso   1.000  H
  H11      1.0000 0.05930  0.85450  0.97590  Biso   1.000  H
  H12      1.0000 0.44070  0.64550  0.97590  Biso   1.000  H
  H13      1.0000 0.14550  0.94070  0.02410  Biso   1.000  H
  H14      1.0000 0.35450  0.55930  0.02410  Biso   1.000  H
  H15      1.0000 0.94070  0.35450  0.02410  Biso   1.000  H
  H16      1.0000 0.55930  0.14550  0.02410  Biso   1.000  H
  H17      1.0000 0.14550  0.55930  0.02410  Biso   1.000  H
  H18      1.0000 0.35450  0.94070  0.02410  Biso   1.000  H
  H19      1.0000 0.94070  0.14550  0.02410  Biso   1.000  H
  H20      1.0000 0.55930  0.35450  0.02410  Biso   1.000  H
  H21      1.0000 0.85450  0.05930  0.97590  Biso   1.000  H
  H22      1.0000 0.64550  0.44070  0.97590  Biso   1.000  H
  H23      1.0000 0.05930  0.64550  0.97590  Biso   1.000  H
  H24      1.0000 0.44070  0.85450  0.97590  Biso   1.000  H
  C25      1.0000 0.81250  0.47300  0.23740  Biso   1.000  C
  C26      1.0000 0.68750  0.02700  0.23740  Biso   1.000  C
  C27      1.0000 0.02700  0.81250  0.23740  Biso   1.000  C
  C28      1.0000 0.47300  0.68750  0.23740  Biso   1.000  C
  C29      1.0000 0.18750  0.97300  0.76260  Biso   1.000  C
  C30      1.0000 0.31250  0.52700  0.76260  Biso   1.000  C
  C31      1.0000 0.97300  0.31250  0.76260  Biso   1.000  C
  C32      1.0000 0.52700  0.18750  0.76260  Biso   1.000  C
  C33      1.0000 0.18750  0.52700  0.76260  Biso   1.000  C
  C34      1.0000 0.31250  0.97300  0.76260  Biso   1.000  C
  C35      1.0000 0.97300  0.18750  0.76260  Biso   1.000  C
  C36      1.0000 0.52700  0.31250  0.76260  Biso   1.000  C
  C37      1.0000 0.81250  0.02700  0.23740  Biso   1.000  C
  C38      1.0000 0.68750  0.47300  0.23740  Biso   1.000  C
  C39      1.0000 0.02700  0.68750  0.23740  Biso   1.000  C
  C40      1.0000 0.47300  0.81250  0.23740  Biso   1.000  C
  C41      1.0000 0.75000  0.48570  0.33400  Biso   1.000  C
  C42      1.0000 0.75000  0.01430  0.33400  Biso   1.000  C
  C43      1.0000 0.01430  0.75000  0.33400  Biso   1.000  C
  C44      1.0000 0.48570  0.75000  0.33400  Biso   1.000  C
  C45      1.0000 0.25000  0.98570  0.66600  Biso   1.000  C
  C46      1.0000 0.25000  0.51430  0.66600  Biso   1.000  C
  C47      1.0000 0.98570  0.25000  0.66600  Biso   1.000  C
  C48      1.0000 0.51430  0.25000  0.66600  Biso   1.000  C
  H25      1.0000 0.75000  0.50260  0.46330  Biso   1.000  H
  H26      1.0000 0.75000  0.99740  0.46330  Biso   1.000  H
  H27      1.0000 0.99740  0.75000  0.46330  Biso   1.000  H
  H28      1.0000 0.50260  0.75000  0.46330  Biso   1.000  H
  H29      1.0000 0.25000  0.00260  0.53670  Biso   1.000  H
  H30      1.0000 0.25000  0.49740  0.53670  Biso   1.000  H
  H31      1.0000 0.00260  0.25000  0.53670  Biso   1.000  H
  H32      1.0000 0.49740  0.25000  0.53670  Biso   1.000  H
  C49      1.0000 0.88170  0.48510  0.33940  Biso   1.000  C
  C50      1.0000 0.61830  0.01490  0.33940  Biso   1.000  C
  C51      1.0000 0.01490  0.88170  0.33940  Biso   1.000  C
  C52      1.0000 0.48510  0.61830  0.33940  Biso   1.000  C
  C53      1.0000 0.11830  0.98510  0.66060  Biso   1.000  C
  C54      1.0000 0.38170  0.51490  0.66060  Biso   1.000  C
  C55      1.0000 0.98510  0.38170  0.66060  Biso   1.000  C
  C56      1.0000 0.51490  0.11830  0.66060  Biso   1.000  C
  C57      1.0000 0.11830  0.51490  0.66060  Biso   1.000  C
  C58      1.0000 0.38170  0.98510  0.66060  Biso   1.000  C
  C59      1.0000 0.98510  0.11830  0.66060  Biso   1.000  C
  C60      1.0000 0.51490  0.38170  0.66060  Biso   1.000  C
  C61      1.0000 0.88170  0.01490  0.33940  Biso   1.000  C
  C62      1.0000 0.61830  0.48510  0.33940  Biso   1.000  C
  C63      1.0000 0.01490  0.61830  0.33940  Biso   1.000  C
  C64      1.0000 0.48510  0.88170  0.33940  Biso   1.000  C
  C65      1.0000 0.12310  0.37690  0.09100  Biso   1.000  C
  C66      1.0000 0.37690  0.12310  0.09100  Biso   1.000  C
  C67      1.0000 0.12310  0.12310  0.09100  Biso   1.000  C
  C68      1.0000 0.37690  0.37690  0.09100  Biso   1.000  C
  C69      1.0000 0.87690  0.87690  0.90900  Biso   1.000  C
  C70      1.0000 0.62310  0.62310  0.90900  Biso   1.000  C
  C71      1.0000 0.87690  0.62310  0.90900  Biso   1.000  C
  C72      1.0000 0.62310  0.87690  0.90900  Biso   1.000  C
  H33      1.0000 0.10080  0.34270  0.17580  Biso   1.000  H
  H34      1.0000 0.39920  0.15730  0.17580  Biso   1.000  H
  H35      1.0000 0.15730  0.10080  0.17580  Biso   1.000  H
  H36      1.0000 0.34270  0.39920  0.17580  Biso   1.000  H
  H37      1.0000 0.89920  0.84270  0.82420  Biso   1.000  H
  H38      1.0000 0.60080  0.65730  0.82420  Biso   1.000  H
  H39      1.0000 0.84270  0.60080  0.82420  Biso   1.000  H
  H40      1.0000 0.65730  0.89920  0.82420  Biso   1.000  H
  H41      1.0000 0.89920  0.65730  0.82420  Biso   1.000  H
  H42      1.0000 0.60080  0.84270  0.82420  Biso   1.000  H
  H43      1.0000 0.84270  0.89920  0.82420  Biso   1.000  H
  H44      1.0000 0.65730  0.60080  0.82420  Biso   1.000  H
  H45      1.0000 0.10080  0.15730  0.17580  Biso   1.000  H
  H46      1.0000 0.39920  0.34270  0.17580  Biso   1.000  H
  H47      1.0000 0.15730  0.39920  0.17580  Biso   1.000  H
  H48      1.0000 0.34270  0.10080  0.17580  Biso   1.000  H
  C73      1.0000 0.16650  0.33350  0.98100  Biso   1.000  C
  C74      1.0000 0.33350  0.16650  0.98100  Biso   1.000  C
  C75      1.0000 0.16650  0.16650  0.98100  Biso   1.000  C
  C76      1.0000 0.33350  0.33350  0.98100  Biso   1.000  C
  C77      1.0000 0.83350  0.83350  0.01900  Biso   1.000  C
  C78      1.0000 0.66650  0.66650  0.01900  Biso   1.000  C
  C79      1.0000 0.83350  0.66650  0.01900  Biso   1.000  C
  C80      1.0000 0.66650  0.83350  0.01900  Biso   1.000  C
  H49      1.0000 0.19440  0.30590  0.06990  Biso   1.000  H
  H50      1.0000 0.30560  0.19410  0.06990  Biso   1.000  H
  H51      1.0000 0.19410  0.19440  0.06990  Biso   1.000  H
  H52      1.0000 0.30590  0.30560  0.06990  Biso   1.000  H
  H53      1.0000 0.80560  0.80590  0.93010  Biso   1.000  H
  H54      1.0000 0.69440  0.69410  0.93010  Biso   1.000  H
  H55      1.0000 0.80590  0.69440  0.93010  Biso   1.000  H
  H56      1.0000 0.69410  0.80560  0.93010  Biso   1.000  H
  H57      1.0000 0.19670  0.36130  0.89980  Biso   1.000  H
  H58      1.0000 0.30330  0.13870  0.89980  Biso   1.000  H
  H59      1.0000 0.13870  0.19670  0.89980  Biso   1.000  H
  H60      1.0000 0.36130  0.30330  0.89980  Biso   1.000  H
  H61      1.0000 0.80330  0.86130  0.10020  Biso   1.000  H
  H62      1.0000 0.69670  0.63870  0.10020  Biso   1.000  H
  H63      1.0000 0.86130  0.69670  0.10020  Biso   1.000  H
  H64      1.0000 0.63870  0.80330  0.10020  Biso   1.000  H
  H65      1.0000 0.80330  0.63870  0.10020  Biso   1.000  H
  H66      1.0000 0.69670  0.86130  0.10020  Biso   1.000  H
  H67      1.0000 0.86130  0.80330  0.10020  Biso   1.000  H
  H68      1.0000 0.63870  0.69670  0.10020  Biso   1.000  H
  H69      1.0000 0.19670  0.13870  0.89980  Biso   1.000  H
  H70      1.0000 0.30330  0.36130  0.89980  Biso   1.000  H
  H71      1.0000 0.13870  0.30330  0.89980  Biso   1.000  H
  H72      1.0000 0.36130  0.19670  0.89980  Biso   1.000  H
  H73      1.0000 0.13870  0.30360  0.89880  Biso   1.000  H
  H74      1.0000 0.36130  0.19640  0.89880  Biso   1.000  H
  H75      1.0000 0.19640  0.13870  0.89880  Biso   1.000  H
  H76      1.0000 0.30360  0.36130  0.89880  Biso   1.000  H
  H77      1.0000 0.86130  0.80360  0.10120  Biso   1.000  H
  H78      1.0000 0.63870  0.69640  0.10120  Biso   1.000  H
  H79      1.0000 0.80360  0.63870  0.10120  Biso   1.000  H
  H80      1.0000 0.69640  0.86130  0.10120  Biso   1.000  H
  H81      1.0000 0.86130  0.69640  0.10120  Biso   1.000  H
  H82      1.0000 0.63870  0.80360  0.10120  Biso   1.000  H
  H83      1.0000 0.80360  0.86130  0.10120  Biso   1.000  H
  H84      1.0000 0.69640  0.63870  0.10120  Biso   1.000  H
  H85      1.0000 0.13870  0.19640  0.89880  Biso   1.000  H
  H86      1.0000 0.36130  0.30360  0.89880  Biso   1.000  H
  H87      1.0000 0.19640  0.36130  0.89880  Biso   1.000  H
  H88      1.0000 0.30360  0.13870  0.89880  Biso   1.000  H
  O1       1.0000 0.93460  0.46420  0.25180  Biso   1.000  O
  O2       1.0000 0.56540  0.03580  0.25180  Biso   1.000  O
  O3       1.0000 0.03580  0.93460  0.25180  Biso   1.000  O
  O4       1.0000 0.46420  0.56540  0.25180  Biso   1.000  O
  O5       1.0000 0.06540  0.96420  0.74820  Biso   1.000  O
  O6       1.0000 0.43460  0.53580  0.74820  Biso   1.000  O
  O7       1.0000 0.96420  0.43460  0.74820  Biso   1.000  O
  O8       1.0000 0.53580  0.06540  0.74820  Biso   1.000  O
  O9       1.0000 0.06540  0.53580  0.74820  Biso   1.000  O
  O10      1.0000 0.43460  0.96420  0.74820  Biso   1.000  O
  O11      1.0000 0.96420  0.06540  0.74820  Biso   1.000  O
  O12      1.0000 0.53580  0.43460  0.74820  Biso   1.000  O
  O13      1.0000 0.93460  0.03580  0.25180  Biso   1.000  O
  O14      1.0000 0.56540  0.46420  0.25180  Biso   1.000  O
  O15      1.0000 0.03580  0.56540  0.25180  Biso   1.000  O
  O16      1.0000 0.46420  0.93460  0.25180  Biso   1.000  O
  O17      1.0000 0.88160  0.51530  0.50350  Biso   1.000  O
  O18      1.0000 0.61840  0.98470  0.50350  Biso   1.000  O
  O19      1.0000 0.98470  0.88160  0.50350  Biso   1.000  O
  O20      1.0000 0.51530  0.61840  0.50350  Biso   1.000  O
  O21      1.0000 0.11840  0.01530  0.49650  Biso   1.000  O
  O22      1.0000 0.38160  0.48470  0.49650  Biso   1.000  O
  O23      1.0000 0.01530  0.38160  0.49650  Biso   1.000  O
  O24      1.0000 0.48470  0.11840  0.49650  Biso   1.000  O
  O25      1.0000 0.11840  0.48470  0.49650  Biso   1.000  O
  O26      1.0000 0.38160  0.01530  0.49650  Biso   1.000  O
  O27      1.0000 0.01530  0.11840  0.49650  Biso   1.000  O
  O28      1.0000 0.48470  0.38160  0.49650  Biso   1.000  O
  O29      1.0000 0.88160  0.98470  0.50350  Biso   1.000  O
  O30      1.0000 0.61840  0.51530  0.50350  Biso   1.000  O
  O31      1.0000 0.98470  0.61840  0.50350  Biso   1.000  O
  O32      1.0000 0.51530  0.88160  0.50350  Biso   1.000  O
  O33      1.0000 0.07500  0.42500  0.08890  Biso   1.000  O
  O34      1.0000 0.42500  0.07500  0.08890  Biso   1.000  O
  O35      1.0000 0.07500  0.07500  0.08890  Biso   1.000  O
  O36      1.0000 0.42500  0.42500  0.08890  Biso   1.000  O
  O37      1.0000 0.92500  0.92500  0.91110  Biso   1.000  O
  O38      1.0000 0.57500  0.57500  0.91110  Biso   1.000  O
  O39      1.0000 0.92500  0.57500  0.91110  Biso   1.000  O
  O40      1.0000 0.57500  0.92500  0.91110  Biso   1.000  O
