data_image0
_cell_length_a       18.052
_cell_length_b       13.836
_cell_length_c       19.114
_cell_angle_alpha    90
_cell_angle_beta     90
_cell_angle_gamma    90

_symmetry_space_group_name_H-M    "P 1"
_symmetry_int_tables_number       1

loop_
  _symmetry_equiv_pos_as_xyz
  'x, y, z'

loop_
  _atom_site_label
  _atom_site_occupancy
  _atom_site_fract_x
  _atom_site_fract_y
  _atom_site_fract_z
  _atom_site_thermal_displace_type
  _atom_site_B_iso_or_equiv
  _atom_site_type_symbol
  Cu1      1.0000 0.23193  0.16765  0.51182  Biso   1.000  Cu
  Cu2      1.0000 0.26807  0.83235  0.01182  Biso   1.000  Cu
  Cu3      1.0000 0.73193  0.33235  0.48818  Biso   1.000  Cu
  Cu4      1.0000 0.76807  0.66765  0.98818  Biso   1.000  Cu
  Cu5      1.0000 0.76807  0.83235  0.48818  Biso   1.000  Cu
  Cu6      1.0000 0.73193  0.16765  0.98818  Biso   1.000  Cu
  Cu7      1.0000 0.26807  0.66765  0.51182  Biso   1.000  Cu
  Cu8      1.0000 0.23193  0.33235  0.01182  Biso   1.000  Cu
  Cu9      1.0000 0.30899  0.30896  0.45728  Biso   1.000  Cu
  Cu10     1.0000 0.19101  0.69104  0.95728  Biso   1.000  Cu
  Cu11     1.0000 0.80899  0.19104  0.54272  Biso   1.000  Cu
  Cu12     1.0000 0.69101  0.80896  0.04272  Biso   1.000  Cu
  Cu13     1.0000 0.69101  0.69104  0.54272  Biso   1.000  Cu
  Cu14     1.0000 0.80899  0.30896  0.04272  Biso   1.000  Cu
  Cu15     1.0000 0.19101  0.80896  0.45728  Biso   1.000  Cu
  Cu16     1.0000 0.30899  0.19104  0.95728  Biso   1.000  Cu
  C1       1.0000 0.25940  0.11740  0.29480  Biso   1.000  C
  C2       1.0000 0.24060  0.88260  0.79480  Biso   1.000  C
  C3       1.0000 0.75940  0.38260  0.70520  Biso   1.000  C
  C4       1.0000 0.74060  0.61740  0.20520  Biso   1.000  C
  C5       1.0000 0.74060  0.88260  0.70520  Biso   1.000  C
  C6       1.0000 0.75940  0.11740  0.20520  Biso   1.000  C
  C7       1.0000 0.24060  0.61740  0.29480  Biso   1.000  C
  C8       1.0000 0.25940  0.38260  0.79480  Biso   1.000  C
  C9       1.0000 0.26840  0.16570  0.23430  Biso   1.000  C
  C10      1.0000 0.23160  0.83430  0.73430  Biso   1.000  C
  C11      1.0000 0.76840  0.33430  0.76570  Biso   1.000  C
  C12      1.0000 0.73160  0.66570  0.26570  Biso   1.000  C
  C13      1.0000 0.73160  0.83430  0.76570  Biso   1.000  C
  C14      1.0000 0.76840  0.16570  0.26570  Biso   1.000  C
  C15      1.0000 0.23160  0.66570  0.23430  Biso   1.000  C
  C16      1.0000 0.26840  0.33430  0.73430  Biso   1.000  C
  H1       1.0000 0.28190  0.23050  0.23630  Biso   1.000  H
  H2       1.0000 0.21810  0.76950  0.73630  Biso   1.000  H
  H3       1.0000 0.78190  0.26950  0.76370  Biso   1.000  H
  H4       1.0000 0.71810  0.73050  0.26370  Biso   1.000  H
  H5       1.0000 0.71810  0.76950  0.76370  Biso   1.000  H
  H6       1.0000 0.78190  0.23050  0.26370  Biso   1.000  H
  H7       1.0000 0.21810  0.73050  0.23630  Biso   1.000  H
  H8       1.0000 0.28190  0.26950  0.73630  Biso   1.000  H
  C17      1.0000 0.25850  0.12420  0.16960  Biso   1.000  C
  C18      1.0000 0.24150  0.87580  0.66960  Biso   1.000  C
  C19      1.0000 0.75850  0.37580  0.83040  Biso   1.000  C
  C20      1.0000 0.74150  0.62420  0.33040  Biso   1.000  C
  C21      1.0000 0.74150  0.87580  0.83040  Biso   1.000  C
  C22      1.0000 0.75850  0.12420  0.33040  Biso   1.000  C
  C23      1.0000 0.24150  0.62420  0.16960  Biso   1.000  C
  C24      1.0000 0.25850  0.37580  0.66960  Biso   1.000  C
  C25      1.0000 0.23980  0.02530  0.16680  Biso   1.000  C
  C26      1.0000 0.26020  0.97470  0.66680  Biso   1.000  C
  C27      1.0000 0.73980  0.47470  0.83320  Biso   1.000  C
  C28      1.0000 0.76020  0.52530  0.33320  Biso   1.000  C
  C29      1.0000 0.76020  0.97470  0.83320  Biso   1.000  C
  C30      1.0000 0.73980  0.02530  0.33320  Biso   1.000  C
  C31      1.0000 0.26020  0.52530  0.16680  Biso   1.000  C
  C32      1.0000 0.23980  0.47470  0.66680  Biso   1.000  C
  H9       1.0000 0.23430  0.99400  0.12400  Biso   1.000  H
  H10      1.0000 0.26570  0.00600  0.62400  Biso   1.000  H
  H11      1.0000 0.73430  0.50600  0.87600  Biso   1.000  H
  H12      1.0000 0.76570  0.49400  0.37600  Biso   1.000  H
  H13      1.0000 0.76570  0.00600  0.87600  Biso   1.000  H
  H14      1.0000 0.73430  0.99400  0.37600  Biso   1.000  H
  H15      1.0000 0.26570  0.49400  0.12400  Biso   1.000  H
  H16      1.0000 0.23430  0.50600  0.62400  Biso   1.000  H
  C33      1.0000 0.23010  0.97660  0.22800  Biso   1.000  C
  C34      1.0000 0.26990  0.02340  0.72800  Biso   1.000  C
  C35      1.0000 0.73010  0.52340  0.77200  Biso   1.000  C
  C36      1.0000 0.76990  0.47660  0.27200  Biso   1.000  C
  C37      1.0000 0.76990  0.02340  0.77200  Biso   1.000  C
  C38      1.0000 0.73010  0.97660  0.27200  Biso   1.000  C
  C39      1.0000 0.26990  0.47660  0.22800  Biso   1.000  C
  C40      1.0000 0.23010  0.52340  0.72800  Biso   1.000  C
  H17      1.0000 0.21630  0.91180  0.22650  Biso   1.000  H
  H18      1.0000 0.28370  0.08820  0.72650  Biso   1.000  H
  H19      1.0000 0.71630  0.58820  0.77350  Biso   1.000  H
  H20      1.0000 0.78370  0.41180  0.27350  Biso   1.000  H
  H21      1.0000 0.78370  0.08820  0.77350  Biso   1.000  H
  H22      1.0000 0.71630  0.91180  0.27350  Biso   1.000  H
  H23      1.0000 0.28370  0.41180  0.22650  Biso   1.000  H
  H24      1.0000 0.21630  0.58820  0.72650  Biso   1.000  H
  C41      1.0000 0.24000  0.01950  0.29090  Biso   1.000  C
  C42      1.0000 0.26000  0.98050  0.79090  Biso   1.000  C
  C43      1.0000 0.74000  0.48050  0.70910  Biso   1.000  C
  C44      1.0000 0.76000  0.51950  0.20910  Biso   1.000  C
  C45      1.0000 0.76000  0.98050  0.70910  Biso   1.000  C
  C46      1.0000 0.74000  0.01950  0.20910  Biso   1.000  C
  C47      1.0000 0.26000  0.51950  0.29090  Biso   1.000  C
  C48      1.0000 0.24000  0.48050  0.79090  Biso   1.000  C
  H25      1.0000 0.23390  0.98390  0.33180  Biso   1.000  H
  H26      1.0000 0.26610  0.01610  0.83180  Biso   1.000  H
  H27      1.0000 0.73390  0.51610  0.66820  Biso   1.000  H
  H28      1.0000 0.76610  0.48390  0.16820  Biso   1.000  H
  H29      1.0000 0.76610  0.01610  0.66820  Biso   1.000  H
  H30      1.0000 0.73390  0.98390  0.16820  Biso   1.000  H
  H31      1.0000 0.26610  0.48390  0.33180  Biso   1.000  H
  H32      1.0000 0.23390  0.51610  0.83180  Biso   1.000  H
  C49      1.0000 0.26920  0.16260  0.36400  Biso   1.000  C
  C50      1.0000 0.23080  0.83740  0.86400  Biso   1.000  C
  C51      1.0000 0.76920  0.33740  0.63600  Biso   1.000  C
  C52      1.0000 0.73080  0.66260  0.13600  Biso   1.000  C
  C53      1.0000 0.73080  0.83740  0.63600  Biso   1.000  C
  C54      1.0000 0.76920  0.16260  0.13600  Biso   1.000  C
  C55      1.0000 0.23080  0.66260  0.36400  Biso   1.000  C
  C56      1.0000 0.26920  0.33740  0.86400  Biso   1.000  C
  C57      1.0000 0.26390  0.17800  0.10310  Biso   1.000  C
  C58      1.0000 0.23610  0.82200  0.60310  Biso   1.000  C
  C59      1.0000 0.76390  0.32200  0.89690  Biso   1.000  C
  C60      1.0000 0.73610  0.67800  0.39690  Biso   1.000  C
  C61      1.0000 0.73610  0.82200  0.89690  Biso   1.000  C
  C62      1.0000 0.76390  0.17800  0.39690  Biso   1.000  C
  C63      1.0000 0.23610  0.67800  0.10310  Biso   1.000  C
  C64      1.0000 0.26390  0.32200  0.60310  Biso   1.000  C
  C65      1.0000 0.45290  0.10630  0.55310  Biso   1.000  C
  C66      1.0000 0.04710  0.89370  0.05310  Biso   1.000  C
  C67      1.0000 0.95290  0.39370  0.44690  Biso   1.000  C
  C68      1.0000 0.54710  0.60630  0.94690  Biso   1.000  C
  C69      1.0000 0.54710  0.89370  0.44690  Biso   1.000  C
  C70      1.0000 0.95290  0.10630  0.94690  Biso   1.000  C
  C71      1.0000 0.04710  0.60630  0.55310  Biso   1.000  C
  C72      1.0000 0.45290  0.39370  0.05310  Biso   1.000  C
  C73      1.0000 0.51970  0.15430  0.54160  Biso   1.000  C
  C74      1.0000 0.98030  0.84570  0.04160  Biso   1.000  C
  C75      1.0000 0.01970  0.34570  0.45840  Biso   1.000  C
  C76      1.0000 0.48030  0.65430  0.95840  Biso   1.000  C
  C77      1.0000 0.48030  0.84570  0.45840  Biso   1.000  C
  C78      1.0000 0.01970  0.15430  0.95840  Biso   1.000  C
  C79      1.0000 0.98030  0.65430  0.54160  Biso   1.000  C
  C80      1.0000 0.51970  0.34570  0.04160  Biso   1.000  C
  H33      1.0000 0.51890  0.21320  0.51810  Biso   1.000  H
  H34      1.0000 0.98110  0.78680  0.01810  Biso   1.000  H
  H35      1.0000 0.01890  0.28680  0.48190  Biso   1.000  H
  H36      1.0000 0.48110  0.71320  0.98190  Biso   1.000  H
  H37      1.0000 0.48110  0.78680  0.48190  Biso   1.000  H
  H38      1.0000 0.01890  0.21320  0.98190  Biso   1.000  H
  H39      1.0000 0.98110  0.71320  0.51810  Biso   1.000  H
  H40      1.0000 0.51890  0.28680  0.01810  Biso   1.000  H
  C81      1.0000 0.58720  0.11770  0.56370  Biso   1.000  C
  C82      1.0000 0.91280  0.88230  0.06370  Biso   1.000  C
  C83      1.0000 0.08720  0.38230  0.43630  Biso   1.000  C
  C84      1.0000 0.41280  0.61770  0.93630  Biso   1.000  C
  C85      1.0000 0.41280  0.88230  0.43630  Biso   1.000  C
  C86      1.0000 0.08720  0.11770  0.93630  Biso   1.000  C
  C87      1.0000 0.91280  0.61770  0.56370  Biso   1.000  C
  C88      1.0000 0.58720  0.38230  0.06370  Biso   1.000  C
  C89      1.0000 0.58710  0.03030  0.59930  Biso   1.000  C
  C90      1.0000 0.91290  0.96970  0.09930  Biso   1.000  C
  C91      1.0000 0.08710  0.46970  0.40070  Biso   1.000  C
  C92      1.0000 0.41290  0.53030  0.90070  Biso   1.000  C
  C93      1.0000 0.41290  0.96970  0.40070  Biso   1.000  C
  C94      1.0000 0.08710  0.03030  0.90070  Biso   1.000  C
  C95      1.0000 0.91290  0.53030  0.59930  Biso   1.000  C
  C96      1.0000 0.58710  0.46970  0.09930  Biso   1.000  C
  H41      1.0000 0.63160  0.00350  0.61420  Biso   1.000  H
  H42      1.0000 0.86840  0.99650  0.11420  Biso   1.000  H
  H43      1.0000 0.13160  0.49650  0.38580  Biso   1.000  H
  H44      1.0000 0.36840  0.50350  0.88580  Biso   1.000  H
  H45      1.0000 0.36840  0.99650  0.38580  Biso   1.000  H
  H46      1.0000 0.13160  0.00350  0.88580  Biso   1.000  H
  H47      1.0000 0.86840  0.50350  0.61420  Biso   1.000  H
  H48      1.0000 0.63160  0.49650  0.11420  Biso   1.000  H
  C97      1.0000 0.52090  0.98280  0.61280  Biso   1.000  C
  C98      1.0000 0.97910  0.01720  0.11280  Biso   1.000  C
  C99      1.0000 0.02090  0.51720  0.38720  Biso   1.000  C
  C100     1.0000 0.47910  0.48280  0.88720  Biso   1.000  C
  C101     1.0000 0.47910  0.01720  0.38720  Biso   1.000  C
  C102     1.0000 0.02090  0.98280  0.88720  Biso   1.000  C
  C103     1.0000 0.97910  0.48280  0.61280  Biso   1.000  C
  C104     1.0000 0.52090  0.51720  0.11280  Biso   1.000  C
  H49      1.0000 0.52110  0.92530  0.63800  Biso   1.000  H
  H50      1.0000 0.97890  0.07470  0.13800  Biso   1.000  H
  H51      1.0000 0.02110  0.57470  0.36200  Biso   1.000  H
  H52      1.0000 0.47890  0.42530  0.86200  Biso   1.000  H
  H53      1.0000 0.47890  0.07470  0.36200  Biso   1.000  H
  H54      1.0000 0.02110  0.92530  0.86200  Biso   1.000  H
  H55      1.0000 0.97890  0.42530  0.63800  Biso   1.000  H
  H56      1.0000 0.52110  0.57470  0.13800  Biso   1.000  H
  C105     1.0000 0.45500  0.02060  0.58900  Biso   1.000  C
  C106     1.0000 0.04500  0.97940  0.08900  Biso   1.000  C
  C107     1.0000 0.95500  0.47940  0.41100  Biso   1.000  C
  C108     1.0000 0.54500  0.52060  0.91100  Biso   1.000  C
  C109     1.0000 0.54500  0.97940  0.41100  Biso   1.000  C
  C110     1.0000 0.95500  0.02060  0.91100  Biso   1.000  C
  C111     1.0000 0.04500  0.52060  0.58900  Biso   1.000  C
  C112     1.0000 0.45500  0.47940  0.08900  Biso   1.000  C
  H57      1.0000 0.41110  0.98740  0.59750  Biso   1.000  H
  H58      1.0000 0.08890  0.01260  0.09750  Biso   1.000  H
  H59      1.0000 0.91110  0.51260  0.40250  Biso   1.000  H
  H60      1.0000 0.58890  0.48740  0.90250  Biso   1.000  H
  H61      1.0000 0.58890  0.01260  0.40250  Biso   1.000  H
  H62      1.0000 0.91110  0.98740  0.90250  Biso   1.000  H
  H63      1.0000 0.08890  0.48740  0.59750  Biso   1.000  H
  H64      1.0000 0.41110  0.51260  0.09750  Biso   1.000  H
  C113     1.0000 0.38500  0.14810  0.52540  Biso   1.000  C
  C114     1.0000 0.11500  0.85190  0.02540  Biso   1.000  C
  C115     1.0000 0.88500  0.35190  0.47460  Biso   1.000  C
  C116     1.0000 0.61500  0.64810  0.97460  Biso   1.000  C
  C117     1.0000 0.61500  0.85190  0.47460  Biso   1.000  C
  C118     1.0000 0.88500  0.14810  0.97460  Biso   1.000  C
  C119     1.0000 0.11500  0.64810  0.52540  Biso   1.000  C
  C120     1.0000 0.38500  0.35190  0.02540  Biso   1.000  C
  C121     1.0000 0.65740  0.16700  0.54830  Biso   1.000  C
  C122     1.0000 0.84260  0.83300  0.04830  Biso   1.000  C
  C123     1.0000 0.15740  0.33300  0.45170  Biso   1.000  C
  C124     1.0000 0.34260  0.66700  0.95170  Biso   1.000  C
  C125     1.0000 0.34260  0.83300  0.45170  Biso   1.000  C
  C126     1.0000 0.15740  0.16700  0.95170  Biso   1.000  C
  C127     1.0000 0.84260  0.66700  0.54830  Biso   1.000  C
  C128     1.0000 0.65740  0.33300  0.04830  Biso   1.000  C
  C129     1.0000 0.43930  0.38280  0.39190  Biso   1.000  C
  C130     1.0000 0.06070  0.61720  0.89190  Biso   1.000  C
  C131     1.0000 0.93930  0.11720  0.60810  Biso   1.000  C
  C132     1.0000 0.56070  0.88280  0.10810  Biso   1.000  C
  C133     1.0000 0.56070  0.61720  0.60810  Biso   1.000  C
  C134     1.0000 0.93930  0.38280  0.10810  Biso   1.000  C
  C135     1.0000 0.06070  0.88280  0.39190  Biso   1.000  C
  C136     1.0000 0.43930  0.11720  0.89190  Biso   1.000  C
  C137     1.0000 0.56110  0.38340  0.32570  Biso   1.000  C
  C138     1.0000 0.93890  0.61660  0.82570  Biso   1.000  C
  C139     1.0000 0.06110  0.11660  0.67430  Biso   1.000  C
  C140     1.0000 0.43890  0.88340  0.17430  Biso   1.000  C
  C141     1.0000 0.43890  0.61660  0.67430  Biso   1.000  C
  C142     1.0000 0.06110  0.38340  0.17430  Biso   1.000  C
  C143     1.0000 0.93890  0.88340  0.32570  Biso   1.000  C
  C144     1.0000 0.56110  0.11660  0.82570  Biso   1.000  C
  C145     1.0000 0.55050  0.31460  0.27180  Biso   1.000  C
  C146     1.0000 0.94950  0.68540  0.77180  Biso   1.000  C
  C147     1.0000 0.05050  0.18540  0.72820  Biso   1.000  C
  C148     1.0000 0.44950  0.81460  0.22820  Biso   1.000  C
  C149     1.0000 0.44950  0.68540  0.72820  Biso   1.000  C
  C150     1.0000 0.05050  0.31460  0.22820  Biso   1.000  C
  C151     1.0000 0.94950  0.81460  0.27180  Biso   1.000  C
  C152     1.0000 0.55050  0.18540  0.77180  Biso   1.000  C
  C153     1.0000 0.46850  0.52510  0.33150  Biso   1.000  C
  C154     1.0000 0.03150  0.47490  0.83150  Biso   1.000  C
  C155     1.0000 0.96850  0.97490  0.66850  Biso   1.000  C
  C156     1.0000 0.53150  0.02510  0.16850  Biso   1.000  C
  C157     1.0000 0.53150  0.47490  0.66850  Biso   1.000  C
  C158     1.0000 0.96850  0.52510  0.16850  Biso   1.000  C
  C159     1.0000 0.03150  0.02510  0.33150  Biso   1.000  C
  C160     1.0000 0.46850  0.97490  0.83150  Biso   1.000  C
  C161     1.0000 0.50410  0.59560  0.37440  Biso   1.000  C
  C162     1.0000 0.99590  0.40440  0.87440  Biso   1.000  C
  C163     1.0000 0.00410  0.90440  0.62560  Biso   1.000  C
  C164     1.0000 0.49590  0.09560  0.12560  Biso   1.000  C
  C165     1.0000 0.49590  0.40440  0.62560  Biso   1.000  C
  C166     1.0000 0.00410  0.59560  0.12560  Biso   1.000  C
  C167     1.0000 0.99590  0.09560  0.37440  Biso   1.000  C
  C168     1.0000 0.50410  0.90440  0.87440  Biso   1.000  C
  N1       1.0000 0.49500  0.43060  0.35290  Biso   1.000  N
  N2       1.0000 0.00500  0.56940  0.85290  Biso   1.000  N
  N3       1.0000 0.99500  0.06940  0.64710  Biso   1.000  N
  N4       1.0000 0.50500  0.93060  0.14710  Biso   1.000  N
  N5       1.0000 0.50500  0.56940  0.64710  Biso   1.000  N
  N6       1.0000 0.99500  0.43060  0.14710  Biso   1.000  N
  N7       1.0000 0.00500  0.93060  0.35290  Biso   1.000  N
  N8       1.0000 0.49500  0.06940  0.85290  Biso   1.000  N
  O1       1.0000 0.23660  0.12360  0.41530  Biso   1.000  O
  O2       1.0000 0.26340  0.87640  0.91530  Biso   1.000  O
  O3       1.0000 0.73660  0.37640  0.58470  Biso   1.000  O
  O4       1.0000 0.76340  0.62360  0.08470  Biso   1.000  O
  O5       1.0000 0.76340  0.87640  0.58470  Biso   1.000  O
  O6       1.0000 0.73660  0.12360  0.08470  Biso   1.000  O
  O7       1.0000 0.26340  0.62360  0.41530  Biso   1.000  O
  O8       1.0000 0.23660  0.37640  0.91530  Biso   1.000  O
  O9       1.0000 0.30880  0.23890  0.36830  Biso   1.000  O
  O10      1.0000 0.19120  0.76110  0.86830  Biso   1.000  O
  O11      1.0000 0.80880  0.26110  0.63170  Biso   1.000  O
  O12      1.0000 0.69120  0.73890  0.13170  Biso   1.000  O
  O13      1.0000 0.69120  0.76110  0.63170  Biso   1.000  O
  O14      1.0000 0.80880  0.23890  0.13170  Biso   1.000  O
  O15      1.0000 0.19120  0.73890  0.36830  Biso   1.000  O
  O16      1.0000 0.30880  0.26110  0.86830  Biso   1.000  O
  O17      1.0000 0.24020  0.26570  0.10170  Biso   1.000  O
  O18      1.0000 0.25980  0.73430  0.60170  Biso   1.000  O
  O19      1.0000 0.74020  0.23430  0.89830  Biso   1.000  O
  O20      1.0000 0.75980  0.76570  0.39830  Biso   1.000  O
  O21      1.0000 0.75980  0.73430  0.89830  Biso   1.000  O
  O22      1.0000 0.74020  0.26570  0.39830  Biso   1.000  O
  O23      1.0000 0.25980  0.76570  0.10170  Biso   1.000  O
  O24      1.0000 0.24020  0.23430  0.60170  Biso   1.000  O
  O25      1.0000 0.29380  0.13660  0.05120  Biso   1.000  O
  O26      1.0000 0.20620  0.86340  0.55120  Biso   1.000  O
  O27      1.0000 0.79380  0.36340  0.94880  Biso   1.000  O
  O28      1.0000 0.70620  0.63660  0.44880  Biso   1.000  O
  O29      1.0000 0.70620  0.86340  0.94880  Biso   1.000  O
  O30      1.0000 0.79380  0.13660  0.44880  Biso   1.000  O
  O31      1.0000 0.20620  0.63660  0.05120  Biso   1.000  O
  O32      1.0000 0.29380  0.36340  0.55120  Biso   1.000  O
  O33      1.0000 0.32530  0.10290  0.53420  Biso   1.000  O
  O34      1.0000 0.17470  0.89710  0.03420  Biso   1.000  O
  O35      1.0000 0.82530  0.39710  0.46580  Biso   1.000  O
  O36      1.0000 0.67470  0.60290  0.96580  Biso   1.000  O
  O37      1.0000 0.67470  0.89710  0.46580  Biso   1.000  O
  O38      1.0000 0.82530  0.10290  0.96580  Biso   1.000  O
  O39      1.0000 0.17470  0.60290  0.53420  Biso   1.000  O
  O40      1.0000 0.32530  0.39710  0.03420  Biso   1.000  O
  O41      1.0000 0.38910  0.22870  0.49510  Biso   1.000  O
  O42      1.0000 0.11090  0.77130  0.99510  Biso   1.000  O
  O43      1.0000 0.88910  0.27130  0.50490  Biso   1.000  O
  O44      1.0000 0.61090  0.72870  0.00490  Biso   1.000  O
  O45      1.0000 0.61090  0.77130  0.50490  Biso   1.000  O
  O46      1.0000 0.88910  0.22870  0.00490  Biso   1.000  O
  O47      1.0000 0.11090  0.72870  0.49510  Biso   1.000  O
  O48      1.0000 0.38910  0.27130  0.99510  Biso   1.000  O
  O49      1.0000 0.65140  0.24460  0.51320  Biso   1.000  O
  O50      1.0000 0.84860  0.75540  0.01320  Biso   1.000  O
  O51      1.0000 0.15140  0.25540  0.48680  Biso   1.000  O
  O52      1.0000 0.34860  0.74460  0.98680  Biso   1.000  O
  O53      1.0000 0.34860  0.75540  0.48680  Biso   1.000  O
  O54      1.0000 0.15140  0.24460  0.98680  Biso   1.000  O
  O55      1.0000 0.84860  0.74460  0.51320  Biso   1.000  O
  O56      1.0000 0.65140  0.25540  0.01320  Biso   1.000  O
  O57      1.0000 0.71640  0.13380  0.57050  Biso   1.000  O
  O58      1.0000 0.78360  0.86620  0.07050  Biso   1.000  O
  O59      1.0000 0.21640  0.36620  0.42950  Biso   1.000  O
  O60      1.0000 0.28360  0.63380  0.92950  Biso   1.000  O
  O61      1.0000 0.28360  0.86620  0.42950  Biso   1.000  O
  O62      1.0000 0.21640  0.13380  0.92950  Biso   1.000  O
  O63      1.0000 0.78360  0.63380  0.57050  Biso   1.000  O
  O64      1.0000 0.71640  0.36620  0.07050  Biso   1.000  O
  O65      1.0000 0.38690  0.41650  0.42030  Biso   1.000  O
  O66      1.0000 0.11310  0.58350  0.92030  Biso   1.000  O
  O67      1.0000 0.88690  0.08350  0.57970  Biso   1.000  O
  O68      1.0000 0.61310  0.91650  0.07970  Biso   1.000  O
  O69      1.0000 0.61310  0.58350  0.57970  Biso   1.000  O
  O70      1.0000 0.88690  0.41650  0.07970  Biso   1.000  O
  O71      1.0000 0.11310  0.91650  0.42030  Biso   1.000  O
  O72      1.0000 0.38690  0.08350  0.92030  Biso   1.000  O
  O73      1.0000 0.15490  0.05070  0.53090  Biso   1.000  O
  O74      1.0000 0.34510  0.94930  0.03090  Biso   1.000  O
  O75      1.0000 0.65490  0.44930  0.46910  Biso   1.000  O
  O76      1.0000 0.84510  0.55070  0.96910  Biso   1.000  O
  O77      1.0000 0.84510  0.94930  0.46910  Biso   1.000  O
  O78      1.0000 0.65490  0.05070  0.96910  Biso   1.000  O
  O79      1.0000 0.34510  0.55070  0.53090  Biso   1.000  O
  O80      1.0000 0.15490  0.44930  0.03090  Biso   1.000  O
  H65      1.0000 0.13110  0.03600  0.49590  Biso   1.000  H
  H66      1.0000 0.36890  0.96400  0.99590  Biso   1.000  H
  H67      1.0000 0.63110  0.46400  0.50410  Biso   1.000  H
  H68      1.0000 0.86890  0.53600  0.00410  Biso   1.000  H
  H69      1.0000 0.86890  0.96400  0.50410  Biso   1.000  H
  H70      1.0000 0.63110  0.03600  0.00410  Biso   1.000  H
  H71      1.0000 0.36890  0.53600  0.49590  Biso   1.000  H
  H72      1.0000 0.13110  0.46400  0.99590  Biso   1.000  H
  H73      1.0000 0.16750  0.00260  0.55270  Biso   1.000  H
  H74      1.0000 0.33250  0.99740  0.05270  Biso   1.000  H
  H75      1.0000 0.66750  0.49740  0.44730  Biso   1.000  H
  H76      1.0000 0.83250  0.50260  0.94730  Biso   1.000  H
  H77      1.0000 0.83250  0.99740  0.44730  Biso   1.000  H
  H78      1.0000 0.66750  0.00260  0.94730  Biso   1.000  H
  H79      1.0000 0.33250  0.50260  0.55270  Biso   1.000  H
  H80      1.0000 0.16750  0.49740  0.05270  Biso   1.000  H
