data_image0
_cell_length_a       17.781
_cell_length_b       28.331
_cell_length_c       10.766
_cell_angle_alpha    90
_cell_angle_beta     101.92
_cell_angle_gamma    90

_symmetry_space_group_name_H-M    "P 1"
_symmetry_int_tables_number       1

loop_
  _symmetry_equiv_pos_as_xyz
  'x, y, z'

loop_
  _atom_site_label
  _atom_site_occupancy
  _atom_site_fract_x
  _atom_site_fract_y
  _atom_site_fract_z
  _atom_site_thermal_displace_type
  _atom_site_B_iso_or_equiv
  _atom_site_type_symbol
  Cu1      1.0000 0.79169  0.78061  0.95029  Biso   1.000  Cu
  Cu2      1.0000 0.20831  0.78061  0.04971  Biso   1.000  Cu
  Cu3      1.0000 0.29169  0.28061  0.95029  Biso   1.000  Cu
  Cu4      1.0000 0.70831  0.28061  0.04971  Biso   1.000  Cu
  Cu5      1.0000 0.20831  0.21939  0.04971  Biso   1.000  Cu
  Cu6      1.0000 0.79169  0.21939  0.95029  Biso   1.000  Cu
  Cu7      1.0000 0.70831  0.71939  0.04971  Biso   1.000  Cu
  Cu8      1.0000 0.29169  0.71939  0.95029  Biso   1.000  Cu
  Cu9      1.0000 0.50015  0.50000  0.62170  Biso   1.000  Cu
  Cu10     1.0000 0.49985  0.50000  0.37830  Biso   1.000  Cu
  Cu11     1.0000 0.00015  0.00000  0.62170  Biso   1.000  Cu
  Cu12     1.0000 0.99985  0.00000  0.37830  Biso   1.000  Cu
  Cu13     1.0000 0.92409  0.50000  0.46959  Biso   1.000  Cu
  Cu14     1.0000 0.07591  0.50000  0.53041  Biso   1.000  Cu
  Cu15     1.0000 0.42409  0.00000  0.46959  Biso   1.000  Cu
  Cu16     1.0000 0.57591  0.00000  0.53041  Biso   1.000  Cu
  C1       1.0000 0.93880  0.67659  0.15790  Biso   1.000  C
  C2       1.0000 0.06120  0.67659  0.84210  Biso   1.000  C
  C3       1.0000 0.43880  0.17659  0.15790  Biso   1.000  C
  C4       1.0000 0.56120  0.17659  0.84210  Biso   1.000  C
  C5       1.0000 0.06120  0.32341  0.84210  Biso   1.000  C
  C6       1.0000 0.93880  0.32341  0.15790  Biso   1.000  C
  C7       1.0000 0.56120  0.82341  0.84210  Biso   1.000  C
  C8       1.0000 0.43880  0.82341  0.15790  Biso   1.000  C
  C9       1.0000 0.93650  0.63354  0.21850  Biso   1.000  C
  C10      1.0000 0.06350  0.63354  0.78150  Biso   1.000  C
  C11      1.0000 0.43650  0.13354  0.21850  Biso   1.000  C
  C12      1.0000 0.56350  0.13354  0.78150  Biso   1.000  C
  C13      1.0000 0.06350  0.36646  0.78150  Biso   1.000  C
  C14      1.0000 0.93650  0.36646  0.21850  Biso   1.000  C
  C15      1.0000 0.56350  0.86646  0.78150  Biso   1.000  C
  C16      1.0000 0.43650  0.86646  0.21850  Biso   1.000  C
  H1       1.0000 0.88940  0.62000  0.22250  Biso   1.000  H
  H2       1.0000 0.11060  0.62000  0.77750  Biso   1.000  H
  H3       1.0000 0.38940  0.12000  0.22250  Biso   1.000  H
  H4       1.0000 0.61060  0.12000  0.77750  Biso   1.000  H
  H5       1.0000 0.11060  0.38000  0.77750  Biso   1.000  H
  H6       1.0000 0.88940  0.38000  0.22250  Biso   1.000  H
  H7       1.0000 0.61060  0.88000  0.77750  Biso   1.000  H
  H8       1.0000 0.38940  0.88000  0.22250  Biso   1.000  H
  C17      1.0000 0.00420  0.61077  0.27300  Biso   1.000  C
  C18      1.0000 0.99580  0.61077  0.72700  Biso   1.000  C
  C19      1.0000 0.50420  0.11077  0.27300  Biso   1.000  C
  C20      1.0000 0.49580  0.11077  0.72700  Biso   1.000  C
  C21      1.0000 0.99580  0.38923  0.72700  Biso   1.000  C
  C22      1.0000 0.00420  0.38923  0.27300  Biso   1.000  C
  C23      1.0000 0.49580  0.88923  0.72700  Biso   1.000  C
  C24      1.0000 0.50420  0.88923  0.27300  Biso   1.000  C
  C25      1.0000 0.07440  0.63170  0.26830  Biso   1.000  C
  C26      1.0000 0.92560  0.63170  0.73170  Biso   1.000  C
  C27      1.0000 0.57440  0.13170  0.26830  Biso   1.000  C
  C28      1.0000 0.42560  0.13170  0.73170  Biso   1.000  C
  C29      1.0000 0.92560  0.36830  0.73170  Biso   1.000  C
  C30      1.0000 0.07440  0.36830  0.26830  Biso   1.000  C
  C31      1.0000 0.42560  0.86830  0.73170  Biso   1.000  C
  C32      1.0000 0.57440  0.86830  0.26830  Biso   1.000  C
  H9       1.0000 0.12010  0.61670  0.30510  Biso   1.000  H
  H10      1.0000 0.87990  0.61670  0.69490  Biso   1.000  H
  H11      1.0000 0.62010  0.11670  0.30510  Biso   1.000  H
  H12      1.0000 0.37990  0.11670  0.69490  Biso   1.000  H
  H13      1.0000 0.87990  0.38330  0.69490  Biso   1.000  H
  H14      1.0000 0.12010  0.38330  0.30510  Biso   1.000  H
  H15      1.0000 0.37990  0.88330  0.69490  Biso   1.000  H
  H16      1.0000 0.62010  0.88330  0.30510  Biso   1.000  H
  C33      1.0000 0.07600  0.67490  0.20860  Biso   1.000  C
  C34      1.0000 0.92400  0.67490  0.79140  Biso   1.000  C
  C35      1.0000 0.57600  0.17490  0.20860  Biso   1.000  C
  C36      1.0000 0.42400  0.17490  0.79140  Biso   1.000  C
  C37      1.0000 0.92400  0.32510  0.79140  Biso   1.000  C
  C38      1.0000 0.07600  0.32510  0.20860  Biso   1.000  C
  C39      1.0000 0.42400  0.82510  0.79140  Biso   1.000  C
  C40      1.0000 0.57600  0.82510  0.20860  Biso   1.000  C
  H17      1.0000 0.12290  0.68880  0.20530  Biso   1.000  H
  H18      1.0000 0.87710  0.68880  0.79470  Biso   1.000  H
  H19      1.0000 0.62290  0.18880  0.20530  Biso   1.000  H
  H20      1.0000 0.37710  0.18880  0.79470  Biso   1.000  H
  H21      1.0000 0.87710  0.31120  0.79470  Biso   1.000  H
  H22      1.0000 0.12290  0.31120  0.20530  Biso   1.000  H
  H23      1.0000 0.37710  0.81120  0.79470  Biso   1.000  H
  H24      1.0000 0.62290  0.81120  0.20530  Biso   1.000  H
  C41      1.0000 0.00850  0.69740  0.15420  Biso   1.000  C
  C42      1.0000 0.99150  0.69740  0.84580  Biso   1.000  C
  C43      1.0000 0.50850  0.19740  0.15420  Biso   1.000  C
  C44      1.0000 0.49150  0.19740  0.84580  Biso   1.000  C
  C45      1.0000 0.99150  0.30260  0.84580  Biso   1.000  C
  C46      1.0000 0.00850  0.30260  0.15420  Biso   1.000  C
  C47      1.0000 0.49150  0.80260  0.84580  Biso   1.000  C
  C48      1.0000 0.50850  0.80260  0.15420  Biso   1.000  C
  H25      1.0000 0.01000  0.72660  0.11500  Biso   1.000  H
  H26      1.0000 0.99000  0.72660  0.88500  Biso   1.000  H
  H27      1.0000 0.51000  0.22660  0.11500  Biso   1.000  H
  H28      1.0000 0.49000  0.22660  0.88500  Biso   1.000  H
  H29      1.0000 0.99000  0.27340  0.88500  Biso   1.000  H
  H30      1.0000 0.01000  0.27340  0.11500  Biso   1.000  H
  H31      1.0000 0.49000  0.77340  0.88500  Biso   1.000  H
  H32      1.0000 0.51000  0.77340  0.11500  Biso   1.000  H
  C49      1.0000 0.86630  0.70200  0.09810  Biso   1.000  C
  C50      1.0000 0.13370  0.70200  0.90190  Biso   1.000  C
  C51      1.0000 0.36630  0.20200  0.09810  Biso   1.000  C
  C52      1.0000 0.63370  0.20200  0.90190  Biso   1.000  C
  C53      1.0000 0.13370  0.29800  0.90190  Biso   1.000  C
  C54      1.0000 0.86630  0.29800  0.09810  Biso   1.000  C
  C55      1.0000 0.63370  0.79800  0.90190  Biso   1.000  C
  C56      1.0000 0.36630  0.79800  0.09810  Biso   1.000  C
  C57      1.0000 0.00190  0.56591  0.34720  Biso   1.000  C
  C58      1.0000 0.99810  0.56591  0.65280  Biso   1.000  C
  C59      1.0000 0.50190  0.06591  0.34720  Biso   1.000  C
  C60      1.0000 0.49810  0.06591  0.65280  Biso   1.000  C
  C61      1.0000 0.99810  0.43409  0.65280  Biso   1.000  C
  C62      1.0000 0.00190  0.43409  0.34720  Biso   1.000  C
  C63      1.0000 0.49810  0.93409  0.65280  Biso   1.000  C
  C64      1.0000 0.50190  0.93409  0.34720  Biso   1.000  C
  C65      1.0000 0.71110  0.67286  0.67730  Biso   1.000  C
  C66      1.0000 0.28890  0.67286  0.32270  Biso   1.000  C
  C67      1.0000 0.21110  0.17286  0.67730  Biso   1.000  C
  C68      1.0000 0.78890  0.17286  0.32270  Biso   1.000  C
  C69      1.0000 0.28890  0.32714  0.32270  Biso   1.000  C
  C70      1.0000 0.71110  0.32714  0.67730  Biso   1.000  C
  C71      1.0000 0.78890  0.82714  0.32270  Biso   1.000  C
  C72      1.0000 0.21110  0.82714  0.67730  Biso   1.000  C
  C73      1.0000 0.66680  0.63168  0.66420  Biso   1.000  C
  C74      1.0000 0.33320  0.63168  0.33580  Biso   1.000  C
  C75      1.0000 0.16680  0.13168  0.66420  Biso   1.000  C
  C76      1.0000 0.83320  0.13168  0.33580  Biso   1.000  C
  C77      1.0000 0.33320  0.36832  0.33580  Biso   1.000  C
  C78      1.0000 0.66680  0.36832  0.66420  Biso   1.000  C
  C79      1.0000 0.83320  0.86832  0.33580  Biso   1.000  C
  C80      1.0000 0.16680  0.86832  0.66420  Biso   1.000  C
  H33      1.0000 0.64710  0.62060  0.73230  Biso   1.000  H
  H34      1.0000 0.35290  0.62060  0.26770  Biso   1.000  H
  H35      1.0000 0.14710  0.12060  0.73230  Biso   1.000  H
  H36      1.0000 0.85290  0.12060  0.26770  Biso   1.000  H
  H37      1.0000 0.35290  0.37940  0.26770  Biso   1.000  H
  H38      1.0000 0.64710  0.37940  0.73230  Biso   1.000  H
  H39      1.0000 0.85290  0.87940  0.26770  Biso   1.000  H
  H40      1.0000 0.14710  0.87940  0.73230  Biso   1.000  H
  C81      1.0000 0.65230  0.60718  0.54980  Biso   1.000  C
  C82      1.0000 0.34770  0.60718  0.45020  Biso   1.000  C
  C83      1.0000 0.15230  0.10718  0.54980  Biso   1.000  C
  C84      1.0000 0.84770  0.10718  0.45020  Biso   1.000  C
  C85      1.0000 0.34770  0.39282  0.45020  Biso   1.000  C
  C86      1.0000 0.65230  0.39282  0.54980  Biso   1.000  C
  C87      1.0000 0.84770  0.89282  0.45020  Biso   1.000  C
  C88      1.0000 0.15230  0.89282  0.54980  Biso   1.000  C
  C89      1.0000 0.68420  0.62310  0.44950  Biso   1.000  C
  C90      1.0000 0.31580  0.62310  0.55050  Biso   1.000  C
  C91      1.0000 0.18420  0.12310  0.44950  Biso   1.000  C
  C92      1.0000 0.81580  0.12310  0.55050  Biso   1.000  C
  C93      1.0000 0.31580  0.37690  0.55050  Biso   1.000  C
  C94      1.0000 0.68420  0.37690  0.44950  Biso   1.000  C
  C95      1.0000 0.81580  0.87690  0.55050  Biso   1.000  C
  C96      1.0000 0.18420  0.87690  0.44950  Biso   1.000  C
  H41      1.0000 0.67590  0.60650  0.37350  Biso   1.000  H
  H42      1.0000 0.32410  0.60650  0.62650  Biso   1.000  H
  H43      1.0000 0.17590  0.10650  0.37350  Biso   1.000  H
  H44      1.0000 0.82410  0.10650  0.62650  Biso   1.000  H
  H45      1.0000 0.32410  0.39350  0.62650  Biso   1.000  H
  H46      1.0000 0.67590  0.39350  0.37350  Biso   1.000  H
  H47      1.0000 0.82410  0.89350  0.62650  Biso   1.000  H
  H48      1.0000 0.17590  0.89350  0.37350  Biso   1.000  H
  C97      1.0000 0.72830  0.66370  0.46340  Biso   1.000  C
  C98      1.0000 0.27170  0.66370  0.53660  Biso   1.000  C
  C99      1.0000 0.22830  0.16370  0.46340  Biso   1.000  C
  C100     1.0000 0.77170  0.16370  0.53660  Biso   1.000  C
  C101     1.0000 0.27170  0.33630  0.53660  Biso   1.000  C
  C102     1.0000 0.72830  0.33630  0.46340  Biso   1.000  C
  C103     1.0000 0.77170  0.83630  0.53660  Biso   1.000  C
  C104     1.0000 0.22830  0.83630  0.46340  Biso   1.000  C
  H49      1.0000 0.74900  0.67440  0.39600  Biso   1.000  H
  H50      1.0000 0.25100  0.67440  0.60400  Biso   1.000  H
  H51      1.0000 0.24900  0.17440  0.39600  Biso   1.000  H
  H52      1.0000 0.75100  0.17440  0.60400  Biso   1.000  H
  H53      1.0000 0.25100  0.32560  0.60400  Biso   1.000  H
  H54      1.0000 0.74900  0.32560  0.39600  Biso   1.000  H
  H55      1.0000 0.75100  0.82560  0.60400  Biso   1.000  H
  H56      1.0000 0.24900  0.82560  0.39600  Biso   1.000  H
  C105     1.0000 0.74170  0.68850  0.57560  Biso   1.000  C
  C106     1.0000 0.25830  0.68850  0.42440  Biso   1.000  C
  C107     1.0000 0.24170  0.18850  0.57560  Biso   1.000  C
  C108     1.0000 0.75830  0.18850  0.42440  Biso   1.000  C
  C109     1.0000 0.25830  0.31150  0.42440  Biso   1.000  C
  C110     1.0000 0.74170  0.31150  0.57560  Biso   1.000  C
  C111     1.0000 0.75830  0.81150  0.42440  Biso   1.000  C
  C112     1.0000 0.24170  0.81150  0.57560  Biso   1.000  C
  H57      1.0000 0.77140  0.71580  0.58370  Biso   1.000  H
  H58      1.0000 0.22860  0.71580  0.41630  Biso   1.000  H
  H59      1.0000 0.27140  0.21580  0.58370  Biso   1.000  H
  H60      1.0000 0.72860  0.21580  0.41630  Biso   1.000  H
  H61      1.0000 0.22860  0.28420  0.41630  Biso   1.000  H
  H62      1.0000 0.77140  0.28420  0.58370  Biso   1.000  H
  H63      1.0000 0.72860  0.78420  0.41630  Biso   1.000  H
  H64      1.0000 0.27140  0.78420  0.58370  Biso   1.000  H
  C113     1.0000 0.72430  0.70066  0.79930  Biso   1.000  C
  C114     1.0000 0.27570  0.70066  0.20070  Biso   1.000  C
  C115     1.0000 0.22430  0.20066  0.79930  Biso   1.000  C
  C116     1.0000 0.77570  0.20066  0.20070  Biso   1.000  C
  C117     1.0000 0.27570  0.29934  0.20070  Biso   1.000  C
  C118     1.0000 0.72430  0.29934  0.79930  Biso   1.000  C
  C119     1.0000 0.77570  0.79934  0.20070  Biso   1.000  C
  C120     1.0000 0.22430  0.79934  0.79930  Biso   1.000  C
  C121     1.0000 0.59910  0.56509  0.53350  Biso   1.000  C
  C122     1.0000 0.40090  0.56509  0.46650  Biso   1.000  C
  C123     1.0000 0.09910  0.06509  0.53350  Biso   1.000  C
  C124     1.0000 0.90090  0.06509  0.46650  Biso   1.000  C
  C125     1.0000 0.40090  0.43491  0.46650  Biso   1.000  C
  C126     1.0000 0.59910  0.43491  0.53350  Biso   1.000  C
  C127     1.0000 0.90090  0.93491  0.46650  Biso   1.000  C
  C128     1.0000 0.09910  0.93491  0.53350  Biso   1.000  C
  C129     1.0000 0.92710  0.83560  0.83800  Biso   1.000  C
  C130     1.0000 0.07290  0.83560  0.16200  Biso   1.000  C
  C131     1.0000 0.42710  0.33560  0.83800  Biso   1.000  C
  C132     1.0000 0.57290  0.33560  0.16200  Biso   1.000  C
  C133     1.0000 0.07290  0.16440  0.16200  Biso   1.000  C
  C134     1.0000 0.92710  0.16440  0.83800  Biso   1.000  C
  C135     1.0000 0.57290  0.66440  0.16200  Biso   1.000  C
  C136     1.0000 0.42710  0.66440  0.83800  Biso   1.000  C
  C137     1.0000 0.99490  0.85440  0.79720  Biso   1.000  C
  C138     1.0000 0.00510  0.85440  0.20280  Biso   1.000  C
  C139     1.0000 0.49490  0.35440  0.79720  Biso   1.000  C
  C140     1.0000 0.50510  0.35440  0.20280  Biso   1.000  C
  C141     1.0000 0.00510  0.14560  0.20280  Biso   1.000  C
  C142     1.0000 0.99490  0.14560  0.79720  Biso   1.000  C
  C143     1.0000 0.50510  0.64560  0.20280  Biso   1.000  C
  C144     1.0000 0.49490  0.64560  0.79720  Biso   1.000  C
  H65      1.0000 0.03850  0.85310  0.86670  Biso   1.000  H
  H66      1.0000 0.96150  0.85310  0.13330  Biso   1.000  H
  H67      1.0000 0.53850  0.35310  0.86670  Biso   1.000  H
  H68      1.0000 0.46150  0.35310  0.13330  Biso   1.000  H
  H69      1.0000 0.96150  0.14690  0.13330  Biso   1.000  H
  H70      1.0000 0.03850  0.14690  0.86670  Biso   1.000  H
  H71      1.0000 0.46150  0.64690  0.13330  Biso   1.000  H
  H72      1.0000 0.53850  0.64690  0.86670  Biso   1.000  H
  H73      1.0000 0.98560  0.88660  0.77040  Biso   1.000  H
  H74      1.0000 0.01440  0.88660  0.22960  Biso   1.000  H
  H75      1.0000 0.48560  0.38660  0.77040  Biso   1.000  H
  H76      1.0000 0.51440  0.38660  0.22960  Biso   1.000  H
  H77      1.0000 0.01440  0.11340  0.22960  Biso   1.000  H
  H78      1.0000 0.98560  0.11340  0.77040  Biso   1.000  H
  H79      1.0000 0.51440  0.61340  0.22960  Biso   1.000  H
  H80      1.0000 0.48560  0.61340  0.77040  Biso   1.000  H
  H81      1.0000 0.00510  0.83590  0.72790  Biso   1.000  H
  H82      1.0000 0.99490  0.83590  0.27210  Biso   1.000  H
  H83      1.0000 0.50510  0.33590  0.72790  Biso   1.000  H
  H84      1.0000 0.49490  0.33590  0.27210  Biso   1.000  H
  H85      1.0000 0.99490  0.16410  0.27210  Biso   1.000  H
  H86      1.0000 0.00510  0.16410  0.72790  Biso   1.000  H
  H87      1.0000 0.49490  0.66410  0.27210  Biso   1.000  H
  H88      1.0000 0.50510  0.66410  0.72790  Biso   1.000  H
  N1       1.0000 0.87590  0.82195  0.87130  Biso   1.000  N
  N2       1.0000 0.12410  0.82195  0.12870  Biso   1.000  N
  N3       1.0000 0.37590  0.32195  0.87130  Biso   1.000  N
  N4       1.0000 0.62410  0.32195  0.12870  Biso   1.000  N
  N5       1.0000 0.12410  0.17805  0.12870  Biso   1.000  N
  N6       1.0000 0.87590  0.17805  0.87130  Biso   1.000  N
  N7       1.0000 0.62410  0.67805  0.12870  Biso   1.000  N
  N8       1.0000 0.37590  0.67805  0.87130  Biso   1.000  N
  O1       1.0000 0.87316  0.73792  0.03440  Biso   1.000  O
  O2       1.0000 0.12684  0.73792  0.96560  Biso   1.000  O
  O3       1.0000 0.37316  0.23792  0.03440  Biso   1.000  O
  O4       1.0000 0.62684  0.23792  0.96560  Biso   1.000  O
  O5       1.0000 0.12684  0.26208  0.96560  Biso   1.000  O
  O6       1.0000 0.87316  0.26208  0.03440  Biso   1.000  O
  O7       1.0000 0.62684  0.76208  0.96560  Biso   1.000  O
  O8       1.0000 0.37316  0.76208  0.03440  Biso   1.000  O
  O9       1.0000 0.80324  0.68469  0.11490  Biso   1.000  O
  O10      1.0000 0.19676  0.68469  0.88510  Biso   1.000  O
  O11      1.0000 0.30324  0.18469  0.11490  Biso   1.000  O
  O12      1.0000 0.69676  0.18469  0.88510  Biso   1.000  O
  O13      1.0000 0.19676  0.31531  0.88510  Biso   1.000  O
  O14      1.0000 0.80324  0.31531  0.11490  Biso   1.000  O
  O15      1.0000 0.69676  0.81531  0.88510  Biso   1.000  O
  O16      1.0000 0.30324  0.81531  0.11490  Biso   1.000  O
  O17      1.0000 0.93710  0.54916  0.34850  Biso   1.000  O
  O18      1.0000 0.06290  0.54916  0.65150  Biso   1.000  O
  O19      1.0000 0.43710  0.04916  0.34850  Biso   1.000  O
  O20      1.0000 0.56290  0.04916  0.65150  Biso   1.000  O
  O21      1.0000 0.06290  0.45084  0.65150  Biso   1.000  O
  O22      1.0000 0.93710  0.45084  0.34850  Biso   1.000  O
  O23      1.0000 0.56290  0.95084  0.65150  Biso   1.000  O
  O24      1.0000 0.43710  0.95084  0.34850  Biso   1.000  O
  O25      1.0000 0.06550  0.54935  0.40130  Biso   1.000  O
  O26      1.0000 0.93450  0.54935  0.59870  Biso   1.000  O
  O27      1.0000 0.56550  0.04935  0.40130  Biso   1.000  O
  O28      1.0000 0.43450  0.04935  0.59870  Biso   1.000  O
  O29      1.0000 0.93450  0.45065  0.59870  Biso   1.000  O
  O30      1.0000 0.06550  0.45065  0.40130  Biso   1.000  O
  O31      1.0000 0.43450  0.95065  0.59870  Biso   1.000  O
  O32      1.0000 0.56550  0.95065  0.40130  Biso   1.000  O
  O33      1.0000 0.76366  0.73745  0.80330  Biso   1.000  O
  O34      1.0000 0.23634  0.73745  0.19670  Biso   1.000  O
  O35      1.0000 0.26366  0.23745  0.80330  Biso   1.000  O
  O36      1.0000 0.73634  0.23745  0.19670  Biso   1.000  O
  O37      1.0000 0.23634  0.26255  0.19670  Biso   1.000  O
  O38      1.0000 0.76366  0.26255  0.80330  Biso   1.000  O
  O39      1.0000 0.73634  0.76255  0.19670  Biso   1.000  O
  O40      1.0000 0.26366  0.76255  0.80330  Biso   1.000  O
  O41      1.0000 0.69631  0.68438  0.88880  Biso   1.000  O
  O42      1.0000 0.30369  0.68438  0.11120  Biso   1.000  O
  O43      1.0000 0.19631  0.18438  0.88880  Biso   1.000  O
  O44      1.0000 0.80369  0.18438  0.11120  Biso   1.000  O
  O45      1.0000 0.30369  0.31562  0.11120  Biso   1.000  O
  O46      1.0000 0.69631  0.31562  0.88880  Biso   1.000  O
  O47      1.0000 0.80369  0.81562  0.11120  Biso   1.000  O
  O48      1.0000 0.19631  0.81562  0.88880  Biso   1.000  O
  O49      1.0000 0.57880  0.54946  0.63010  Biso   1.000  O
  O50      1.0000 0.42120  0.54946  0.36990  Biso   1.000  O
  O51      1.0000 0.07880  0.04946  0.63010  Biso   1.000  O
  O52      1.0000 0.92120  0.04946  0.36990  Biso   1.000  O
  O53      1.0000 0.42120  0.45054  0.36990  Biso   1.000  O
  O54      1.0000 0.57880  0.45054  0.63010  Biso   1.000  O
  O55      1.0000 0.92120  0.95054  0.36990  Biso   1.000  O
  O56      1.0000 0.07880  0.95054  0.63010  Biso   1.000  O
  O57      1.0000 0.57880  0.54905  0.42280  Biso   1.000  O
  O58      1.0000 0.42120  0.54905  0.57720  Biso   1.000  O
  O59      1.0000 0.07880  0.04905  0.42280  Biso   1.000  O
  O60      1.0000 0.92120  0.04905  0.57720  Biso   1.000  O
  O61      1.0000 0.42120  0.45095  0.57720  Biso   1.000  O
  O62      1.0000 0.57880  0.45095  0.42280  Biso   1.000  O
  O63      1.0000 0.92120  0.95095  0.57720  Biso   1.000  O
  O64      1.0000 0.07880  0.95095  0.42280  Biso   1.000  O
  O65      1.0000 0.50010  0.50000  0.82120  Biso   1.000  O
  O66      1.0000 0.49990  0.50000  0.17880  Biso   1.000  O
  O67      1.0000 0.00010  0.00000  0.82120  Biso   1.000  O
  O68      1.0000 0.99990  0.00000  0.17880  Biso   1.000  O
  H89      1.0000 0.46200  0.50000  0.86260  Biso   1.000  H
  H90      1.0000 0.53800  0.50000  0.13740  Biso   1.000  H
  H91      1.0000 0.96200  0.00000  0.86260  Biso   1.000  H
  H92      1.0000 0.03800  0.00000  0.13740  Biso   1.000  H
  H93      1.0000 0.53740  0.50000  0.88940  Biso   1.000  H
  H94      1.0000 0.46260  0.50000  0.11060  Biso   1.000  H
  H95      1.0000 0.03740  0.00000  0.88940  Biso   1.000  H
  H96      1.0000 0.96260  0.00000  0.11060  Biso   1.000  H
  O69      1.0000 0.79700  0.50000  0.42820  Biso   1.000  O
  O70      1.0000 0.20300  0.50000  0.57180  Biso   1.000  O
  O71      1.0000 0.29700  0.00000  0.42820  Biso   1.000  O
  O72      1.0000 0.70300  0.00000  0.57180  Biso   1.000  O
  H97      1.0000 0.78080  0.50000  0.49420  Biso   1.000  H
  H98      1.0000 0.21920  0.50000  0.50580  Biso   1.000  H
  H99      1.0000 0.28080  0.00000  0.49420  Biso   1.000  H
  H100     1.0000 0.71920  0.00000  0.50580  Biso   1.000  H
  H101     1.0000 0.76220  0.50000  0.36560  Biso   1.000  H
  H102     1.0000 0.23780  0.50000  0.63440  Biso   1.000  H
  H103     1.0000 0.26220  0.00000  0.36560  Biso   1.000  H
  H104     1.0000 0.73780  0.00000  0.63440  Biso   1.000  H
  O73      1.0000 0.39660  0.44130  0.98600  Biso   1.000  O
  O74      1.0000 0.60340  0.44130  0.01400  Biso   1.000  O
  O75      1.0000 0.89660  0.94130  0.98600  Biso   1.000  O
  O76      1.0000 0.10340  0.94130  0.01400  Biso   1.000  O
  O77      1.0000 0.60340  0.55870  0.01400  Biso   1.000  O
  O78      1.0000 0.39660  0.55870  0.98600  Biso   1.000  O
  O79      1.0000 0.10340  0.05870  0.01400  Biso   1.000  O
  O80      1.0000 0.89660  0.05870  0.98600  Biso   1.000  O
  O81      1.0000 0.32760  0.43400  0.98100  Biso   1.000  O
  O82      1.0000 0.67240  0.43400  0.01900  Biso   1.000  O
  O83      1.0000 0.82760  0.93400  0.98100  Biso   1.000  O
  O84      1.0000 0.17240  0.93400  0.01900  Biso   1.000  O
  O85      1.0000 0.67240  0.56600  0.01900  Biso   1.000  O
  O86      1.0000 0.32760  0.56600  0.98100  Biso   1.000  O
  O87      1.0000 0.17240  0.06600  0.01900  Biso   1.000  O
  O88      1.0000 0.82760  0.06600  0.98100  Biso   1.000  O
  O89      1.0000 0.23430  0.50000  0.32630  Biso   1.000  O
  O90      1.0000 0.76570  0.50000  0.67370  Biso   1.000  O
  O91      1.0000 0.73430  0.00000  0.32630  Biso   1.000  O
  O92      1.0000 0.26570  0.00000  0.67370  Biso   1.000  O
  O93      1.0000 0.00000  0.79780  0.50000  Biso   1.000  O
  O94      1.0000 0.50000  0.29780  0.50000  Biso   1.000  O
  O95      1.0000 0.00000  0.20220  0.50000  Biso   1.000  O
  O96      1.0000 0.50000  0.70220  0.50000  Biso   1.000  O
  O97      1.0000 0.96000  0.71780  0.49000  Biso   1.000  O
  O98      1.0000 0.04000  0.71780  0.51000  Biso   1.000  O
  O99      1.0000 0.46000  0.21780  0.49000  Biso   1.000  O
  O100     1.0000 0.54000  0.21780  0.51000  Biso   1.000  O
  O101     1.0000 0.04000  0.28220  0.51000  Biso   1.000  O
  O102     1.0000 0.96000  0.28220  0.49000  Biso   1.000  O
  O103     1.0000 0.54000  0.78220  0.51000  Biso   1.000  O
  O104     1.0000 0.46000  0.78220  0.49000  Biso   1.000  O
  O105     1.0000 0.00000  0.50000  0.00000  Biso   1.000  O
  O106     1.0000 0.50000  0.00000  0.00000  Biso   1.000  O
  O107     1.0000 0.00000  0.76200  0.50000  Biso   1.000  O
  O108     1.0000 0.50000  0.26200  0.50000  Biso   1.000  O
  O109     1.0000 0.00000  0.23800  0.50000  Biso   1.000  O
  O110     1.0000 0.50000  0.73800  0.50000  Biso   1.000  O
