data_image0
_cell_length_a       11.07
_cell_length_b       11.07
_cell_length_c       24.739
_cell_angle_alpha    90
_cell_angle_beta     90
_cell_angle_gamma    120

_symmetry_space_group_name_H-M    "P 1"
_symmetry_int_tables_number       1

loop_
  _symmetry_equiv_pos_as_xyz
  'x, y, z'

loop_
  _atom_site_label
  _atom_site_occupancy
  _atom_site_fract_x
  _atom_site_fract_y
  _atom_site_fract_z
  _atom_site_thermal_displace_type
  _atom_site_B_iso_or_equiv
  _atom_site_type_symbol
  Cu1      1.0000 0.48391  0.00000  0.00000  Biso   1.000  Cu
  Cu2      1.0000 0.00000  0.48391  0.33333  Biso   1.000  Cu
  Cu3      1.0000 0.51609  0.51609  0.66667  Biso   1.000  Cu
  Cu4      1.0000 0.51609  0.00000  0.50000  Biso   1.000  Cu
  Cu5      1.0000 0.00000  0.51609  0.83333  Biso   1.000  Cu
  Cu6      1.0000 0.48391  0.48391  0.16667  Biso   1.000  Cu
  C1       1.0000 0.04990  0.00000  0.00000  Biso   1.000  C
  C2       1.0000 0.00000  0.04990  0.33333  Biso   1.000  C
  C3       1.0000 0.95010  0.95010  0.66667  Biso   1.000  C
  C4       1.0000 0.95010  0.00000  0.50000  Biso   1.000  C
  C5       1.0000 0.00000  0.95010  0.83333  Biso   1.000  C
  C6       1.0000 0.04990  0.04990  0.16667  Biso   1.000  C
  O1       1.0000 0.39211  0.82576  0.04214  Biso   1.000  O
  O2       1.0000 0.17424  0.56635  0.37547  Biso   1.000  O
  O3       1.0000 0.43365  0.60789  0.70881  Biso   1.000  O
  O4       1.0000 0.60789  0.17424  0.54214  Biso   1.000  O
  O5       1.0000 0.82576  0.43365  0.87547  Biso   1.000  O
  O6       1.0000 0.56635  0.39211  0.20881  Biso   1.000  O
  O7       1.0000 0.82576  0.39211  0.29119  Biso   1.000  O
  O8       1.0000 0.56635  0.17424  0.95786  Biso   1.000  O
  O9       1.0000 0.60789  0.43365  0.62453  Biso   1.000  O
  O10      1.0000 0.17424  0.60789  0.79119  Biso   1.000  O
  O11      1.0000 0.43365  0.82576  0.45786  Biso   1.000  O
  O12      1.0000 0.39211  0.56635  0.12453  Biso   1.000  O
  N1       1.0000 0.66390  0.00000  0.00000  Biso   1.000  N
  N2       1.0000 0.00000  0.66390  0.33333  Biso   1.000  N
  N3       1.0000 0.33610  0.33610  0.66667  Biso   1.000  N
  N4       1.0000 0.33610  0.00000  0.50000  Biso   1.000  N
  N5       1.0000 0.00000  0.33610  0.83333  Biso   1.000  N
  N6       1.0000 0.66390  0.66390  0.16667  Biso   1.000  N
  N7       1.0000 0.30200  0.00000  0.00000  Biso   1.000  N
  N8       1.0000 0.00000  0.30200  0.33333  Biso   1.000  N
  N9       1.0000 0.69800  0.69800  0.66667  Biso   1.000  N
  N10      1.0000 0.69800  0.00000  0.50000  Biso   1.000  N
  N11      1.0000 0.00000  0.69800  0.83333  Biso   1.000  N
  N12      1.0000 0.30200  0.30200  0.16667  Biso   1.000  N
  C7       1.0000 0.21320  0.66400  0.10015  Biso   1.000  C
  C8       1.0000 0.33600  0.54920  0.43348  Biso   1.000  C
  C9       1.0000 0.45080  0.78680  0.76682  Biso   1.000  C
  C10      1.0000 0.78680  0.33600  0.60015  Biso   1.000  C
  C11      1.0000 0.66400  0.45080  0.93348  Biso   1.000  C
  C12      1.0000 0.54920  0.21320  0.26682  Biso   1.000  C
  C13      1.0000 0.66400  0.21320  0.23318  Biso   1.000  C
  C14      1.0000 0.54920  0.33600  0.89985  Biso   1.000  C
  C15      1.0000 0.78680  0.45080  0.56652  Biso   1.000  C
  C16      1.0000 0.33600  0.78680  0.73318  Biso   1.000  C
  C17      1.0000 0.45080  0.66400  0.39985  Biso   1.000  C
  C18      1.0000 0.21320  0.54920  0.06652  Biso   1.000  C
  H1       1.0000 0.21850  0.64420  0.13880  Biso   1.000  H
  H2       1.0000 0.35580  0.57430  0.47213  Biso   1.000  H
  H3       1.0000 0.42570  0.78150  0.80547  Biso   1.000  H
  H4       1.0000 0.78150  0.35580  0.63880  Biso   1.000  H
  H5       1.0000 0.64420  0.42570  0.97213  Biso   1.000  H
  H6       1.0000 0.57430  0.21850  0.30547  Biso   1.000  H
  H7       1.0000 0.64420  0.21850  0.19453  Biso   1.000  H
  H8       1.0000 0.57430  0.35580  0.86120  Biso   1.000  H
  H9       1.0000 0.78150  0.42570  0.52787  Biso   1.000  H
  H10      1.0000 0.35580  0.78150  0.69453  Biso   1.000  H
  H11      1.0000 0.42570  0.64420  0.36120  Biso   1.000  H
  H12      1.0000 0.21850  0.57430  0.02787  Biso   1.000  H
  H13      1.0000 0.12370  0.66180  0.09440  Biso   1.000  H
  H14      1.0000 0.33820  0.46190  0.42773  Biso   1.000  H
  H15      1.0000 0.53810  0.87630  0.76107  Biso   1.000  H
  H16      1.0000 0.87630  0.33820  0.59440  Biso   1.000  H
  H17      1.0000 0.66180  0.53810  0.92773  Biso   1.000  H
  H18      1.0000 0.46190  0.12370  0.26107  Biso   1.000  H
  H19      1.0000 0.66180  0.12370  0.23893  Biso   1.000  H
  H20      1.0000 0.46190  0.33820  0.90560  Biso   1.000  H
  H21      1.0000 0.87630  0.53810  0.57227  Biso   1.000  H
  H22      1.0000 0.33820  0.87630  0.73893  Biso   1.000  H
  H23      1.0000 0.53810  0.66180  0.40560  Biso   1.000  H
  H24      1.0000 0.12370  0.46190  0.07227  Biso   1.000  H
  C19      1.0000 0.17580  0.12130  0.01107  Biso   1.000  C
  C20      1.0000 0.87870  0.05450  0.34440  Biso   1.000  C
  C21      1.0000 0.94550  0.82420  0.67774  Biso   1.000  C
  C22      1.0000 0.82420  0.87870  0.51107  Biso   1.000  C
  C23      1.0000 0.12130  0.94550  0.84440  Biso   1.000  C
  C24      1.0000 0.05450  0.17580  0.17774  Biso   1.000  C
  C25      1.0000 0.12130  0.17580  0.32226  Biso   1.000  C
  C26      1.0000 0.05450  0.87870  0.98893  Biso   1.000  C
  C27      1.0000 0.82420  0.94550  0.65560  Biso   1.000  C
  C28      1.0000 0.87870  0.82420  0.82226  Biso   1.000  C
  C29      1.0000 0.94550  0.12130  0.48893  Biso   1.000  C
  C30      1.0000 0.17580  0.05450  0.15560  Biso   1.000  C
  H25      1.0000 0.17710  0.20590  0.01920  Biso   1.000  H
  H26      1.0000 0.79410  0.97120  0.35253  Biso   1.000  H
  H27      1.0000 0.02880  0.82290  0.68587  Biso   1.000  H
  H28      1.0000 0.82290  0.79410  0.51920  Biso   1.000  H
  H29      1.0000 0.20590  0.02880  0.85253  Biso   1.000  H
  H30      1.0000 0.97120  0.17710  0.18587  Biso   1.000  H
  H31      1.0000 0.20590  0.17710  0.31413  Biso   1.000  H
  H32      1.0000 0.97120  0.79410  0.98080  Biso   1.000  H
  H33      1.0000 0.82290  0.02880  0.64747  Biso   1.000  H
  H34      1.0000 0.79410  0.82290  0.81413  Biso   1.000  H
  H35      1.0000 0.02880  0.20590  0.48080  Biso   1.000  H
  H36      1.0000 0.17710  0.97120  0.14747  Biso   1.000  H
  C31      1.0000 0.29860  0.11710  0.01010  Biso   1.000  C
  C32      1.0000 0.88290  0.18150  0.34343  Biso   1.000  C
  C33      1.0000 0.81850  0.70140  0.67677  Biso   1.000  C
  C34      1.0000 0.70140  0.88290  0.51010  Biso   1.000  C
  C35      1.0000 0.11710  0.81850  0.84343  Biso   1.000  C
  C36      1.0000 0.18150  0.29860  0.17677  Biso   1.000  C
  C37      1.0000 0.11710  0.29860  0.32323  Biso   1.000  C
  C38      1.0000 0.18150  0.88290  0.98990  Biso   1.000  C
  C39      1.0000 0.70140  0.81850  0.65657  Biso   1.000  C
  C40      1.0000 0.88290  0.70140  0.82323  Biso   1.000  C
  C41      1.0000 0.81850  0.11710  0.48990  Biso   1.000  C
  C42      1.0000 0.29860  0.18150  0.15657  Biso   1.000  C
  H37      1.0000 0.38400  0.20060  0.01690  Biso   1.000  H
  H38      1.0000 0.79940  0.18340  0.35023  Biso   1.000  H
  H39      1.0000 0.81660  0.61600  0.68357  Biso   1.000  H
  H40      1.0000 0.61600  0.79940  0.51690  Biso   1.000  H
  H41      1.0000 0.20060  0.81660  0.85023  Biso   1.000  H
  H42      1.0000 0.18340  0.38400  0.18357  Biso   1.000  H
  H43      1.0000 0.20060  0.38400  0.31643  Biso   1.000  H
  H44      1.0000 0.18340  0.79940  0.98310  Biso   1.000  H
  H45      1.0000 0.61600  0.81660  0.64977  Biso   1.000  H
  H46      1.0000 0.79940  0.61600  0.81643  Biso   1.000  H
  H47      1.0000 0.81660  0.20060  0.48310  Biso   1.000  H
  H48      1.0000 0.38400  0.18340  0.14977  Biso   1.000  H
  O13      1.0000 0.36009  0.90577  0.12078  Biso   1.000  O
  O14      1.0000 0.09423  0.45432  0.45411  Biso   1.000  O
  O15      1.0000 0.54568  0.63991  0.78745  Biso   1.000  O
  O16      1.0000 0.63991  0.09423  0.62078  Biso   1.000  O
  O17      1.0000 0.90577  0.54568  0.95411  Biso   1.000  O
  O18      1.0000 0.45432  0.36009  0.28745  Biso   1.000  O
  O19      1.0000 0.90577  0.36009  0.21255  Biso   1.000  O
  O20      1.0000 0.45432  0.09423  0.87922  Biso   1.000  O
  O21      1.0000 0.63991  0.54568  0.54589  Biso   1.000  O
  O22      1.0000 0.09423  0.63991  0.71255  Biso   1.000  O
  O23      1.0000 0.54568  0.90577  0.37922  Biso   1.000  O
  O24      1.0000 0.36009  0.45432  0.04589  Biso   1.000  O
  O25      1.0000 0.56446  0.15289  0.08178  Biso   1.000  O
  O26      1.0000 0.84711  0.41157  0.41511  Biso   1.000  O
  O27      1.0000 0.58843  0.43554  0.74845  Biso   1.000  O
  O28      1.0000 0.43554  0.84711  0.58178  Biso   1.000  O
  O29      1.0000 0.15289  0.58843  0.91511  Biso   1.000  O
  O30      1.0000 0.41157  0.56446  0.24845  Biso   1.000  O
  O31      1.0000 0.15289  0.56446  0.25155  Biso   1.000  O
  O32      1.0000 0.41157  0.84711  0.91822  Biso   1.000  O
  O33      1.0000 0.43554  0.58843  0.58489  Biso   1.000  O
  O34      1.0000 0.84711  0.43554  0.75155  Biso   1.000  O
  O35      1.0000 0.58843  0.15289  0.41822  Biso   1.000  O
  O36      1.0000 0.56446  0.41157  0.08489  Biso   1.000  O
  H49      1.0000 0.50250  0.08310  0.09920  Biso   1.000  H
  H50      1.0000 0.91690  0.41940  0.43253  Biso   1.000  H
  H51      1.0000 0.58060  0.49750  0.76587  Biso   1.000  H
  H52      1.0000 0.49750  0.91690  0.59920  Biso   1.000  H
  H53      1.0000 0.08310  0.58060  0.93253  Biso   1.000  H
  H54      1.0000 0.41940  0.50250  0.26587  Biso   1.000  H
  H55      1.0000 0.08310  0.50250  0.23413  Biso   1.000  H
  H56      1.0000 0.41940  0.91690  0.90080  Biso   1.000  H
  H57      1.0000 0.49750  0.58060  0.56747  Biso   1.000  H
  H58      1.0000 0.91690  0.49750  0.73413  Biso   1.000  H
  H59      1.0000 0.58060  0.08310  0.40080  Biso   1.000  H
  H60      1.0000 0.50250  0.41940  0.06747  Biso   1.000  H
  H61      1.0000 0.54300  0.21670  0.08220  Biso   1.000  H
  H62      1.0000 0.78330  0.32630  0.41553  Biso   1.000  H
  H63      1.0000 0.67370  0.45700  0.74887  Biso   1.000  H
  H64      1.0000 0.45700  0.78330  0.58220  Biso   1.000  H
  H65      1.0000 0.21670  0.67370  0.91553  Biso   1.000  H
  H66      1.0000 0.32630  0.54300  0.24887  Biso   1.000  H
  H67      1.0000 0.21670  0.54300  0.25113  Biso   1.000  H
  H68      1.0000 0.32630  0.78330  0.91780  Biso   1.000  H
  H69      1.0000 0.45700  0.67370  0.58447  Biso   1.000  H
  H70      1.0000 0.78330  0.45700  0.75113  Biso   1.000  H
  H71      1.0000 0.67370  0.21670  0.41780  Biso   1.000  H
  H72      1.0000 0.54300  0.32630  0.08447  Biso   1.000  H
  C43      1.0000 0.33230  0.81000  0.08735  Biso   1.000  C
  C44      1.0000 0.19000  0.52230  0.42068  Biso   1.000  C
  C45      1.0000 0.47770  0.66770  0.75402  Biso   1.000  C
  C46      1.0000 0.66770  0.19000  0.58735  Biso   1.000  C
  C47      1.0000 0.81000  0.47770  0.92068  Biso   1.000  C
  C48      1.0000 0.52230  0.33230  0.25402  Biso   1.000  C
  C49      1.0000 0.81000  0.33230  0.24598  Biso   1.000  C
  C50      1.0000 0.52230  0.19000  0.91265  Biso   1.000  C
  C51      1.0000 0.66770  0.47770  0.57932  Biso   1.000  C
  C52      1.0000 0.19000  0.66770  0.74598  Biso   1.000  C
  C53      1.0000 0.47770  0.81000  0.41265  Biso   1.000  C
  C54      1.0000 0.33230  0.52230  0.07932  Biso   1.000  C
  C55      1.0000 0.79010  0.87800  0.00900  Biso   1.000  C
  C56      1.0000 0.12200  0.91210  0.34233  Biso   1.000  C
  C57      1.0000 0.08790  0.20990  0.67567  Biso   1.000  C
  C58      1.0000 0.20990  0.12200  0.50900  Biso   1.000  C
  C59      1.0000 0.87800  0.08790  0.84233  Biso   1.000  C
  C60      1.0000 0.91210  0.79010  0.17567  Biso   1.000  C
  C61      1.0000 0.87800  0.79010  0.32433  Biso   1.000  C
  C62      1.0000 0.91210  0.12200  0.99100  Biso   1.000  C
  C63      1.0000 0.20990  0.08790  0.65767  Biso   1.000  C
  C64      1.0000 0.12200  0.20990  0.82433  Biso   1.000  C
  C65      1.0000 0.08790  0.87800  0.49100  Biso   1.000  C
  C66      1.0000 0.79010  0.91210  0.15767  Biso   1.000  C
  H73      1.0000 0.78840  0.79260  0.01550  Biso   1.000  H
  H74      1.0000 0.20740  0.99580  0.34883  Biso   1.000  H
  H75      1.0000 0.00420  0.21160  0.68217  Biso   1.000  H
  H76      1.0000 0.21160  0.20740  0.51550  Biso   1.000  H
  H77      1.0000 0.79260  0.00420  0.84883  Biso   1.000  H
  H78      1.0000 0.99580  0.78840  0.18217  Biso   1.000  H
  H79      1.0000 0.79260  0.78840  0.31783  Biso   1.000  H
  H80      1.0000 0.99580  0.20740  0.98450  Biso   1.000  H
  H81      1.0000 0.21160  0.00420  0.65117  Biso   1.000  H
  H82      1.0000 0.20740  0.21160  0.81783  Biso   1.000  H
  H83      1.0000 0.00420  0.79260  0.48450  Biso   1.000  H
  H84      1.0000 0.78840  0.99580  0.15117  Biso   1.000  H
  C67      1.0000 0.91670  0.00000  0.00000  Biso   1.000  C
  C68      1.0000 0.00000  0.91670  0.33333  Biso   1.000  C
  C69      1.0000 0.08330  0.08330  0.66667  Biso   1.000  C
  C70      1.0000 0.08330  0.00000  0.50000  Biso   1.000  C
  C71      1.0000 0.00000  0.08330  0.83333  Biso   1.000  C
  C72      1.0000 0.91670  0.91670  0.16667  Biso   1.000  C
  C73      1.0000 0.66710  0.88170  0.00847  Biso   1.000  C
  C74      1.0000 0.11830  0.78540  0.34180  Biso   1.000  C
  C75      1.0000 0.21460  0.33290  0.67514  Biso   1.000  C
  C76      1.0000 0.33290  0.11830  0.50847  Biso   1.000  C
  C77      1.0000 0.88170  0.21460  0.84180  Biso   1.000  C
  C78      1.0000 0.78540  0.66710  0.17514  Biso   1.000  C
  C79      1.0000 0.88170  0.66710  0.32486  Biso   1.000  C
  C80      1.0000 0.78540  0.11830  0.99153  Biso   1.000  C
  C81      1.0000 0.33290  0.21460  0.65820  Biso   1.000  C
  C82      1.0000 0.11830  0.33290  0.82486  Biso   1.000  C
  C83      1.0000 0.21460  0.88170  0.49153  Biso   1.000  C
  C84      1.0000 0.66710  0.78540  0.15820  Biso   1.000  C
  H85      1.0000 0.58160  0.79750  0.01430  Biso   1.000  H
  H86      1.0000 0.20250  0.78410  0.34763  Biso   1.000  H
  H87      1.0000 0.21590  0.41840  0.68097  Biso   1.000  H
  H88      1.0000 0.41840  0.20250  0.51430  Biso   1.000  H
  H89      1.0000 0.79750  0.21590  0.84763  Biso   1.000  H
  H90      1.0000 0.78410  0.58160  0.18097  Biso   1.000  H
  H91      1.0000 0.79750  0.58160  0.31903  Biso   1.000  H
  H92      1.0000 0.78410  0.20250  0.98570  Biso   1.000  H
  H93      1.0000 0.41840  0.21590  0.65237  Biso   1.000  H
  H94      1.0000 0.20250  0.41840  0.81903  Biso   1.000  H
  H95      1.0000 0.21590  0.79750  0.48570  Biso   1.000  H
  H96      1.0000 0.58160  0.78410  0.15237  Biso   1.000  H
  O37      1.0000 0.85140  0.30770  0.10328  Biso   1.000  O
  O38      1.0000 0.69230  0.54370  0.43661  Biso   1.000  O
  O39      1.0000 0.45630  0.14860  0.76995  Biso   1.000  O
  O40      1.0000 0.14860  0.69230  0.60328  Biso   1.000  O
  O41      1.0000 0.30770  0.45630  0.93661  Biso   1.000  O
  O42      1.0000 0.54370  0.85140  0.26995  Biso   1.000  O
  O43      1.0000 0.30770  0.85140  0.23005  Biso   1.000  O
  O44      1.0000 0.54370  0.69230  0.89672  Biso   1.000  O
  O45      1.0000 0.14860  0.45630  0.56339  Biso   1.000  O
  O46      1.0000 0.69230  0.14860  0.73005  Biso   1.000  O
  O47      1.0000 0.45630  0.30770  0.39672  Biso   1.000  O
  O48      1.0000 0.85140  0.54370  0.06339  Biso   1.000  O
  H97      1.0000 0.85490  0.30740  0.13760  Biso   1.000  H
  H98      1.0000 0.69260  0.54750  0.47093  Biso   1.000  H
  H99      1.0000 0.45250  0.14510  0.80427  Biso   1.000  H
  H100     1.0000 0.14510  0.69260  0.63760  Biso   1.000  H
  H101     1.0000 0.30740  0.45250  0.97093  Biso   1.000  H
  H102     1.0000 0.54750  0.85490  0.30427  Biso   1.000  H
  H103     1.0000 0.30740  0.85490  0.19573  Biso   1.000  H
  H104     1.0000 0.54750  0.69260  0.86240  Biso   1.000  H
  H105     1.0000 0.14510  0.45250  0.52907  Biso   1.000  H
  H106     1.0000 0.69260  0.14510  0.69573  Biso   1.000  H
  H107     1.0000 0.45250  0.30740  0.36240  Biso   1.000  H
  H108     1.0000 0.85490  0.54750  0.02907  Biso   1.000  H
  H109     1.0000 0.76960  0.24700  0.09340  Biso   1.000  H
  H110     1.0000 0.75300  0.52260  0.42673  Biso   1.000  H
  H111     1.0000 0.47740  0.23040  0.76007  Biso   1.000  H
  H112     1.0000 0.23040  0.75300  0.59340  Biso   1.000  H
  H113     1.0000 0.24700  0.47740  0.92673  Biso   1.000  H
  H114     1.0000 0.52260  0.76960  0.26007  Biso   1.000  H
  H115     1.0000 0.24700  0.76960  0.23993  Biso   1.000  H
  H116     1.0000 0.52260  0.75300  0.90660  Biso   1.000  H
  H117     1.0000 0.23040  0.47740  0.57327  Biso   1.000  H
  H118     1.0000 0.75300  0.23040  0.73993  Biso   1.000  H
  H119     1.0000 0.47740  0.24700  0.40660  Biso   1.000  H
  H120     1.0000 0.76960  0.52260  0.07327  Biso   1.000  H
