data_image0
_cell_length_a       11.0342
_cell_length_b       11.0342
_cell_length_c       24.924
_cell_angle_alpha    90
_cell_angle_beta     90
_cell_angle_gamma    120

_symmetry_space_group_name_H-M    "P 1"
_symmetry_int_tables_number       1

loop_
  _symmetry_equiv_pos_as_xyz
  'x, y, z'

loop_
  _atom_site_label
  _atom_site_occupancy
  _atom_site_fract_x
  _atom_site_fract_y
  _atom_site_fract_z
  _atom_site_thermal_displace_type
  _atom_site_B_iso_or_equiv
  _atom_site_type_symbol
  Cu1      1.0000 0.51461  0.51461  0.16670  Biso   1.000  Cu
  Cu2      1.0000 0.48539  0.00000  0.50003  Biso   1.000  Cu
  Cu3      1.0000 0.00000  0.48539  0.83337  Biso   1.000  Cu
  Cu4      1.0000 0.48539  0.48539  0.66670  Biso   1.000  Cu
  Cu5      1.0000 0.51461  0.00000  0.00003  Biso   1.000  Cu
  Cu6      1.0000 0.00000  0.51461  0.33337  Biso   1.000  Cu
  N1       1.0000 0.33407  0.33407  0.16670  Biso   1.000  N
  N2       1.0000 0.66593  0.00000  0.50003  Biso   1.000  N
  N3       1.0000 0.00000  0.66593  0.83337  Biso   1.000  N
  N4       1.0000 0.66593  0.66593  0.66670  Biso   1.000  N
  N5       1.0000 0.33407  0.00000  0.00003  Biso   1.000  N
  N6       1.0000 0.00000  0.33407  0.33337  Biso   1.000  N
  O1       1.0000 0.43158  0.58654  0.08492  Biso   1.000  O
  O2       1.0000 0.41346  0.84504  0.41825  Biso   1.000  O
  O3       1.0000 0.15496  0.56842  0.75159  Biso   1.000  O
  O4       1.0000 0.56842  0.41346  0.58492  Biso   1.000  O
  O5       1.0000 0.58654  0.15496  0.91825  Biso   1.000  O
  O6       1.0000 0.84504  0.43158  0.25159  Biso   1.000  O
  O7       1.0000 0.58654  0.43158  0.24841  Biso   1.000  O
  O8       1.0000 0.84504  0.41346  0.91508  Biso   1.000  O
  O9       1.0000 0.56842  0.15496  0.58175  Biso   1.000  O
  O10      1.0000 0.41346  0.56842  0.74841  Biso   1.000  O
  O11      1.0000 0.15496  0.58654  0.41508  Biso   1.000  O
  O12      1.0000 0.43158  0.84504  0.08175  Biso   1.000  O
  H1       1.0000 0.48880  0.58430  0.06270  Biso   1.000  H
  H2       1.0000 0.41570  0.90450  0.39603  Biso   1.000  H
  H3       1.0000 0.09550  0.51120  0.72937  Biso   1.000  H
  H4       1.0000 0.51120  0.41570  0.56270  Biso   1.000  H
  H5       1.0000 0.58430  0.09550  0.89603  Biso   1.000  H
  H6       1.0000 0.90450  0.48880  0.22937  Biso   1.000  H
  H7       1.0000 0.58430  0.48880  0.27063  Biso   1.000  H
  H8       1.0000 0.90450  0.41570  0.93730  Biso   1.000  H
  H9       1.0000 0.51120  0.09550  0.60397  Biso   1.000  H
  H10      1.0000 0.41570  0.51120  0.77063  Biso   1.000  H
  H11      1.0000 0.09550  0.58430  0.43730  Biso   1.000  H
  H12      1.0000 0.48880  0.90450  0.10397  Biso   1.000  H
  H13      1.0000 0.39930  0.63570  0.07170  Biso   1.000  H
  H14      1.0000 0.36430  0.76360  0.40503  Biso   1.000  H
  H15      1.0000 0.23640  0.60070  0.73837  Biso   1.000  H
  H16      1.0000 0.60070  0.36430  0.57170  Biso   1.000  H
  H17      1.0000 0.63570  0.23640  0.90503  Biso   1.000  H
  H18      1.0000 0.76360  0.39930  0.23837  Biso   1.000  H
  H19      1.0000 0.63570  0.39930  0.26163  Biso   1.000  H
  H20      1.0000 0.76360  0.36430  0.92830  Biso   1.000  H
  H21      1.0000 0.60070  0.23640  0.59497  Biso   1.000  H
  H22      1.0000 0.36430  0.60070  0.76163  Biso   1.000  H
  H23      1.0000 0.23640  0.63570  0.42830  Biso   1.000  H
  H24      1.0000 0.39930  0.76360  0.09497  Biso   1.000  H
  C1       1.0000 0.33100  0.21350  0.15892  Biso   1.000  C
  C2       1.0000 0.78650  0.11750  0.49225  Biso   1.000  C
  C3       1.0000 0.88250  0.66900  0.82559  Biso   1.000  C
  C4       1.0000 0.66900  0.78650  0.65892  Biso   1.000  C
  C5       1.0000 0.21350  0.88250  0.99225  Biso   1.000  C
  C6       1.0000 0.11750  0.33100  0.32559  Biso   1.000  C
  C7       1.0000 0.21350  0.33100  0.17441  Biso   1.000  C
  C8       1.0000 0.11750  0.78650  0.84108  Biso   1.000  C
  C9       1.0000 0.66900  0.88250  0.50775  Biso   1.000  C
  C10      1.0000 0.78650  0.66900  0.67441  Biso   1.000  C
  C11      1.0000 0.88250  0.21350  0.34108  Biso   1.000  C
  C12      1.0000 0.33100  0.11750  0.00775  Biso   1.000  C
  H25      1.0000 0.41500  0.21460  0.15370  Biso   1.000  H
  H26      1.0000 0.78540  0.20040  0.48703  Biso   1.000  H
  H27      1.0000 0.79960  0.58500  0.82037  Biso   1.000  H
  H28      1.0000 0.58500  0.78540  0.65370  Biso   1.000  H
  H29      1.0000 0.21460  0.79960  0.98703  Biso   1.000  H
  H30      1.0000 0.20040  0.41500  0.32037  Biso   1.000  H
  H31      1.0000 0.21460  0.41500  0.17963  Biso   1.000  H
  H32      1.0000 0.20040  0.78540  0.84630  Biso   1.000  H
  H33      1.0000 0.58500  0.79960  0.51297  Biso   1.000  H
  H34      1.0000 0.78540  0.58500  0.67963  Biso   1.000  H
  H35      1.0000 0.79960  0.21460  0.34630  Biso   1.000  H
  H36      1.0000 0.41500  0.20040  0.01297  Biso   1.000  H
  C13      1.0000 0.20790  0.08670  0.15830  Biso   1.000  C
  C14      1.0000 0.91330  0.12120  0.49163  Biso   1.000  C
  C15      1.0000 0.87880  0.79210  0.82497  Biso   1.000  C
  C16      1.0000 0.79210  0.91330  0.65830  Biso   1.000  C
  C17      1.0000 0.08670  0.87880  0.99163  Biso   1.000  C
  C18      1.0000 0.12120  0.20790  0.32497  Biso   1.000  C
  C19      1.0000 0.08670  0.20790  0.17503  Biso   1.000  C
  C20      1.0000 0.12120  0.91330  0.84170  Biso   1.000  C
  C21      1.0000 0.79210  0.87880  0.50837  Biso   1.000  C
  C22      1.0000 0.91330  0.79210  0.67503  Biso   1.000  C
  C23      1.0000 0.87880  0.08670  0.34170  Biso   1.000  C
  C24      1.0000 0.20790  0.12120  0.00837  Biso   1.000  C
  H37      1.0000 0.20980  0.00460  0.15220  Biso   1.000  H
  H38      1.0000 0.99540  0.20520  0.48553  Biso   1.000  H
  H39      1.0000 0.79480  0.79020  0.81887  Biso   1.000  H
  H40      1.0000 0.79020  0.99540  0.65220  Biso   1.000  H
  H41      1.0000 0.00460  0.79480  0.98553  Biso   1.000  H
  H42      1.0000 0.20520  0.20980  0.31887  Biso   1.000  H
  H43      1.0000 0.00460  0.20980  0.18113  Biso   1.000  H
  H44      1.0000 0.20520  0.99540  0.84780  Biso   1.000  H
  H45      1.0000 0.79020  0.79480  0.51447  Biso   1.000  H
  H46      1.0000 0.99540  0.79020  0.68113  Biso   1.000  H
  H47      1.0000 0.79480  0.00460  0.34780  Biso   1.000  H
  H48      1.0000 0.20980  0.20520  0.01447  Biso   1.000  H
  O13      1.0000 0.63520  0.54250  0.04678  Biso   1.000  O
  O14      1.0000 0.45750  0.09270  0.38011  Biso   1.000  O
  O15      1.0000 0.90730  0.36480  0.71345  Biso   1.000  O
  O16      1.0000 0.36480  0.45750  0.54678  Biso   1.000  O
  O17      1.0000 0.54250  0.90730  0.88011  Biso   1.000  O
  O18      1.0000 0.09270  0.63520  0.21345  Biso   1.000  O
  O19      1.0000 0.54250  0.63520  0.28655  Biso   1.000  O
  O20      1.0000 0.09270  0.45750  0.95322  Biso   1.000  O
  O21      1.0000 0.36480  0.90730  0.61989  Biso   1.000  O
  O22      1.0000 0.45750  0.36480  0.78655  Biso   1.000  O
  O23      1.0000 0.90730  0.54250  0.45322  Biso   1.000  O
  O24      1.0000 0.63520  0.09270  0.11989  Biso   1.000  O
  C25      1.0000 0.78150  0.44810  0.06698  Biso   1.000  C
  C26      1.0000 0.55190  0.33340  0.40031  Biso   1.000  C
  C27      1.0000 0.66660  0.21850  0.73365  Biso   1.000  C
  C28      1.0000 0.21850  0.55190  0.56698  Biso   1.000  C
  C29      1.0000 0.44810  0.66660  0.90031  Biso   1.000  C
  C30      1.0000 0.33340  0.78150  0.23365  Biso   1.000  C
  C31      1.0000 0.44810  0.78150  0.26635  Biso   1.000  C
  C32      1.0000 0.33340  0.55190  0.93302  Biso   1.000  C
  C33      1.0000 0.21850  0.66660  0.59969  Biso   1.000  C
  C34      1.0000 0.55190  0.21850  0.76635  Biso   1.000  C
  C35      1.0000 0.66660  0.44810  0.43302  Biso   1.000  C
  C36      1.0000 0.78150  0.33340  0.09969  Biso   1.000  C
  H49      1.0000 0.77630  0.42390  0.02930  Biso   1.000  H
  H50      1.0000 0.57610  0.35240  0.36263  Biso   1.000  H
  H51      1.0000 0.64760  0.22370  0.69597  Biso   1.000  H
  H52      1.0000 0.22370  0.57610  0.52930  Biso   1.000  H
  H53      1.0000 0.42390  0.64760  0.86263  Biso   1.000  H
  H54      1.0000 0.35240  0.77630  0.19597  Biso   1.000  H
  H55      1.0000 0.42390  0.77630  0.30403  Biso   1.000  H
  H56      1.0000 0.35240  0.57610  0.97070  Biso   1.000  H
  H57      1.0000 0.22370  0.64760  0.63737  Biso   1.000  H
  H58      1.0000 0.57610  0.22370  0.80403  Biso   1.000  H
  H59      1.0000 0.64760  0.42390  0.47070  Biso   1.000  H
  H60      1.0000 0.77630  0.35240  0.13737  Biso   1.000  H
  H61      1.0000 0.86980  0.53370  0.07260  Biso   1.000  H
  H62      1.0000 0.46630  0.33610  0.40593  Biso   1.000  H
  H63      1.0000 0.66390  0.13020  0.73927  Biso   1.000  H
  H64      1.0000 0.13020  0.46630  0.57260  Biso   1.000  H
  H65      1.0000 0.53370  0.66390  0.90593  Biso   1.000  H
  H66      1.0000 0.33610  0.86980  0.23927  Biso   1.000  H
  H67      1.0000 0.53370  0.86980  0.26073  Biso   1.000  H
  H68      1.0000 0.33610  0.46630  0.92740  Biso   1.000  H
  H69      1.0000 0.13020  0.66390  0.59407  Biso   1.000  H
  H70      1.0000 0.46630  0.13020  0.76073  Biso   1.000  H
  H71      1.0000 0.66390  0.53370  0.42740  Biso   1.000  H
  H72      1.0000 0.86980  0.33610  0.09407  Biso   1.000  H
  C37      1.0000 0.66410  0.47570  0.07961  Biso   1.000  C
  C38      1.0000 0.52430  0.18840  0.41294  Biso   1.000  C
  C39      1.0000 0.81160  0.33590  0.74628  Biso   1.000  C
  C40      1.0000 0.33590  0.52430  0.57961  Biso   1.000  C
  C41      1.0000 0.47570  0.81160  0.91294  Biso   1.000  C
  C42      1.0000 0.18840  0.66410  0.24628  Biso   1.000  C
  C43      1.0000 0.47570  0.66410  0.25372  Biso   1.000  C
  C44      1.0000 0.18840  0.52430  0.92039  Biso   1.000  C
  C45      1.0000 0.33590  0.81160  0.58706  Biso   1.000  C
  C46      1.0000 0.52430  0.33590  0.75372  Biso   1.000  C
  C47      1.0000 0.81160  0.47570  0.42039  Biso   1.000  C
  C48      1.0000 0.66410  0.18840  0.08706  Biso   1.000  C
  C49      1.0000 0.94900  0.94900  0.16670  Biso   1.000  C
  C50      1.0000 0.05100  0.00000  0.50003  Biso   1.000  C
  C51      1.0000 0.00000  0.05100  0.83337  Biso   1.000  C
  C52      1.0000 0.05100  0.05100  0.66670  Biso   1.000  C
  C53      1.0000 0.94900  0.00000  0.00003  Biso   1.000  C
  C54      1.0000 0.00000  0.94900  0.33337  Biso   1.000  C
  C55      1.0000 0.08180  0.08180  0.16670  Biso   1.000  C
  C56      1.0000 0.91820  0.00000  0.50003  Biso   1.000  C
  C57      1.0000 0.00000  0.91820  0.83337  Biso   1.000  C
  C58      1.0000 0.91820  0.91820  0.66670  Biso   1.000  C
  C59      1.0000 0.08180  0.00000  0.00003  Biso   1.000  C
  C60      1.0000 0.00000  0.08180  0.33337  Biso   1.000  C
  C61      1.0000 0.94360  0.82340  0.17755  Biso   1.000  C
  C62      1.0000 0.17660  0.12020  0.51088  Biso   1.000  C
  C63      1.0000 0.87980  0.05640  0.84422  Biso   1.000  C
  C64      1.0000 0.05640  0.17660  0.67755  Biso   1.000  C
  C65      1.0000 0.82340  0.87980  0.01088  Biso   1.000  C
  C66      1.0000 0.12020  0.94360  0.34422  Biso   1.000  C
  C67      1.0000 0.82340  0.94360  0.15578  Biso   1.000  C
  C68      1.0000 0.12020  0.17660  0.82245  Biso   1.000  C
  C69      1.0000 0.05640  0.87980  0.48912  Biso   1.000  C
  C70      1.0000 0.17660  0.05640  0.65578  Biso   1.000  C
  C71      1.0000 0.87980  0.82340  0.32245  Biso   1.000  C
  C72      1.0000 0.94360  0.12020  0.98912  Biso   1.000  C
  H73      1.0000 0.02520  0.82190  0.18540  Biso   1.000  H
  H74      1.0000 0.17810  0.20330  0.51873  Biso   1.000  H
  H75      1.0000 0.79670  0.97480  0.85207  Biso   1.000  H
  H76      1.0000 0.97480  0.17810  0.68540  Biso   1.000  H
  H77      1.0000 0.82190  0.79670  0.01873  Biso   1.000  H
  H78      1.0000 0.20330  0.02520  0.35207  Biso   1.000  H
  H79      1.0000 0.82190  0.02520  0.14793  Biso   1.000  H
  H80      1.0000 0.20330  0.17810  0.81460  Biso   1.000  H
  H81      1.0000 0.97480  0.79670  0.48127  Biso   1.000  H
  H82      1.0000 0.17810  0.97480  0.64793  Biso   1.000  H
  H83      1.0000 0.79670  0.82190  0.31460  Biso   1.000  H
  H84      1.0000 0.02520  0.20330  0.98127  Biso   1.000  H
  O25      1.0000 0.14340  0.68900  0.10479  Biso   1.000  O
  O26      1.0000 0.31100  0.45440  0.43812  Biso   1.000  O
  O27      1.0000 0.54560  0.85660  0.77146  Biso   1.000  O
  O28      1.0000 0.85660  0.31100  0.60479  Biso   1.000  O
  O29      1.0000 0.68900  0.54560  0.93812  Biso   1.000  O
  O30      1.0000 0.45440  0.14340  0.27146  Biso   1.000  O
  O31      1.0000 0.68900  0.14340  0.22854  Biso   1.000  O
  O32      1.0000 0.45440  0.31100  0.89521  Biso   1.000  O
  O33      1.0000 0.85660  0.54560  0.56188  Biso   1.000  O
  O34      1.0000 0.31100  0.85660  0.72854  Biso   1.000  O
  O35      1.0000 0.54560  0.68900  0.39521  Biso   1.000  O
  O36      1.0000 0.14340  0.45440  0.06188  Biso   1.000  O
  H85      1.0000 0.12660  0.64960  0.13530  Biso   1.000  H
  H86      1.0000 0.35040  0.47700  0.46863  Biso   1.000  H
  H87      1.0000 0.52300  0.87340  0.80197  Biso   1.000  H
  H88      1.0000 0.87340  0.35040  0.63530  Biso   1.000  H
  H89      1.0000 0.64960  0.52300  0.96863  Biso   1.000  H
  H90      1.0000 0.47700  0.12660  0.30197  Biso   1.000  H
  H91      1.0000 0.64960  0.12660  0.19803  Biso   1.000  H
  H92      1.0000 0.47700  0.35040  0.86470  Biso   1.000  H
  H93      1.0000 0.87340  0.52300  0.53137  Biso   1.000  H
  H94      1.0000 0.35040  0.87340  0.69803  Biso   1.000  H
  H95      1.0000 0.52300  0.64960  0.36470  Biso   1.000  H
  H96      1.0000 0.12660  0.47700  0.03137  Biso   1.000  H
  H97      1.0000 0.21560  0.76960  0.10750  Biso   1.000  H
  H98      1.0000 0.23040  0.44600  0.44083  Biso   1.000  H
  H99      1.0000 0.55400  0.78440  0.77417  Biso   1.000  H
  H100     1.0000 0.78440  0.23040  0.60750  Biso   1.000  H
  H101     1.0000 0.76960  0.55400  0.94083  Biso   1.000  H
  H102     1.0000 0.44600  0.21560  0.27417  Biso   1.000  H
  H103     1.0000 0.76960  0.21560  0.22583  Biso   1.000  H
  H104     1.0000 0.44600  0.23040  0.89250  Biso   1.000  H
  H105     1.0000 0.78440  0.55400  0.55917  Biso   1.000  H
  H106     1.0000 0.23040  0.78440  0.72583  Biso   1.000  H
  H107     1.0000 0.55400  0.76960  0.39250  Biso   1.000  H
  H108     1.0000 0.21560  0.44600  0.05917  Biso   1.000  H
  N7       1.0000 0.69700  0.69700  0.16670  Biso   1.000  N
  N8       1.0000 0.30300  0.00000  0.50003  Biso   1.000  N
  N9       1.0000 0.00000  0.30300  0.83337  Biso   1.000  N
  N10      1.0000 0.30300  0.30300  0.66670  Biso   1.000  N
  N11      1.0000 0.69700  0.00000  0.00003  Biso   1.000  N
  N12      1.0000 0.00000  0.69700  0.33337  Biso   1.000  N
  C73      1.0000 0.81730  0.70100  0.17669  Biso   1.000  C
  C74      1.0000 0.29900  0.11630  0.51002  Biso   1.000  C
  C75      1.0000 0.88370  0.18270  0.84336  Biso   1.000  C
  C76      1.0000 0.18270  0.29900  0.67669  Biso   1.000  C
  C77      1.0000 0.70100  0.88370  0.01002  Biso   1.000  C
  C78      1.0000 0.11630  0.81730  0.34336  Biso   1.000  C
  C79      1.0000 0.70100  0.81730  0.15664  Biso   1.000  C
  C80      1.0000 0.11630  0.29900  0.82331  Biso   1.000  C
  C81      1.0000 0.18270  0.88370  0.48998  Biso   1.000  C
  C82      1.0000 0.29900  0.18270  0.65664  Biso   1.000  C
  C83      1.0000 0.88370  0.70100  0.32331  Biso   1.000  C
  C84      1.0000 0.81730  0.11630  0.98998  Biso   1.000  C
  H109     1.0000 0.81590  0.61740  0.18340  Biso   1.000  H
  H110     1.0000 0.38260  0.19850  0.51673  Biso   1.000  H
  H111     1.0000 0.80150  0.18410  0.85007  Biso   1.000  H
  H112     1.0000 0.18410  0.38260  0.68340  Biso   1.000  H
  H113     1.0000 0.61740  0.80150  0.01673  Biso   1.000  H
  H114     1.0000 0.19850  0.81590  0.35007  Biso   1.000  H
  H115     1.0000 0.61740  0.81590  0.14993  Biso   1.000  H
  H116     1.0000 0.19850  0.38260  0.81660  Biso   1.000  H
  H117     1.0000 0.18410  0.80150  0.48327  Biso   1.000  H
  H118     1.0000 0.38260  0.18410  0.64993  Biso   1.000  H
  H119     1.0000 0.80150  0.61740  0.31660  Biso   1.000  H
  H120     1.0000 0.81590  0.19850  0.98327  Biso   1.000  H
  O37      1.0000 0.60527  0.43308  0.12450  Biso   1.000  O
  O38      1.0000 0.56692  0.17219  0.45783  Biso   1.000  O
  O39      1.0000 0.82781  0.39473  0.79117  Biso   1.000  O
  O40      1.0000 0.39473  0.56692  0.62450  Biso   1.000  O
  O41      1.0000 0.43308  0.82781  0.95783  Biso   1.000  O
  O42      1.0000 0.17219  0.60527  0.29117  Biso   1.000  O
  O43      1.0000 0.43308  0.60527  0.20883  Biso   1.000  O
  O44      1.0000 0.17219  0.56692  0.87550  Biso   1.000  O
  O45      1.0000 0.39473  0.82781  0.54217  Biso   1.000  O
  O46      1.0000 0.56692  0.39473  0.70883  Biso   1.000  O
  O47      1.0000 0.82781  0.43308  0.37550  Biso   1.000  O
  O48      1.0000 0.60527  0.17219  0.04217  Biso   1.000  O
