data_image0
_cell_length_a       11.043
_cell_length_b       11.043
_cell_length_c       24.969
_cell_angle_alpha    90
_cell_angle_beta     90
_cell_angle_gamma    120

_symmetry_space_group_name_H-M    "P 1"
_symmetry_int_tables_number       1

loop_
  _symmetry_equiv_pos_as_xyz
  'x, y, z'

loop_
  _atom_site_label
  _atom_site_occupancy
  _atom_site_fract_x
  _atom_site_fract_y
  _atom_site_fract_z
  _atom_site_thermal_displace_type
  _atom_site_B_iso_or_equiv
  _atom_site_type_symbol
  Cu1      1.0000 0.48542  0.00000  0.00000  Biso   1.000  Cu
  Cu2      1.0000 0.00000  0.48542  0.33333  Biso   1.000  Cu
  Cu3      1.0000 0.51458  0.51458  0.66667  Biso   1.000  Cu
  Cu4      1.0000 0.51458  0.00000  0.50000  Biso   1.000  Cu
  Cu5      1.0000 0.00000  0.51458  0.83333  Biso   1.000  Cu
  Cu6      1.0000 0.48542  0.48542  0.16667  Biso   1.000  Cu
  O1       1.0000 0.39450  0.82820  0.04212  Biso   1.000  O
  O2       1.0000 0.17180  0.56630  0.37545  Biso   1.000  O
  O3       1.0000 0.43370  0.60550  0.70879  Biso   1.000  O
  O4       1.0000 0.60550  0.17180  0.54212  Biso   1.000  O
  O5       1.0000 0.82820  0.43370  0.87545  Biso   1.000  O
  O6       1.0000 0.56630  0.39450  0.20879  Biso   1.000  O
  O7       1.0000 0.82820  0.39450  0.29121  Biso   1.000  O
  O8       1.0000 0.56630  0.17180  0.95788  Biso   1.000  O
  O9       1.0000 0.60550  0.43370  0.62455  Biso   1.000  O
  O10      1.0000 0.17180  0.60550  0.79121  Biso   1.000  O
  O11      1.0000 0.43370  0.82820  0.45788  Biso   1.000  O
  O12      1.0000 0.39450  0.56630  0.12455  Biso   1.000  O
  C1       1.0000 0.05090  0.00000  0.00000  Biso   1.000  C
  C2       1.0000 0.00000  0.05090  0.33333  Biso   1.000  C
  C3       1.0000 0.94910  0.94910  0.66667  Biso   1.000  C
  C4       1.0000 0.94910  0.00000  0.50000  Biso   1.000  C
  C5       1.0000 1.00000  0.94910  0.83333  Biso   1.000  C
  C6       1.0000 0.05090  0.05090  0.16667  Biso   1.000  C
  C7       1.0000 0.29930  0.11670  0.00989  Biso   1.000  C
  C8       1.0000 0.88330  0.18260  0.34322  Biso   1.000  C
  C9       1.0000 0.81740  0.70070  0.67656  Biso   1.000  C
  C10      1.0000 0.70070  0.88330  0.50989  Biso   1.000  C
  C11      1.0000 0.11670  0.81740  0.84322  Biso   1.000  C
  C12      1.0000 0.18260  0.29930  0.17656  Biso   1.000  C
  C13      1.0000 0.11670  0.29930  0.32344  Biso   1.000  C
  C14      1.0000 0.18260  0.88330  0.99011  Biso   1.000  C
  C15      1.0000 0.70070  0.81740  0.65678  Biso   1.000  C
  C16      1.0000 0.88330  0.70070  0.82344  Biso   1.000  C
  C17      1.0000 0.81740  0.11670  0.49011  Biso   1.000  C
  C18      1.0000 0.29930  0.18260  0.15678  Biso   1.000  C
  H1       1.0000 0.38280  0.19890  0.01640  Biso   1.000  H
  H2       1.0000 0.80110  0.18390  0.34973  Biso   1.000  H
  H3       1.0000 0.81610  0.61720  0.68307  Biso   1.000  H
  H4       1.0000 0.61720  0.80110  0.51640  Biso   1.000  H
  H5       1.0000 0.19890  0.81610  0.84973  Biso   1.000  H
  H6       1.0000 0.18390  0.38280  0.18307  Biso   1.000  H
  H7       1.0000 0.19890  0.38280  0.31693  Biso   1.000  H
  H8       1.0000 0.18390  0.80110  0.98360  Biso   1.000  H
  H9       1.0000 0.61720  0.81610  0.65027  Biso   1.000  H
  H10      1.0000 0.80110  0.61720  0.81693  Biso   1.000  H
  H11      1.0000 0.81610  0.19890  0.48360  Biso   1.000  H
  H12      1.0000 0.38280  0.18390  0.15027  Biso   1.000  H
  N1       1.0000 0.30320  0.00000  0.00000  Biso   1.000  N
  N2       1.0000 0.00000  0.30320  0.33333  Biso   1.000  N
  N3       1.0000 0.69680  0.69680  0.66667  Biso   1.000  N
  N4       1.0000 0.69680  0.00000  0.50000  Biso   1.000  N
  N5       1.0000 0.00000  0.69680  0.83333  Biso   1.000  N
  N6       1.0000 0.30320  0.30320  0.16667  Biso   1.000  N
  N7       1.0000 0.66590  0.00000  0.00000  Biso   1.000  N
  N8       1.0000 1.00000  0.66590  0.33333  Biso   1.000  N
  N9       1.0000 0.33410  0.33410  0.66667  Biso   1.000  N
  N10      1.0000 0.33410  0.00000  0.50000  Biso   1.000  N
  N11      1.0000 0.00000  0.33410  0.83333  Biso   1.000  N
  N12      1.0000 0.66590  0.66590  0.16667  Biso   1.000  N
  O13      1.0000 0.36530  0.90670  0.11999  Biso   1.000  O
  O14      1.0000 0.09330  0.45860  0.45332  Biso   1.000  O
  O15      1.0000 0.54140  0.63470  0.78666  Biso   1.000  O
  O16      1.0000 0.63470  0.09330  0.61999  Biso   1.000  O
  O17      1.0000 0.90670  0.54140  0.95332  Biso   1.000  O
  O18      1.0000 0.45860  0.36530  0.28666  Biso   1.000  O
  O19      1.0000 0.90670  0.36530  0.21334  Biso   1.000  O
  O20      1.0000 0.45860  0.09330  0.88001  Biso   1.000  O
  O21      1.0000 0.63470  0.54140  0.54668  Biso   1.000  O
  O22      1.0000 0.09330  0.63470  0.71334  Biso   1.000  O
  O23      1.0000 0.54140  0.90670  0.38001  Biso   1.000  O
  O24      1.0000 0.36530  0.45860  0.04668  Biso   1.000  O
  C19      1.0000 0.21890  0.66600  0.09958  Biso   1.000  C
  C20      1.0000 0.33400  0.55290  0.43291  Biso   1.000  C
  C21      1.0000 0.44710  0.78110  0.76625  Biso   1.000  C
  C22      1.0000 0.78110  0.33400  0.59958  Biso   1.000  C
  C23      1.0000 0.66600  0.44710  0.93291  Biso   1.000  C
  C24      1.0000 0.55290  0.21890  0.26625  Biso   1.000  C
  C25      1.0000 0.66600  0.21890  0.23375  Biso   1.000  C
  C26      1.0000 0.55290  0.33400  0.90042  Biso   1.000  C
  C27      1.0000 0.78110  0.44710  0.56709  Biso   1.000  C
  C28      1.0000 0.33400  0.78110  0.73375  Biso   1.000  C
  C29      1.0000 0.44710  0.66600  0.40042  Biso   1.000  C
  C30      1.0000 0.21890  0.55290  0.06709  Biso   1.000  C
  H13      1.0000 0.13050  0.66290  0.09410  Biso   1.000  H
  H14      1.0000 0.33710  0.46760  0.42743  Biso   1.000  H
  H15      1.0000 0.53240  0.86950  0.76077  Biso   1.000  H
  H16      1.0000 0.86950  0.33710  0.59410  Biso   1.000  H
  H17      1.0000 0.66290  0.53240  0.92743  Biso   1.000  H
  H18      1.0000 0.46760  0.13050  0.26077  Biso   1.000  H
  H19      1.0000 0.66290  0.13050  0.23923  Biso   1.000  H
  H20      1.0000 0.46760  0.33710  0.90590  Biso   1.000  H
  H21      1.0000 0.86950  0.53240  0.57257  Biso   1.000  H
  H22      1.0000 0.33710  0.86950  0.73923  Biso   1.000  H
  H23      1.0000 0.53240  0.66290  0.40590  Biso   1.000  H
  H24      1.0000 0.13050  0.46760  0.07257  Biso   1.000  H
  H25      1.0000 0.22440  0.64660  0.13710  Biso   1.000  H
  H26      1.0000 0.35340  0.57780  0.47043  Biso   1.000  H
  H27      1.0000 0.42220  0.77560  0.80377  Biso   1.000  H
  H28      1.0000 0.77560  0.35340  0.63710  Biso   1.000  H
  H29      1.0000 0.64660  0.42220  0.97043  Biso   1.000  H
  H30      1.0000 0.57780  0.22440  0.30377  Biso   1.000  H
  H31      1.0000 0.64660  0.22440  0.19623  Biso   1.000  H
  H32      1.0000 0.57780  0.35340  0.86290  Biso   1.000  H
  H33      1.0000 0.77560  0.42220  0.52957  Biso   1.000  H
  H34      1.0000 0.35340  0.77560  0.69623  Biso   1.000  H
  H35      1.0000 0.42220  0.64660  0.36290  Biso   1.000  H
  H36      1.0000 0.22440  0.57780  0.02957  Biso   1.000  H
  C31      1.0000 0.33610  0.81250  0.08735  Biso   1.000  C
  C32      1.0000 0.18750  0.52360  0.42068  Biso   1.000  C
  C33      1.0000 0.47640  0.66390  0.75402  Biso   1.000  C
  C34      1.0000 0.66390  0.18750  0.58735  Biso   1.000  C
  C35      1.0000 0.81250  0.47640  0.92068  Biso   1.000  C
  C36      1.0000 0.52360  0.33610  0.25402  Biso   1.000  C
  C37      1.0000 0.81250  0.33610  0.24598  Biso   1.000  C
  C38      1.0000 0.52360  0.18750  0.91265  Biso   1.000  C
  C39      1.0000 0.66390  0.47640  0.57932  Biso   1.000  C
  C40      1.0000 0.18750  0.66390  0.74598  Biso   1.000  C
  C41      1.0000 0.47640  0.81250  0.41265  Biso   1.000  C
  C42      1.0000 0.33610  0.52360  0.07932  Biso   1.000  C
  C43      1.0000 0.17730  0.12000  0.01080  Biso   1.000  C
  C44      1.0000 0.88000  0.05730  0.34413  Biso   1.000  C
  C45      1.0000 0.94270  0.82270  0.67747  Biso   1.000  C
  C46      1.0000 0.82270  0.88000  0.51080  Biso   1.000  C
  C47      1.0000 0.12000  0.94270  0.84413  Biso   1.000  C
  C48      1.0000 0.05730  0.17730  0.17747  Biso   1.000  C
  C49      1.0000 0.12000  0.17730  0.32253  Biso   1.000  C
  C50      1.0000 0.05730  0.88000  0.98920  Biso   1.000  C
  C51      1.0000 0.82270  0.94270  0.65587  Biso   1.000  C
  C52      1.0000 0.88000  0.82270  0.82253  Biso   1.000  C
  C53      1.0000 0.94270  0.12000  0.48920  Biso   1.000  C
  C54      1.0000 0.17730  0.05730  0.15587  Biso   1.000  C
  H37      1.0000 0.17900  0.20320  0.01870  Biso   1.000  H
  H38      1.0000 0.79680  0.97580  0.35203  Biso   1.000  H
  H39      1.0000 0.02420  0.82100  0.68537  Biso   1.000  H
  H40      1.0000 0.82100  0.79680  0.51870  Biso   1.000  H
  H41      1.0000 0.20320  0.02420  0.85203  Biso   1.000  H
  H42      1.0000 0.97580  0.17900  0.18537  Biso   1.000  H
  H43      1.0000 0.20320  0.17900  0.31463  Biso   1.000  H
  H44      1.0000 0.97580  0.79680  0.98130  Biso   1.000  H
  H45      1.0000 0.82100  0.02420  0.64797  Biso   1.000  H
  H46      1.0000 0.79680  0.82100  0.81463  Biso   1.000  H
  H47      1.0000 0.02420  0.20320  0.48130  Biso   1.000  H
  H48      1.0000 0.17900  0.97580  0.14797  Biso   1.000  H
  C55      1.0000 0.91790  0.00000  0.00000  Biso   1.000  C
  C56      1.0000 1.00000  0.91790  0.33333  Biso   1.000  C
  C57      1.0000 0.08210  0.08210  0.66667  Biso   1.000  C
  C58      1.0000 0.08210  0.00000  0.50000  Biso   1.000  C
  C59      1.0000 0.00000  0.08210  0.83333  Biso   1.000  C
  C60      1.0000 0.91790  0.91790  0.16667  Biso   1.000  C
  C61      1.0000 0.79170  0.87980  0.00840  Biso   1.000  C
  C62      1.0000 0.12020  0.91190  0.34173  Biso   1.000  C
  C63      1.0000 0.08810  0.20830  0.67507  Biso   1.000  C
  C64      1.0000 0.20830  0.12020  0.50840  Biso   1.000  C
  C65      1.0000 0.87980  0.08810  0.84173  Biso   1.000  C
  C66      1.0000 0.91190  0.79170  0.17507  Biso   1.000  C
  C67      1.0000 0.87980  0.79170  0.32493  Biso   1.000  C
  C68      1.0000 0.91190  0.12020  0.99160  Biso   1.000  C
  C69      1.0000 0.20830  0.08810  0.65827  Biso   1.000  C
  C70      1.0000 0.12020  0.20830  0.82493  Biso   1.000  C
  C71      1.0000 0.08810  0.87980  0.49160  Biso   1.000  C
  C72      1.0000 0.79170  0.91190  0.15827  Biso   1.000  C
  H49      1.0000 0.78990  0.79580  0.01450  Biso   1.000  H
  H50      1.0000 0.20420  0.99410  0.34783  Biso   1.000  H
  H51      1.0000 0.00590  0.21010  0.68117  Biso   1.000  H
  H52      1.0000 0.21010  0.20420  0.51450  Biso   1.000  H
  H53      1.0000 0.79580  0.00590  0.84783  Biso   1.000  H
  H54      1.0000 0.99410  0.78990  0.18117  Biso   1.000  H
  H55      1.0000 0.79580  0.78990  0.31883  Biso   1.000  H
  H56      1.0000 0.99410  0.20420  0.98550  Biso   1.000  H
  H57      1.0000 0.21010  0.00590  0.65217  Biso   1.000  H
  H58      1.0000 0.20420  0.21010  0.81883  Biso   1.000  H
  H59      1.0000 0.00590  0.79580  0.48550  Biso   1.000  H
  H60      1.0000 0.78990  0.99410  0.15217  Biso   1.000  H
  O25      1.0000 0.41110  0.84360  0.91803  Biso   1.000  O
  O26      1.0000 0.15640  0.56750  0.25136  Biso   1.000  O
  O27      1.0000 0.43250  0.58890  0.58470  Biso   1.000  O
  O28      1.0000 0.58890  0.15640  0.41803  Biso   1.000  O
  O29      1.0000 0.84360  0.43250  0.75136  Biso   1.000  O
  O30      1.0000 0.56750  0.41110  0.08470  Biso   1.000  O
  O31      1.0000 0.84360  0.41110  0.41530  Biso   1.000  O
  O32      1.0000 0.56750  0.15640  0.08197  Biso   1.000  O
  O33      1.0000 0.58890  0.43250  0.74864  Biso   1.000  O
  O34      1.0000 0.15640  0.58890  0.91530  Biso   1.000  O
  O35      1.0000 0.43250  0.84360  0.58197  Biso   1.000  O
  O36      1.0000 0.41110  0.56750  0.24864  Biso   1.000  O
  H61      1.0000 0.43070  0.91890  0.90180  Biso   1.000  H
  H62      1.0000 0.08110  0.51180  0.23513  Biso   1.000  H
  H63      1.0000 0.48820  0.56930  0.56847  Biso   1.000  H
  H64      1.0000 0.56930  0.08110  0.40180  Biso   1.000  H
  H65      1.0000 0.91890  0.48820  0.73513  Biso   1.000  H
  H66      1.0000 0.51180  0.43070  0.06847  Biso   1.000  H
  H67      1.0000 0.91890  0.43070  0.43153  Biso   1.000  H
  H68      1.0000 0.51180  0.08110  0.09820  Biso   1.000  H
  H69      1.0000 0.56930  0.48820  0.76487  Biso   1.000  H
  H70      1.0000 0.08110  0.56930  0.93153  Biso   1.000  H
  H71      1.0000 0.48820  0.91890  0.59820  Biso   1.000  H
  H72      1.0000 0.43070  0.51180  0.26487  Biso   1.000  H
  H73      1.0000 0.46630  0.81640  0.90690  Biso   1.000  H
  H74      1.0000 0.18360  0.64990  0.24023  Biso   1.000  H
  H75      1.0000 0.35010  0.53370  0.57357  Biso   1.000  H
  H76      1.0000 0.53370  0.18360  0.40690  Biso   1.000  H
  H77      1.0000 0.81640  0.35010  0.74023  Biso   1.000  H
  H78      1.0000 0.64990  0.46630  0.07357  Biso   1.000  H
  H79      1.0000 0.81640  0.46630  0.42643  Biso   1.000  H
  H80      1.0000 0.64990  0.18360  0.09310  Biso   1.000  H
  H81      1.0000 0.53370  0.35010  0.75977  Biso   1.000  H
  H82      1.0000 0.18360  0.53370  0.92643  Biso   1.000  H
  H83      1.0000 0.35010  0.81640  0.59310  Biso   1.000  H
  H84      1.0000 0.46630  0.64990  0.25977  Biso   1.000  H
  C73      1.0000 0.66950  0.88220  0.00798  Biso   1.000  C
  C74      1.0000 0.11780  0.78730  0.34131  Biso   1.000  C
  C75      1.0000 0.21270  0.33050  0.67465  Biso   1.000  C
  C76      1.0000 0.33050  0.11780  0.50798  Biso   1.000  C
  C77      1.0000 0.88220  0.21270  0.84131  Biso   1.000  C
  C78      1.0000 0.78730  0.66950  0.17465  Biso   1.000  C
  C79      1.0000 0.88220  0.66950  0.32535  Biso   1.000  C
  C80      1.0000 0.78730  0.11780  0.99202  Biso   1.000  C
  C81      1.0000 0.33050  0.21270  0.65869  Biso   1.000  C
  C82      1.0000 0.11780  0.33050  0.82535  Biso   1.000  C
  C83      1.0000 0.21270  0.88220  0.49202  Biso   1.000  C
  C84      1.0000 0.66950  0.78730  0.15869  Biso   1.000  C
  H85      1.0000 0.58600  0.79910  0.01340  Biso   1.000  H
  H86      1.0000 0.20090  0.78690  0.34673  Biso   1.000  H
  H87      1.0000 0.21310  0.41400  0.68007  Biso   1.000  H
  H88      1.0000 0.41400  0.20090  0.51340  Biso   1.000  H
  H89      1.0000 0.79910  0.21310  0.84673  Biso   1.000  H
  H90      1.0000 0.78690  0.58600  0.18007  Biso   1.000  H
  H91      1.0000 0.79910  0.58600  0.31993  Biso   1.000  H
  H92      1.0000 0.78690  0.20090  0.98660  Biso   1.000  H
  H93      1.0000 0.41400  0.21310  0.65327  Biso   1.000  H
  H94      1.0000 0.20090  0.41400  0.81993  Biso   1.000  H
  H95      1.0000 0.21310  0.79910  0.48660  Biso   1.000  H
  H96      1.0000 0.58600  0.78690  0.15327  Biso   1.000  H
  O37      1.0000 0.54850  0.69310  0.89482  Biso   1.000  O
  O38      1.0000 0.30690  0.85540  0.22815  Biso   1.000  O
  O39      1.0000 0.14460  0.45150  0.56149  Biso   1.000  O
  O40      1.0000 0.45150  0.30690  0.39482  Biso   1.000  O
  O41      1.0000 0.69310  0.14460  0.72815  Biso   1.000  O
  O42      1.0000 0.85540  0.54850  0.06149  Biso   1.000  O
  O43      1.0000 0.69310  0.54850  0.43851  Biso   1.000  O
  O44      1.0000 0.85540  0.30690  0.10518  Biso   1.000  O
  O45      1.0000 0.45150  0.14460  0.77185  Biso   1.000  O
  O46      1.0000 0.30690  0.45150  0.93851  Biso   1.000  O
  O47      1.0000 0.14460  0.69310  0.60518  Biso   1.000  O
  O48      1.0000 0.54850  0.85540  0.27185  Biso   1.000  O
  H97      1.0000 0.56380  0.69680  0.86130  Biso   1.000  H
  H98      1.0000 0.30320  0.86700  0.19463  Biso   1.000  H
  H99      1.0000 0.13300  0.43620  0.52797  Biso   1.000  H
  H100     1.0000 0.43620  0.30320  0.36130  Biso   1.000  H
  H101     1.0000 0.69680  0.13300  0.69463  Biso   1.000  H
  H102     1.0000 0.86700  0.56380  0.02797  Biso   1.000  H
  H103     1.0000 0.69680  0.56380  0.47203  Biso   1.000  H
  H104     1.0000 0.86700  0.30320  0.13870  Biso   1.000  H
  H105     1.0000 0.43620  0.13300  0.80537  Biso   1.000  H
  H106     1.0000 0.30320  0.43620  0.97203  Biso   1.000  H
  H107     1.0000 0.13300  0.69680  0.63870  Biso   1.000  H
  H108     1.0000 0.56380  0.86700  0.30537  Biso   1.000  H
  H109     1.0000 0.46460  0.62900  0.90040  Biso   1.000  H
  H110     1.0000 0.37100  0.83560  0.23373  Biso   1.000  H
  H111     1.0000 0.16440  0.53540  0.56707  Biso   1.000  H
  H112     1.0000 0.53540  0.37100  0.40040  Biso   1.000  H
  H113     1.0000 0.62900  0.16440  0.73373  Biso   1.000  H
  H114     1.0000 0.83560  0.46460  0.06707  Biso   1.000  H
  H115     1.0000 0.62900  0.46460  0.43293  Biso   1.000  H
  H116     1.0000 0.83560  0.37100  0.09960  Biso   1.000  H
  H117     1.0000 0.53540  0.16440  0.76627  Biso   1.000  H
  H118     1.0000 0.37100  0.53540  0.93293  Biso   1.000  H
  H119     1.0000 0.16440  0.62900  0.59960  Biso   1.000  H
  H120     1.0000 0.46460  0.83560  0.26627  Biso   1.000  H
