data_image0
_cell_length_a       11.0414
_cell_length_b       11.0414
_cell_length_c       24.755
_cell_angle_alpha    90
_cell_angle_beta     90
_cell_angle_gamma    120

_symmetry_space_group_name_H-M    "P 1"
_symmetry_int_tables_number       1

loop_
  _symmetry_equiv_pos_as_xyz
  'x, y, z'

loop_
  _atom_site_label
  _atom_site_occupancy
  _atom_site_fract_x
  _atom_site_fract_y
  _atom_site_fract_z
  _atom_site_thermal_displace_type
  _atom_site_B_iso_or_equiv
  _atom_site_type_symbol
  Cu1      1.0000 0.48444  0.48444  0.66670  Biso   1.000  Cu
  Cu2      1.0000 0.51556  0.00000  0.00003  Biso   1.000  Cu
  Cu3      1.0000 0.00000  0.51556  0.33337  Biso   1.000  Cu
  Cu4      1.0000 0.51556  0.51556  0.16670  Biso   1.000  Cu
  Cu5      1.0000 0.48444  0.00000  0.50003  Biso   1.000  Cu
  Cu6      1.0000 0.00000  0.48444  0.83337  Biso   1.000  Cu
  N1       1.0000 0.66390  0.66390  0.66670  Biso   1.000  N
  N2       1.0000 0.33610  0.00000  0.00003  Biso   1.000  N
  N3       1.0000 1.00000  0.33610  0.33337  Biso   1.000  N
  N4       1.0000 0.33610  0.33610  0.16670  Biso   1.000  N
  N5       1.0000 0.66390  1.00000  0.50003  Biso   1.000  N
  N6       1.0000 0.00000  0.66390  0.83337  Biso   1.000  N
  O1       1.0000 0.56660  0.39295  0.70882  Biso   1.000  O
  O2       1.0000 0.60705  0.17365  0.04215  Biso   1.000  O
  O3       1.0000 0.82635  0.43340  0.37549  Biso   1.000  O
  O4       1.0000 0.43340  0.60705  0.20882  Biso   1.000  O
  O5       1.0000 0.39295  0.82635  0.54215  Biso   1.000  O
  O6       1.0000 0.17365  0.56660  0.87549  Biso   1.000  O
  O7       1.0000 0.39295  0.56660  0.62451  Biso   1.000  O
  O8       1.0000 0.17365  0.60705  0.29118  Biso   1.000  O
  O9       1.0000 0.43340  0.82635  0.95785  Biso   1.000  O
  O10      1.0000 0.60705  0.43340  0.12451  Biso   1.000  O
  O11      1.0000 0.82635  0.39295  0.79118  Biso   1.000  O
  O12      1.0000 0.56660  0.17365  0.45785  Biso   1.000  O
  C1       1.0000 0.05000  0.05000  0.66670  Biso   1.000  C
  C2       1.0000 0.95000  0.00000  0.00003  Biso   1.000  C
  C3       1.0000 1.00000  0.95000  0.33337  Biso   1.000  C
  C4       1.0000 0.95000  0.95000  0.16670  Biso   1.000  C
  C5       1.0000 0.05000  1.00000  0.50003  Biso   1.000  C
  C6       1.0000 0.00000  0.05000  0.83337  Biso   1.000  C
  N7       1.0000 0.30260  0.30260  0.66670  Biso   1.000  N
  N8       1.0000 0.69740  0.00000  0.00003  Biso   1.000  N
  N9       1.0000 0.00000  0.69740  0.33337  Biso   1.000  N
  N10      1.0000 0.69740  0.69740  0.16670  Biso   1.000  N
  N11      1.0000 0.30260  0.00000  0.50003  Biso   1.000  N
  N12      1.0000 0.00000  0.30260  0.83337  Biso   1.000  N
  C7       1.0000 0.18200  0.29930  0.67677  Biso   1.000  C
  C8       1.0000 0.70070  0.88270  0.01010  Biso   1.000  C
  C9       1.0000 0.11730  0.81800  0.34344  Biso   1.000  C
  C10      1.0000 0.81800  0.70070  0.17677  Biso   1.000  C
  C11      1.0000 0.29930  0.11730  0.51010  Biso   1.000  C
  C12      1.0000 0.88270  0.18200  0.84344  Biso   1.000  C
  C13      1.0000 0.29930  0.18200  0.65656  Biso   1.000  C
  C14      1.0000 0.88270  0.70070  0.32323  Biso   1.000  C
  C15      1.0000 0.81800  0.11730  0.98990  Biso   1.000  C
  C16      1.0000 0.70070  0.81800  0.15656  Biso   1.000  C
  C17      1.0000 0.11730  0.29930  0.82323  Biso   1.000  C
  C18      1.0000 0.18200  0.88270  0.48990  Biso   1.000  C
  H1       1.0000 0.18360  0.38480  0.68360  Biso   1.000  H
  H2       1.0000 0.61520  0.79880  0.01693  Biso   1.000  H
  H3       1.0000 0.20120  0.81640  0.35027  Biso   1.000  H
  H4       1.0000 0.81640  0.61520  0.18360  Biso   1.000  H
  H5       1.0000 0.38480  0.20120  0.51693  Biso   1.000  H
  H6       1.0000 0.79880  0.18360  0.85027  Biso   1.000  H
  H7       1.0000 0.38480  0.18360  0.64973  Biso   1.000  H
  H8       1.0000 0.79880  0.61520  0.31640  Biso   1.000  H
  H9       1.0000 0.81640  0.20120  0.98307  Biso   1.000  H
  H10      1.0000 0.61520  0.81640  0.14973  Biso   1.000  H
  H11      1.0000 0.20120  0.38480  0.81640  Biso   1.000  H
  H12      1.0000 0.18360  0.79880  0.48307  Biso   1.000  H
  C19      1.0000 0.55060  0.21470  0.76661  Biso   1.000  C
  C20      1.0000 0.78530  0.33590  0.09994  Biso   1.000  C
  C21      1.0000 0.66410  0.44940  0.43328  Biso   1.000  C
  C22      1.0000 0.44940  0.78530  0.26661  Biso   1.000  C
  C23      1.0000 0.21470  0.66410  0.59994  Biso   1.000  C
  C24      1.0000 0.33590  0.55060  0.93328  Biso   1.000  C
  C25      1.0000 0.21470  0.55060  0.56672  Biso   1.000  C
  C26      1.0000 0.33590  0.78530  0.23339  Biso   1.000  C
  C27      1.0000 0.44940  0.66410  0.90006  Biso   1.000  C
  C28      1.0000 0.78530  0.44940  0.06672  Biso   1.000  C
  C29      1.0000 0.66410  0.21470  0.73339  Biso   1.000  C
  C30      1.0000 0.55060  0.33590  0.40006  Biso   1.000  C
  H13      1.0000 0.57600  0.22010  0.80530  Biso   1.000  H
  H14      1.0000 0.77990  0.35590  0.13863  Biso   1.000  H
  H15      1.0000 0.64410  0.42400  0.47197  Biso   1.000  H
  H16      1.0000 0.42400  0.77990  0.30530  Biso   1.000  H
  H17      1.0000 0.22010  0.64410  0.63863  Biso   1.000  H
  H18      1.0000 0.35590  0.57600  0.97197  Biso   1.000  H
  H19      1.0000 0.22010  0.57600  0.52803  Biso   1.000  H
  H20      1.0000 0.35590  0.77990  0.19470  Biso   1.000  H
  H21      1.0000 0.42400  0.64410  0.86137  Biso   1.000  H
  H22      1.0000 0.77990  0.42400  0.02803  Biso   1.000  H
  H23      1.0000 0.64410  0.22010  0.69470  Biso   1.000  H
  H24      1.0000 0.57600  0.35590  0.36137  Biso   1.000  H
  H25      1.0000 0.46310  0.12470  0.76100  Biso   1.000  H
  H26      1.0000 0.87530  0.33840  0.09433  Biso   1.000  H
  H27      1.0000 0.66160  0.53690  0.42767  Biso   1.000  H
  H28      1.0000 0.53690  0.87530  0.26100  Biso   1.000  H
  H29      1.0000 0.12470  0.66160  0.59433  Biso   1.000  H
  H30      1.0000 0.33840  0.46310  0.92767  Biso   1.000  H
  H31      1.0000 0.12470  0.46310  0.57233  Biso   1.000  H
  H32      1.0000 0.33840  0.87530  0.23900  Biso   1.000  H
  H33      1.0000 0.53690  0.66160  0.90567  Biso   1.000  H
  H34      1.0000 0.87530  0.53690  0.07233  Biso   1.000  H
  H35      1.0000 0.66160  0.12470  0.73900  Biso   1.000  H
  H36      1.0000 0.46310  0.33840  0.40567  Biso   1.000  H
  C31      1.0000 0.05500  0.17590  0.67761  Biso   1.000  C
  C32      1.0000 0.82410  0.87910  0.01094  Biso   1.000  C
  C33      1.0000 0.12090  0.94500  0.34428  Biso   1.000  C
  C34      1.0000 0.94500  0.82410  0.17761  Biso   1.000  C
  C35      1.0000 0.17590  0.12090  0.51094  Biso   1.000  C
  C36      1.0000 0.87910  0.05500  0.84428  Biso   1.000  C
  C37      1.0000 0.17590  0.05500  0.65572  Biso   1.000  C
  C38      1.0000 0.87910  0.82410  0.32239  Biso   1.000  C
  C39      1.0000 0.94500  0.12090  0.98906  Biso   1.000  C
  C40      1.0000 0.82410  0.94500  0.15572  Biso   1.000  C
  C41      1.0000 0.12090  0.17590  0.82239  Biso   1.000  C
  C42      1.0000 0.05500  0.87910  0.48906  Biso   1.000  C
  H37      1.0000 0.97150  0.17710  0.68570  Biso   1.000  H
  H38      1.0000 0.82290  0.79440  0.01903  Biso   1.000  H
  H39      1.0000 0.20560  0.02850  0.35237  Biso   1.000  H
  H40      1.0000 0.02850  0.82290  0.18570  Biso   1.000  H
  H41      1.0000 0.17710  0.20560  0.51903  Biso   1.000  H
  H42      1.0000 0.79440  0.97150  0.85237  Biso   1.000  H
  H43      1.0000 0.17710  0.97150  0.64763  Biso   1.000  H
  H44      1.0000 0.79440  0.82290  0.31430  Biso   1.000  H
  H45      1.0000 0.02850  0.20560  0.98097  Biso   1.000  H
  H46      1.0000 0.82290  0.02850  0.14763  Biso   1.000  H
  H47      1.0000 0.20560  0.17710  0.81430  Biso   1.000  H
  H48      1.0000 0.97150  0.79440  0.48097  Biso   1.000  H
  O13      1.0000 0.45550  0.36150  0.78719  Biso   1.000  O
  O14      1.0000 0.63850  0.09400  0.12052  Biso   1.000  O
  O15      1.0000 0.90600  0.54450  0.45386  Biso   1.000  O
  O16      1.0000 0.54450  0.63850  0.28719  Biso   1.000  O
  O17      1.0000 0.36150  0.90600  0.62052  Biso   1.000  O
  O18      1.0000 0.09400  0.45550  0.95386  Biso   1.000  O
  O19      1.0000 0.36150  0.45550  0.54614  Biso   1.000  O
  O20      1.0000 0.09400  0.63850  0.21281  Biso   1.000  O
  O21      1.0000 0.54450  0.90600  0.87948  Biso   1.000  O
  O22      1.0000 0.63850  0.54450  0.04614  Biso   1.000  O
  O23      1.0000 0.90600  0.36150  0.71281  Biso   1.000  O
  O24      1.0000 0.45550  0.09400  0.37948  Biso   1.000  O
  C43      1.0000 0.52270  0.33300  0.75404  Biso   1.000  C
  C44      1.0000 0.66700  0.18970  0.08737  Biso   1.000  C
  C45      1.0000 0.81030  0.47730  0.42071  Biso   1.000  C
  C46      1.0000 0.47730  0.66700  0.25404  Biso   1.000  C
  C47      1.0000 0.33300  0.81030  0.58737  Biso   1.000  C
  C48      1.0000 0.18970  0.52270  0.92071  Biso   1.000  C
  C49      1.0000 0.33300  0.52270  0.57929  Biso   1.000  C
  C50      1.0000 0.18970  0.66700  0.24596  Biso   1.000  C
  C51      1.0000 0.47730  0.81030  0.91263  Biso   1.000  C
  C52      1.0000 0.66700  0.47730  0.07929  Biso   1.000  C
  C53      1.0000 0.81030  0.33300  0.74596  Biso   1.000  C
  C54      1.0000 0.52270  0.18970  0.41263  Biso   1.000  C
  O25      1.0000 0.56470  0.41020  0.58508  Biso   1.000  O
  O26      1.0000 0.58980  0.15450  0.91841  Biso   1.000  O
  O27      1.0000 0.84550  0.43530  0.25175  Biso   1.000  O
  O28      1.0000 0.43530  0.58980  0.08508  Biso   1.000  O
  O29      1.0000 0.41020  0.84550  0.41841  Biso   1.000  O
  O30      1.0000 0.15450  0.56470  0.75175  Biso   1.000  O
  O31      1.0000 0.41020  0.56470  0.74825  Biso   1.000  O
  O32      1.0000 0.15450  0.58980  0.41492  Biso   1.000  O
  O33      1.0000 0.43530  0.84550  0.08159  Biso   1.000  O
  O34      1.0000 0.58980  0.43530  0.24825  Biso   1.000  O
  O35      1.0000 0.84550  0.41020  0.91492  Biso   1.000  O
  O36      1.0000 0.56470  0.15450  0.58159  Biso   1.000  O
  H49      1.0000 0.50760  0.41740  0.56420  Biso   1.000  H
  H50      1.0000 0.58260  0.09020  0.89753  Biso   1.000  H
  H51      1.0000 0.90980  0.49240  0.23087  Biso   1.000  H
  H52      1.0000 0.49240  0.58260  0.06420  Biso   1.000  H
  H53      1.0000 0.41740  0.90980  0.39753  Biso   1.000  H
  H54      1.0000 0.09020  0.50760  0.73087  Biso   1.000  H
  H55      1.0000 0.41740  0.50760  0.76913  Biso   1.000  H
  H56      1.0000 0.09020  0.58260  0.43580  Biso   1.000  H
  H57      1.0000 0.49240  0.90980  0.10247  Biso   1.000  H
  H58      1.0000 0.58260  0.49240  0.26913  Biso   1.000  H
  H59      1.0000 0.90980  0.41740  0.93580  Biso   1.000  H
  H60      1.0000 0.50760  0.09020  0.60247  Biso   1.000  H
  H61      1.0000 0.64580  0.45450  0.57110  Biso   1.000  H
  H62      1.0000 0.54550  0.19130  0.90443  Biso   1.000  H
  H63      1.0000 0.80870  0.35420  0.23777  Biso   1.000  H
  H64      1.0000 0.35420  0.54550  0.07110  Biso   1.000  H
  H65      1.0000 0.45450  0.80870  0.40443  Biso   1.000  H
  H66      1.0000 0.19130  0.64580  0.73777  Biso   1.000  H
  H67      1.0000 0.45450  0.64580  0.76223  Biso   1.000  H
  H68      1.0000 0.19130  0.54550  0.42890  Biso   1.000  H
  H69      1.0000 0.35420  0.80870  0.09557  Biso   1.000  H
  H70      1.0000 0.54550  0.35420  0.26223  Biso   1.000  H
  H71      1.0000 0.80870  0.45450  0.92890  Biso   1.000  H
  H72      1.0000 0.64580  0.19130  0.59557  Biso   1.000  H
  C55      1.0000 0.91210  0.79070  0.67548  Biso   1.000  C
  C56      1.0000 0.20930  0.12140  0.00881  Biso   1.000  C
  C57      1.0000 0.87860  0.08790  0.34215  Biso   1.000  C
  C58      1.0000 0.08790  0.20930  0.17548  Biso   1.000  C
  C59      1.0000 0.79070  0.87860  0.50881  Biso   1.000  C
  C60      1.0000 0.12140  0.91210  0.84215  Biso   1.000  C
  C61      1.0000 0.79070  0.91210  0.65785  Biso   1.000  C
  C62      1.0000 0.12140  0.20930  0.32452  Biso   1.000  C
  C63      1.0000 0.08790  0.87860  0.99119  Biso   1.000  C
  C64      1.0000 0.20930  0.08790  0.15785  Biso   1.000  C
  C65      1.0000 0.87860  0.79070  0.82452  Biso   1.000  C
  C66      1.0000 0.91210  0.12140  0.49119  Biso   1.000  C
  H73      1.0000 0.99590  0.78880  0.68210  Biso   1.000  H
  H74      1.0000 0.21120  0.20710  0.01543  Biso   1.000  H
  H75      1.0000 0.79290  0.00410  0.34877  Biso   1.000  H
  H76      1.0000 0.00410  0.21120  0.18210  Biso   1.000  H
  H77      1.0000 0.78880  0.79290  0.51543  Biso   1.000  H
  H78      1.0000 0.20710  0.99590  0.84877  Biso   1.000  H
  H79      1.0000 0.78880  0.99590  0.65123  Biso   1.000  H
  H80      1.0000 0.20710  0.21120  0.31790  Biso   1.000  H
  H81      1.0000 0.00410  0.79290  0.98457  Biso   1.000  H
  H82      1.0000 0.21120  0.00410  0.15123  Biso   1.000  H
  H83      1.0000 0.79290  0.78880  0.81790  Biso   1.000  H
  H84      1.0000 0.99590  0.20710  0.48457  Biso   1.000  H
  C67      1.0000 0.91780  0.91780  0.66670  Biso   1.000  C
  C68      1.0000 0.08220  0.00000  0.00003  Biso   1.000  C
  C69      1.0000 0.00000  0.08220  0.33337  Biso   1.000  C
  C70      1.0000 0.08220  0.08220  0.16670  Biso   1.000  C
  C71      1.0000 0.91780  0.00000  0.50003  Biso   1.000  C
  C72      1.0000 1.00000  0.91780  0.83337  Biso   1.000  C
  C73      1.0000 0.78590  0.66750  0.67472  Biso   1.000  C
  C74      1.0000 0.33250  0.11840  0.00805  Biso   1.000  C
  C75      1.0000 0.88160  0.21410  0.34139  Biso   1.000  C
  C76      1.0000 0.21410  0.33250  0.17472  Biso   1.000  C
  C77      1.0000 0.66750  0.88160  0.50805  Biso   1.000  C
  C78      1.0000 0.11840  0.78590  0.84139  Biso   1.000  C
  C79      1.0000 0.66750  0.78590  0.65861  Biso   1.000  C
  C80      1.0000 0.11840  0.33250  0.32528  Biso   1.000  C
  C81      1.0000 0.21410  0.88160  0.99195  Biso   1.000  C
  C82      1.0000 0.33250  0.21410  0.15861  Biso   1.000  C
  C83      1.0000 0.88160  0.66750  0.82528  Biso   1.000  C
  C84      1.0000 0.78590  0.11840  0.49195  Biso   1.000  C
  H85      1.0000 0.78510  0.58190  0.68010  Biso   1.000  H
  H86      1.0000 0.41810  0.20320  0.01343  Biso   1.000  H
  H87      1.0000 0.79680  0.21490  0.34677  Biso   1.000  H
  H88      1.0000 0.21490  0.41810  0.18010  Biso   1.000  H
  H89      1.0000 0.58190  0.79680  0.51343  Biso   1.000  H
  H90      1.0000 0.20320  0.78510  0.84677  Biso   1.000  H
  H91      1.0000 0.58190  0.78510  0.65323  Biso   1.000  H
  H92      1.0000 0.20320  0.41810  0.31990  Biso   1.000  H
  H93      1.0000 0.21490  0.79680  0.98657  Biso   1.000  H
  H94      1.0000 0.41810  0.21490  0.15323  Biso   1.000  H
  H95      1.0000 0.79680  0.58190  0.81990  Biso   1.000  H
  H96      1.0000 0.78510  0.20320  0.48657  Biso   1.000  H
  O37      1.0000 0.45710  0.30720  0.89606  Biso   1.000  O
  O38      1.0000 0.69280  0.14990  0.22939  Biso   1.000  O
  O39      1.0000 0.85010  0.54290  0.56273  Biso   1.000  O
  O40      1.0000 0.54290  0.69280  0.39606  Biso   1.000  O
  O41      1.0000 0.30720  0.85010  0.72939  Biso   1.000  O
  O42      1.0000 0.14990  0.45710  0.06273  Biso   1.000  O
  O43      1.0000 0.30720  0.45710  0.43727  Biso   1.000  O
  O44      1.0000 0.14990  0.69280  0.10394  Biso   1.000  O
  O45      1.0000 0.54290  0.85010  0.77061  Biso   1.000  O
  O46      1.0000 0.69280  0.54290  0.93727  Biso   1.000  O
  O47      1.0000 0.85010  0.30720  0.60394  Biso   1.000  O
  O48      1.0000 0.45710  0.14990  0.27061  Biso   1.000  O
  H97      1.0000 0.38590  0.29990  0.91220  Biso   1.000  H
  H98      1.0000 0.70010  0.08600  0.24553  Biso   1.000  H
  H99      1.0000 0.91400  0.61410  0.57887  Biso   1.000  H
  H100     1.0000 0.61410  0.70010  0.41220  Biso   1.000  H
  H101     1.0000 0.29990  0.91400  0.74553  Biso   1.000  H
  H102     1.0000 0.08600  0.38590  0.07887  Biso   1.000  H
  H103     1.0000 0.29990  0.38590  0.42113  Biso   1.000  H
  H104     1.0000 0.08600  0.70010  0.08780  Biso   1.000  H
  H105     1.0000 0.61410  0.91400  0.75447  Biso   1.000  H
  H106     1.0000 0.70010  0.61410  0.92113  Biso   1.000  H
  H107     1.0000 0.91400  0.29990  0.58780  Biso   1.000  H
  H108     1.0000 0.38590  0.08600  0.25447  Biso   1.000  H
  H109     1.0000 0.45080  0.32110  0.86270  Biso   1.000  H
  H110     1.0000 0.67890  0.12970  0.19603  Biso   1.000  H
  H111     1.0000 0.87030  0.54920  0.52937  Biso   1.000  H
  H112     1.0000 0.54920  0.67890  0.36270  Biso   1.000  H
  H113     1.0000 0.32110  0.87030  0.69603  Biso   1.000  H
  H114     1.0000 0.12970  0.45080  0.02937  Biso   1.000  H
  H115     1.0000 0.32110  0.45080  0.47063  Biso   1.000  H
  H116     1.0000 0.12970  0.67890  0.13730  Biso   1.000  H
  H117     1.0000 0.54920  0.87030  0.80397  Biso   1.000  H
  H118     1.0000 0.67890  0.54920  0.97063  Biso   1.000  H
  H119     1.0000 0.87030  0.32110  0.63730  Biso   1.000  H
  H120     1.0000 0.45080  0.12970  0.30397  Biso   1.000  H
