data_image0
_cell_length_a       11.0315
_cell_length_b       11.0315
_cell_length_c       24.825
_cell_angle_alpha    90
_cell_angle_beta     90
_cell_angle_gamma    120

_symmetry_space_group_name_H-M    "P 1"
_symmetry_int_tables_number       1

loop_
  _symmetry_equiv_pos_as_xyz
  'x, y, z'

loop_
  _atom_site_label
  _atom_site_occupancy
  _atom_site_fract_x
  _atom_site_fract_y
  _atom_site_fract_z
  _atom_site_thermal_displace_type
  _atom_site_B_iso_or_equiv
  _atom_site_type_symbol
  Cu1      1.0000 0.51448  0.00000  0.00000  Biso   1.000  Cu
  Cu2      1.0000 0.00000  0.51448  0.33333  Biso   1.000  Cu
  Cu3      1.0000 0.48552  0.48552  0.66667  Biso   1.000  Cu
  Cu4      1.0000 0.48552  0.00000  0.50000  Biso   1.000  Cu
  Cu5      1.0000 0.00000  0.48552  0.83333  Biso   1.000  Cu
  Cu6      1.0000 0.51448  0.51448  0.16667  Biso   1.000  Cu
  N1       1.0000 0.33440  0.00000  0.00000  Biso   1.000  N
  N2       1.0000 0.00000  0.33440  0.33333  Biso   1.000  N
  N3       1.0000 0.66560  0.66560  0.66667  Biso   1.000  N
  N4       1.0000 0.66560  0.00000  0.50000  Biso   1.000  N
  N5       1.0000 0.00000  0.66560  0.83333  Biso   1.000  N
  N6       1.0000 0.33440  0.33440  0.16667  Biso   1.000  N
  C1       1.0000 0.94290  0.12010  0.98932  Biso   1.000  C
  C2       1.0000 0.87990  0.82280  0.32265  Biso   1.000  C
  C3       1.0000 0.17720  0.05710  0.65599  Biso   1.000  C
  C4       1.0000 0.05710  0.87990  0.48932  Biso   1.000  C
  C5       1.0000 0.12010  0.17720  0.82265  Biso   1.000  C
  C6       1.0000 0.82280  0.94290  0.15599  Biso   1.000  C
  C7       1.0000 0.12010  0.94290  0.34401  Biso   1.000  C
  C8       1.0000 0.82280  0.87990  0.01068  Biso   1.000  C
  C9       1.0000 0.05710  0.17720  0.67735  Biso   1.000  C
  C10      1.0000 0.87990  0.05710  0.84401  Biso   1.000  C
  C11      1.0000 0.17720  0.12010  0.51068  Biso   1.000  C
  C12      1.0000 0.94290  0.82280  0.17735  Biso   1.000  C
  H1       1.0000 0.02450  0.20370  0.98180  Biso   1.000  H
  H2       1.0000 0.79630  0.82080  0.31513  Biso   1.000  H
  H3       1.0000 0.17920  0.97550  0.64847  Biso   1.000  H
  H4       1.0000 0.97550  0.79630  0.48180  Biso   1.000  H
  H5       1.0000 0.20370  0.17920  0.81513  Biso   1.000  H
  H6       1.0000 0.82080  0.02450  0.14847  Biso   1.000  H
  H7       1.0000 0.20370  0.02450  0.35153  Biso   1.000  H
  H8       1.0000 0.82080  0.79630  0.01820  Biso   1.000  H
  H9       1.0000 0.97550  0.17920  0.68487  Biso   1.000  H
  H10      1.0000 0.79630  0.97550  0.85153  Biso   1.000  H
  H11      1.0000 0.17920  0.20370  0.51820  Biso   1.000  H
  H12      1.0000 0.02450  0.82080  0.18487  Biso   1.000  H
  C13      1.0000 0.81690  0.11620  0.98985  Biso   1.000  C
  C14      1.0000 0.88380  0.70070  0.32318  Biso   1.000  C
  C15      1.0000 0.29930  0.18310  0.65652  Biso   1.000  C
  C16      1.0000 0.18310  0.88380  0.48985  Biso   1.000  C
  C17      1.0000 0.11620  0.29930  0.82318  Biso   1.000  C
  C18      1.0000 0.70070  0.81690  0.15652  Biso   1.000  C
  C19      1.0000 0.11620  0.81690  0.34348  Biso   1.000  C
  C20      1.0000 0.70070  0.88380  0.01015  Biso   1.000  C
  C21      1.0000 0.18310  0.29930  0.67682  Biso   1.000  C
  C22      1.0000 0.88380  0.18310  0.84348  Biso   1.000  C
  C23      1.0000 0.29930  0.11620  0.51015  Biso   1.000  C
  C24      1.0000 0.81690  0.70070  0.17682  Biso   1.000  C
  H13      1.0000 0.81520  0.19810  0.98280  Biso   1.000  H
  H14      1.0000 0.80190  0.61710  0.31613  Biso   1.000  H
  H15      1.0000 0.38290  0.18480  0.64947  Biso   1.000  H
  H16      1.0000 0.18480  0.80190  0.48280  Biso   1.000  H
  H17      1.0000 0.19810  0.38290  0.81613  Biso   1.000  H
  H18      1.0000 0.61710  0.81520  0.14947  Biso   1.000  H
  H19      1.0000 0.19810  0.81520  0.35053  Biso   1.000  H
  H20      1.0000 0.61710  0.80190  0.01720  Biso   1.000  H
  H21      1.0000 0.18480  0.38290  0.68387  Biso   1.000  H
  H22      1.0000 0.80190  0.18480  0.85053  Biso   1.000  H
  H23      1.0000 0.38290  0.19810  0.51720  Biso   1.000  H
  H24      1.0000 0.81520  0.61710  0.18387  Biso   1.000  H
  C25      1.0000 0.94970  0.00000  0.00000  Biso   1.000  C
  C26      1.0000 1.00000  0.94970  0.33333  Biso   1.000  C
  C27      1.0000 0.05030  0.05030  0.66667  Biso   1.000  C
  C28      1.0000 0.05030  0.00000  0.50000  Biso   1.000  C
  C29      1.0000 0.00000  0.05030  0.83333  Biso   1.000  C
  C30      1.0000 0.94970  0.94970  0.16667  Biso   1.000  C
  C31      1.0000 0.78150  0.33270  0.09973  Biso   1.000  C
  C32      1.0000 0.66730  0.44880  0.43306  Biso   1.000  C
  C33      1.0000 0.55120  0.21850  0.76640  Biso   1.000  C
  C34      1.0000 0.21850  0.66730  0.59973  Biso   1.000  C
  C35      1.0000 0.33270  0.55120  0.93306  Biso   1.000  C
  C36      1.0000 0.44880  0.78150  0.26640  Biso   1.000  C
  C37      1.0000 0.33270  0.78150  0.23360  Biso   1.000  C
  C38      1.0000 0.44880  0.66730  0.90027  Biso   1.000  C
  C39      1.0000 0.21850  0.55120  0.56694  Biso   1.000  C
  C40      1.0000 0.66730  0.21850  0.73360  Biso   1.000  C
  C41      1.0000 0.55120  0.33270  0.40027  Biso   1.000  C
  C42      1.0000 0.78150  0.44880  0.06694  Biso   1.000  C
  H25      1.0000 0.86950  0.33490  0.09380  Biso   1.000  H
  H26      1.0000 0.66510  0.53460  0.42713  Biso   1.000  H
  H27      1.0000 0.46540  0.13050  0.76047  Biso   1.000  H
  H28      1.0000 0.13050  0.66510  0.59380  Biso   1.000  H
  H29      1.0000 0.33490  0.46540  0.92713  Biso   1.000  H
  H30      1.0000 0.53460  0.86950  0.26047  Biso   1.000  H
  H31      1.0000 0.33490  0.86950  0.23953  Biso   1.000  H
  H32      1.0000 0.53460  0.66510  0.90620  Biso   1.000  H
  H33      1.0000 0.13050  0.46540  0.57287  Biso   1.000  H
  H34      1.0000 0.66510  0.13050  0.73953  Biso   1.000  H
  H35      1.0000 0.46540  0.33490  0.40620  Biso   1.000  H
  H36      1.0000 0.86950  0.53460  0.07287  Biso   1.000  H
  H37      1.0000 0.77670  0.35120  0.13760  Biso   1.000  H
  H38      1.0000 0.64880  0.42550  0.47093  Biso   1.000  H
  H39      1.0000 0.57450  0.22330  0.80427  Biso   1.000  H
  H40      1.0000 0.22330  0.64880  0.63760  Biso   1.000  H
  H41      1.0000 0.35120  0.57450  0.97093  Biso   1.000  H
  H42      1.0000 0.42550  0.77670  0.30427  Biso   1.000  H
  H43      1.0000 0.35120  0.77670  0.19573  Biso   1.000  H
  H44      1.0000 0.42550  0.64880  0.86240  Biso   1.000  H
  H45      1.0000 0.22330  0.57450  0.52907  Biso   1.000  H
  H46      1.0000 0.64880  0.22330  0.69573  Biso   1.000  H
  H47      1.0000 0.57450  0.35120  0.36240  Biso   1.000  H
  H48      1.0000 0.77670  0.42550  0.02907  Biso   1.000  H
  O1       1.0000 0.60480  0.17175  0.04222  Biso   1.000  O
  O2       1.0000 0.82825  0.43305  0.37555  Biso   1.000  O
  O3       1.0000 0.56695  0.39520  0.70889  Biso   1.000  O
  O4       1.0000 0.39520  0.82825  0.54222  Biso   1.000  O
  O5       1.0000 0.17175  0.56695  0.87555  Biso   1.000  O
  O6       1.0000 0.43305  0.60480  0.20889  Biso   1.000  O
  O7       1.0000 0.17175  0.60480  0.29111  Biso   1.000  O
  O8       1.0000 0.43305  0.82825  0.95778  Biso   1.000  O
  O9       1.0000 0.39520  0.56695  0.62445  Biso   1.000  O
  O10      1.0000 0.82825  0.39520  0.79111  Biso   1.000  O
  O11      1.0000 0.56695  0.17175  0.45778  Biso   1.000  O
  O12      1.0000 0.60480  0.43305  0.12445  Biso   1.000  O
  O13      1.0000 0.63520  0.09280  0.12017  Biso   1.000  O
  O14      1.0000 0.90720  0.54240  0.45350  Biso   1.000  O
  O15      1.0000 0.45760  0.36480  0.78684  Biso   1.000  O
  O16      1.0000 0.36480  0.90720  0.62017  Biso   1.000  O
  O17      1.0000 0.09280  0.45760  0.95350  Biso   1.000  O
  O18      1.0000 0.54240  0.63520  0.28684  Biso   1.000  O
  O19      1.0000 0.09280  0.63520  0.21316  Biso   1.000  O
  O20      1.0000 0.54240  0.90720  0.87983  Biso   1.000  O
  O21      1.0000 0.36480  0.45760  0.54650  Biso   1.000  O
  O22      1.0000 0.90720  0.36480  0.71316  Biso   1.000  O
  O23      1.0000 0.45760  0.09280  0.37983  Biso   1.000  O
  O24      1.0000 0.63520  0.54240  0.04650  Biso   1.000  O
  C43      1.0000 0.66370  0.18830  0.08689  Biso   1.000  C
  C44      1.0000 0.81170  0.47540  0.42022  Biso   1.000  C
  C45      1.0000 0.52460  0.33630  0.75356  Biso   1.000  C
  C46      1.0000 0.33630  0.81170  0.58689  Biso   1.000  C
  C47      1.0000 0.18830  0.52460  0.92022  Biso   1.000  C
  C48      1.0000 0.47540  0.66370  0.25356  Biso   1.000  C
  C49      1.0000 0.18830  0.66370  0.24644  Biso   1.000  C
  C50      1.0000 0.47540  0.81170  0.91311  Biso   1.000  C
  C51      1.0000 0.33630  0.52460  0.57978  Biso   1.000  C
  C52      1.0000 0.81170  0.33630  0.74644  Biso   1.000  C
  C53      1.0000 0.52460  0.18830  0.41311  Biso   1.000  C
  C54      1.0000 0.66370  0.47540  0.07978  Biso   1.000  C
  C55      1.0000 0.08190  0.00000  0.00000  Biso   1.000  C
  C56      1.0000 0.00000  0.08190  0.33333  Biso   1.000  C
  C57      1.0000 0.91810  0.91810  0.66667  Biso   1.000  C
  C58      1.0000 0.91810  0.00000  0.50000  Biso   1.000  C
  C59      1.0000 0.00000  0.91810  0.83333  Biso   1.000  C
  C60      1.0000 0.08190  0.08190  0.16667  Biso   1.000  C
  O25      1.0000 0.43340  0.84680  0.08226  Biso   1.000  O
  O26      1.0000 0.15320  0.58660  0.41559  Biso   1.000  O
  O27      1.0000 0.41340  0.56660  0.74893  Biso   1.000  O
  O28      1.0000 0.56660  0.15320  0.58226  Biso   1.000  O
  O29      1.0000 0.84680  0.41340  0.91559  Biso   1.000  O
  O30      1.0000 0.58660  0.43340  0.24893  Biso   1.000  O
  O31      1.0000 0.84680  0.43340  0.25107  Biso   1.000  O
  O32      1.0000 0.58660  0.15320  0.91774  Biso   1.000  O
  O33      1.0000 0.56660  0.41340  0.58441  Biso   1.000  O
  O34      1.0000 0.15320  0.56660  0.75107  Biso   1.000  O
  O35      1.0000 0.41340  0.84680  0.41774  Biso   1.000  O
  O36      1.0000 0.43340  0.58660  0.08441  Biso   1.000  O
  H49      1.0000 0.35330  0.82960  0.09310  Biso   1.000  H
  H50      1.0000 0.17040  0.52370  0.42643  Biso   1.000  H
  H51      1.0000 0.47630  0.64670  0.75977  Biso   1.000  H
  H52      1.0000 0.64670  0.17040  0.59310  Biso   1.000  H
  H53      1.0000 0.82960  0.47630  0.92643  Biso   1.000  H
  H54      1.0000 0.52370  0.35330  0.25977  Biso   1.000  H
  H55      1.0000 0.82960  0.35330  0.24023  Biso   1.000  H
  H56      1.0000 0.52370  0.17040  0.90690  Biso   1.000  H
  H57      1.0000 0.64670  0.47630  0.57357  Biso   1.000  H
  H58      1.0000 0.17040  0.64670  0.74023  Biso   1.000  H
  H59      1.0000 0.47630  0.82960  0.40690  Biso   1.000  H
  H60      1.0000 0.35330  0.52370  0.07357  Biso   1.000  H
  H61      1.0000 0.43490  0.77050  0.08240  Biso   1.000  H
  H62      1.0000 0.22950  0.66440  0.41573  Biso   1.000  H
  H63      1.0000 0.33560  0.56510  0.74907  Biso   1.000  H
  H64      1.0000 0.56510  0.22950  0.58240  Biso   1.000  H
  H65      1.0000 0.77050  0.33560  0.91573  Biso   1.000  H
  H66      1.0000 0.66440  0.43490  0.24907  Biso   1.000  H
  H67      1.0000 0.77050  0.43490  0.25093  Biso   1.000  H
  H68      1.0000 0.66440  0.22950  0.91760  Biso   1.000  H
  H69      1.0000 0.56510  0.33560  0.58427  Biso   1.000  H
  H70      1.0000 0.22950  0.56510  0.75093  Biso   1.000  H
  H71      1.0000 0.33560  0.77050  0.41760  Biso   1.000  H
  H72      1.0000 0.43490  0.66440  0.08427  Biso   1.000  H
  N7       1.0000 0.69720  0.00000  0.00000  Biso   1.000  N
  N8       1.0000 0.00000  0.69720  0.33333  Biso   1.000  N
  N9       1.0000 0.30280  0.30280  0.66667  Biso   1.000  N
  N10      1.0000 0.30280  0.00000  0.50000  Biso   1.000  N
  N11      1.0000 0.00000  0.30280  0.83333  Biso   1.000  N
  N12      1.0000 0.69720  0.69720  0.16667  Biso   1.000  N
  C61      1.0000 0.33120  0.11800  0.00796  Biso   1.000  C
  C62      1.0000 0.88200  0.21320  0.34129  Biso   1.000  C
  C63      1.0000 0.78680  0.66880  0.67463  Biso   1.000  C
  C64      1.0000 0.66880  0.88200  0.50796  Biso   1.000  C
  C65      1.0000 0.11800  0.78680  0.84129  Biso   1.000  C
  C66      1.0000 0.21320  0.33120  0.17463  Biso   1.000  C
  C67      1.0000 0.11800  0.33120  0.32537  Biso   1.000  C
  C68      1.0000 0.21320  0.88200  0.99204  Biso   1.000  C
  C69      1.0000 0.66880  0.78680  0.65871  Biso   1.000  C
  C70      1.0000 0.88200  0.66880  0.82537  Biso   1.000  C
  C71      1.0000 0.78680  0.11800  0.49204  Biso   1.000  C
  C72      1.0000 0.33120  0.21320  0.15871  Biso   1.000  C
  H73      1.0000 0.41510  0.20090  0.01350  Biso   1.000  H
  H74      1.0000 0.79910  0.21420  0.34683  Biso   1.000  H
  H75      1.0000 0.78580  0.58490  0.68017  Biso   1.000  H
  H76      1.0000 0.58490  0.79910  0.51350  Biso   1.000  H
  H77      1.0000 0.20090  0.78580  0.84683  Biso   1.000  H
  H78      1.0000 0.21420  0.41510  0.18017  Biso   1.000  H
  H79      1.0000 0.20090  0.41510  0.31983  Biso   1.000  H
  H80      1.0000 0.21420  0.79910  0.98650  Biso   1.000  H
  H81      1.0000 0.58490  0.78580  0.65317  Biso   1.000  H
  H82      1.0000 0.79910  0.58490  0.81983  Biso   1.000  H
  H83      1.0000 0.78580  0.20090  0.48650  Biso   1.000  H
  H84      1.0000 0.41510  0.21420  0.15317  Biso   1.000  H
  O37      1.0000 0.69180  0.14440  0.22826  Biso   1.000  O
  O38      1.0000 0.85560  0.54740  0.56159  Biso   1.000  O
  O39      1.0000 0.45260  0.30820  0.89493  Biso   1.000  O
  O40      1.0000 0.30820  0.85560  0.72826  Biso   1.000  O
  O41      1.0000 0.14440  0.45260  0.06159  Biso   1.000  O
  O42      1.0000 0.54740  0.69180  0.39493  Biso   1.000  O
  O43      1.0000 0.14440  0.69180  0.10507  Biso   1.000  O
  O44      1.0000 0.54740  0.85560  0.77174  Biso   1.000  O
  O45      1.0000 0.30820  0.45260  0.43841  Biso   1.000  O
  O46      1.0000 0.85560  0.30820  0.60507  Biso   1.000  O
  O47      1.0000 0.45260  0.14440  0.27174  Biso   1.000  O
  O48      1.0000 0.69180  0.54740  0.93841  Biso   1.000  O
  H85      1.0000 0.68040  0.11120  0.19660  Biso   1.000  H
  H86      1.0000 0.88880  0.56920  0.52993  Biso   1.000  H
  H87      1.0000 0.43080  0.31960  0.86327  Biso   1.000  H
  H88      1.0000 0.31960  0.88880  0.69660  Biso   1.000  H
  H89      1.0000 0.11120  0.43080  0.02993  Biso   1.000  H
  H90      1.0000 0.56920  0.68040  0.36327  Biso   1.000  H
  H91      1.0000 0.11120  0.68040  0.13673  Biso   1.000  H
  H92      1.0000 0.56920  0.88880  0.80340  Biso   1.000  H
  H93      1.0000 0.31960  0.43080  0.47007  Biso   1.000  H
  H94      1.0000 0.88880  0.31960  0.63673  Biso   1.000  H
  H95      1.0000 0.43080  0.11120  0.30340  Biso   1.000  H
  H96      1.0000 0.68040  0.56920  0.97007  Biso   1.000  H
  H97      1.0000 0.65020  0.19150  0.23020  Biso   1.000  H
  H98      1.0000 0.80850  0.45870  0.56353  Biso   1.000  H
  H99      1.0000 0.54130  0.34980  0.89687  Biso   1.000  H
  H100     1.0000 0.34980  0.80850  0.73020  Biso   1.000  H
  H101     1.0000 0.19150  0.54130  0.06353  Biso   1.000  H
  H102     1.0000 0.45870  0.65020  0.39687  Biso   1.000  H
  H103     1.0000 0.19150  0.65020  0.10313  Biso   1.000  H
  H104     1.0000 0.45870  0.80850  0.76980  Biso   1.000  H
  H105     1.0000 0.34980  0.54130  0.43647  Biso   1.000  H
  H106     1.0000 0.80850  0.34980  0.60313  Biso   1.000  H
  H107     1.0000 0.54130  0.19150  0.26980  Biso   1.000  H
  H108     1.0000 0.65020  0.45870  0.93647  Biso   1.000  H
  C73      1.0000 0.20810  0.12140  0.00834  Biso   1.000  C
  C74      1.0000 0.87860  0.08670  0.34167  Biso   1.000  C
  C75      1.0000 0.91330  0.79190  0.67501  Biso   1.000  C
  C76      1.0000 0.79190  0.87860  0.50834  Biso   1.000  C
  C77      1.0000 0.12140  0.91330  0.84167  Biso   1.000  C
  C78      1.0000 0.08670  0.20810  0.17501  Biso   1.000  C
  C79      1.0000 0.12140  0.20810  0.32499  Biso   1.000  C
  C80      1.0000 0.08670  0.87860  0.99166  Biso   1.000  C
  C81      1.0000 0.79190  0.91330  0.65833  Biso   1.000  C
  C82      1.0000 0.87860  0.79190  0.82499  Biso   1.000  C
  C83      1.0000 0.91330  0.12140  0.49166  Biso   1.000  C
  C84      1.0000 0.20810  0.08670  0.15833  Biso   1.000  C
  H109     1.0000 0.20990  0.20550  0.01420  Biso   1.000  H
  H110     1.0000 0.79450  0.00440  0.34753  Biso   1.000  H
  H111     1.0000 0.99560  0.79010  0.68087  Biso   1.000  H
  H112     1.0000 0.79010  0.79450  0.51420  Biso   1.000  H
  H113     1.0000 0.20550  0.99560  0.84753  Biso   1.000  H
  H114     1.0000 0.00440  0.20990  0.18087  Biso   1.000  H
  H115     1.0000 0.20550  0.20990  0.31913  Biso   1.000  H
  H116     1.0000 0.00440  0.79450  0.98580  Biso   1.000  H
  H117     1.0000 0.79010  0.99560  0.65247  Biso   1.000  H
  H118     1.0000 0.79450  0.79010  0.81913  Biso   1.000  H
  H119     1.0000 0.99560  0.20550  0.48580  Biso   1.000  H
  H120     1.0000 0.20990  0.00440  0.15247  Biso   1.000  H
