data_image0
_cell_length_a       11.0591
_cell_length_b       11.0591
_cell_length_c       24.652
_cell_angle_alpha    90
_cell_angle_beta     90
_cell_angle_gamma    120

_symmetry_space_group_name_H-M    "P 1"
_symmetry_int_tables_number       1

loop_
  _symmetry_equiv_pos_as_xyz
  'x, y, z'

loop_
  _atom_site_label
  _atom_site_occupancy
  _atom_site_fract_x
  _atom_site_fract_y
  _atom_site_fract_z
  _atom_site_thermal_displace_type
  _atom_site_B_iso_or_equiv
  _atom_site_type_symbol
  Cu1      1.0000 0.48392  0.00000  0.00000  Biso   1.000  Cu
  Cu2      1.0000 0.00000  0.48392  0.33333  Biso   1.000  Cu
  Cu3      1.0000 0.51608  0.51608  0.66667  Biso   1.000  Cu
  Cu4      1.0000 0.51608  0.00000  0.50000  Biso   1.000  Cu
  Cu5      1.0000 0.00000  0.51608  0.83333  Biso   1.000  Cu
  Cu6      1.0000 0.48392  0.48392  0.16667  Biso   1.000  Cu
  N1       1.0000 0.66350  0.00000  0.00000  Biso   1.000  N
  N2       1.0000 0.00000  0.66350  0.33333  Biso   1.000  N
  N3       1.0000 0.33650  0.33650  0.66667  Biso   1.000  N
  N4       1.0000 0.33650  0.00000  0.50000  Biso   1.000  N
  N5       1.0000 0.00000  0.33650  0.83333  Biso   1.000  N
  N6       1.0000 0.66350  0.66350  0.16667  Biso   1.000  N
  C1       1.0000 0.04970  0.00000  0.00000  Biso   1.000  C
  C2       1.0000 0.00000  0.04970  0.33333  Biso   1.000  C
  C3       1.0000 0.95030  0.95030  0.66667  Biso   1.000  C
  C4       1.0000 0.95030  0.00000  0.50000  Biso   1.000  C
  C5       1.0000 0.00000  0.95030  0.83333  Biso   1.000  C
  C6       1.0000 0.04970  0.04970  0.16667  Biso   1.000  C
  O1       1.0000 0.39250  0.82650  0.04196  Biso   1.000  O
  O2       1.0000 0.17350  0.56600  0.37529  Biso   1.000  O
  O3       1.0000 0.43400  0.60750  0.70863  Biso   1.000  O
  O4       1.0000 0.60750  0.17350  0.54196  Biso   1.000  O
  O5       1.0000 0.82650  0.43400  0.87529  Biso   1.000  O
  O6       1.0000 0.56600  0.39250  0.20863  Biso   1.000  O
  O7       1.0000 0.82650  0.39250  0.29137  Biso   1.000  O
  O8       1.0000 0.56600  0.17350  0.95804  Biso   1.000  O
  O9       1.0000 0.60750  0.43400  0.62471  Biso   1.000  O
  O10      1.0000 0.17350  0.60750  0.79137  Biso   1.000  O
  O11      1.0000 0.43400  0.82650  0.45804  Biso   1.000  O
  O12      1.0000 0.39250  0.56600  0.12471  Biso   1.000  O
  N7       1.0000 0.30200  0.00000  0.00000  Biso   1.000  N
  N8       1.0000 0.00000  0.30200  0.33333  Biso   1.000  N
  N9       1.0000 0.69800  0.69800  0.66667  Biso   1.000  N
  N10      1.0000 0.69800  0.00000  0.50000  Biso   1.000  N
  N11      1.0000 0.00000  0.69800  0.83333  Biso   1.000  N
  N12      1.0000 0.30200  0.30200  0.16667  Biso   1.000  N
  C7       1.0000 0.17560  0.12070  0.01106  Biso   1.000  C
  C8       1.0000 0.87930  0.05490  0.34439  Biso   1.000  C
  C9       1.0000 0.94510  0.82440  0.67773  Biso   1.000  C
  C10      1.0000 0.82440  0.87930  0.51106  Biso   1.000  C
  C11      1.0000 0.12070  0.94510  0.84439  Biso   1.000  C
  C12      1.0000 0.05490  0.17560  0.17773  Biso   1.000  C
  C13      1.0000 0.12070  0.17560  0.32227  Biso   1.000  C
  C14      1.0000 0.05490  0.87930  0.98894  Biso   1.000  C
  C15      1.0000 0.82440  0.94510  0.65561  Biso   1.000  C
  C16      1.0000 0.87930  0.82440  0.82227  Biso   1.000  C
  C17      1.0000 0.94510  0.12070  0.48894  Biso   1.000  C
  C18      1.0000 0.17560  0.05490  0.15561  Biso   1.000  C
  H1       1.0000 0.17690  0.20520  0.01940  Biso   1.000  H
  H2       1.0000 0.79480  0.97170  0.35273  Biso   1.000  H
  H3       1.0000 0.02830  0.82310  0.68607  Biso   1.000  H
  H4       1.0000 0.82310  0.79480  0.51940  Biso   1.000  H
  H5       1.0000 0.20520  0.02830  0.85273  Biso   1.000  H
  H6       1.0000 0.97170  0.17690  0.18607  Biso   1.000  H
  H7       1.0000 0.20520  0.17690  0.31393  Biso   1.000  H
  H8       1.0000 0.97170  0.79480  0.98060  Biso   1.000  H
  H9       1.0000 0.82310  0.02830  0.64727  Biso   1.000  H
  H10      1.0000 0.79480  0.82310  0.81393  Biso   1.000  H
  H11      1.0000 0.02830  0.20520  0.48060  Biso   1.000  H
  H12      1.0000 0.17690  0.97170  0.14727  Biso   1.000  H
  C19      1.0000 0.21340  0.66350  0.09989  Biso   1.000  C
  C20      1.0000 0.33650  0.54990  0.43322  Biso   1.000  C
  C21      1.0000 0.45010  0.78660  0.76656  Biso   1.000  C
  C22      1.0000 0.78660  0.33650  0.59989  Biso   1.000  C
  C23      1.0000 0.66350  0.45010  0.93322  Biso   1.000  C
  C24      1.0000 0.54990  0.21340  0.26656  Biso   1.000  C
  C25      1.0000 0.66350  0.21340  0.23344  Biso   1.000  C
  C26      1.0000 0.54990  0.33650  0.90011  Biso   1.000  C
  C27      1.0000 0.78660  0.45010  0.56678  Biso   1.000  C
  C28      1.0000 0.33650  0.78660  0.73344  Biso   1.000  C
  C29      1.0000 0.45010  0.66350  0.40011  Biso   1.000  C
  C30      1.0000 0.21340  0.54990  0.06678  Biso   1.000  C
  H13      1.0000 0.12360  0.66090  0.09400  Biso   1.000  H
  H14      1.0000 0.33910  0.46270  0.42733  Biso   1.000  H
  H15      1.0000 0.53730  0.87640  0.76067  Biso   1.000  H
  H16      1.0000 0.87640  0.33910  0.59400  Biso   1.000  H
  H17      1.0000 0.66090  0.53730  0.92733  Biso   1.000  H
  H18      1.0000 0.46270  0.12360  0.26067  Biso   1.000  H
  H19      1.0000 0.66090  0.12360  0.23933  Biso   1.000  H
  H20      1.0000 0.46270  0.33910  0.90600  Biso   1.000  H
  H21      1.0000 0.87640  0.53730  0.57267  Biso   1.000  H
  H22      1.0000 0.33910  0.87640  0.73933  Biso   1.000  H
  H23      1.0000 0.53730  0.66090  0.40600  Biso   1.000  H
  H24      1.0000 0.12360  0.46270  0.07267  Biso   1.000  H
  H25      1.0000 0.21820  0.64350  0.13870  Biso   1.000  H
  H26      1.0000 0.35650  0.57470  0.47203  Biso   1.000  H
  H27      1.0000 0.42530  0.78180  0.80537  Biso   1.000  H
  H28      1.0000 0.78180  0.35650  0.63870  Biso   1.000  H
  H29      1.0000 0.64350  0.42530  0.97203  Biso   1.000  H
  H30      1.0000 0.57470  0.21820  0.30537  Biso   1.000  H
  H31      1.0000 0.64350  0.21820  0.19463  Biso   1.000  H
  H32      1.0000 0.57470  0.35650  0.86130  Biso   1.000  H
  H33      1.0000 0.78180  0.42530  0.52797  Biso   1.000  H
  H34      1.0000 0.35650  0.78180  0.69463  Biso   1.000  H
  H35      1.0000 0.42530  0.64350  0.36130  Biso   1.000  H
  H36      1.0000 0.21820  0.57470  0.02797  Biso   1.000  H
  C31      1.0000 0.29810  0.11720  0.00990  Biso   1.000  C
  C32      1.0000 0.88280  0.18090  0.34323  Biso   1.000  C
  C33      1.0000 0.81910  0.70190  0.67657  Biso   1.000  C
  C34      1.0000 0.70190  0.88280  0.50990  Biso   1.000  C
  C35      1.0000 0.11720  0.81910  0.84323  Biso   1.000  C
  C36      1.0000 0.18090  0.29810  0.17657  Biso   1.000  C
  C37      1.0000 0.11720  0.29810  0.32343  Biso   1.000  C
  C38      1.0000 0.18090  0.88280  0.99010  Biso   1.000  C
  C39      1.0000 0.70190  0.81910  0.65677  Biso   1.000  C
  C40      1.0000 0.88280  0.70190  0.82343  Biso   1.000  C
  C41      1.0000 0.81910  0.11720  0.49010  Biso   1.000  C
  C42      1.0000 0.29810  0.18090  0.15677  Biso   1.000  C
  H37      1.0000 0.38340  0.20130  0.01640  Biso   1.000  H
  H38      1.0000 0.79870  0.18210  0.34973  Biso   1.000  H
  H39      1.0000 0.81790  0.61660  0.68307  Biso   1.000  H
  H40      1.0000 0.61660  0.79870  0.51640  Biso   1.000  H
  H41      1.0000 0.20130  0.81790  0.84973  Biso   1.000  H
  H42      1.0000 0.18210  0.38340  0.18307  Biso   1.000  H
  H43      1.0000 0.20130  0.38340  0.31693  Biso   1.000  H
  H44      1.0000 0.18210  0.79870  0.98360  Biso   1.000  H
  H45      1.0000 0.61660  0.81790  0.65027  Biso   1.000  H
  H46      1.0000 0.79870  0.61660  0.81693  Biso   1.000  H
  H47      1.0000 0.81790  0.20130  0.48360  Biso   1.000  H
  H48      1.0000 0.38340  0.18210  0.15027  Biso   1.000  H
  O13      1.0000 0.36060  0.90590  0.12104  Biso   1.000  O
  O14      1.0000 0.09410  0.45470  0.45437  Biso   1.000  O
  O15      1.0000 0.54530  0.63940  0.78771  Biso   1.000  O
  O16      1.0000 0.63940  0.09410  0.62104  Biso   1.000  O
  O17      1.0000 0.90590  0.54530  0.95437  Biso   1.000  O
  O18      1.0000 0.45470  0.36060  0.28771  Biso   1.000  O
  O19      1.0000 0.90590  0.36060  0.21229  Biso   1.000  O
  O20      1.0000 0.45470  0.09410  0.87896  Biso   1.000  O
  O21      1.0000 0.63940  0.54530  0.54563  Biso   1.000  O
  O22      1.0000 0.09410  0.63940  0.71229  Biso   1.000  O
  O23      1.0000 0.54530  0.90590  0.37896  Biso   1.000  O
  O24      1.0000 0.36060  0.45470  0.04563  Biso   1.000  O
  O25      1.0000 0.56320  0.15380  0.08170  Biso   1.000  O
  O26      1.0000 0.84620  0.40940  0.41503  Biso   1.000  O
  O27      1.0000 0.59060  0.43680  0.74837  Biso   1.000  O
  O28      1.0000 0.43680  0.84620  0.58170  Biso   1.000  O
  O29      1.0000 0.15380  0.59060  0.91503  Biso   1.000  O
  O30      1.0000 0.40940  0.56320  0.24837  Biso   1.000  O
  O31      1.0000 0.15380  0.56320  0.25163  Biso   1.000  O
  O32      1.0000 0.40940  0.84620  0.91830  Biso   1.000  O
  O33      1.0000 0.43680  0.59060  0.58497  Biso   1.000  O
  O34      1.0000 0.84620  0.43680  0.75163  Biso   1.000  O
  O35      1.0000 0.59060  0.15380  0.41830  Biso   1.000  O
  O36      1.0000 0.56320  0.40940  0.08497  Biso   1.000  O
  H49      1.0000 0.49610  0.07590  0.09230  Biso   1.000  H
  H50      1.0000 0.92410  0.42020  0.42563  Biso   1.000  H
  H51      1.0000 0.57980  0.50390  0.75897  Biso   1.000  H
  H52      1.0000 0.50390  0.92410  0.59230  Biso   1.000  H
  H53      1.0000 0.07590  0.57980  0.92563  Biso   1.000  H
  H54      1.0000 0.42020  0.49610  0.25897  Biso   1.000  H
  H55      1.0000 0.07590  0.49610  0.24103  Biso   1.000  H
  H56      1.0000 0.42020  0.92410  0.90770  Biso   1.000  H
  H57      1.0000 0.50390  0.57980  0.57437  Biso   1.000  H
  H58      1.0000 0.92410  0.50390  0.74103  Biso   1.000  H
  H59      1.0000 0.57980  0.07590  0.40770  Biso   1.000  H
  H60      1.0000 0.49610  0.42020  0.07437  Biso   1.000  H
  H61      1.0000 0.63670  0.16840  0.09830  Biso   1.000  H
  H62      1.0000 0.83160  0.46830  0.43163  Biso   1.000  H
  H63      1.0000 0.53170  0.36330  0.76497  Biso   1.000  H
  H64      1.0000 0.36330  0.83160  0.59830  Biso   1.000  H
  H65      1.0000 0.16840  0.53170  0.93163  Biso   1.000  H
  H66      1.0000 0.46830  0.63670  0.26497  Biso   1.000  H
  H67      1.0000 0.16840  0.63670  0.23503  Biso   1.000  H
  H68      1.0000 0.46830  0.83160  0.90170  Biso   1.000  H
  H69      1.0000 0.36330  0.53170  0.56837  Biso   1.000  H
  H70      1.0000 0.83160  0.36330  0.73503  Biso   1.000  H
  H71      1.0000 0.53170  0.16840  0.40170  Biso   1.000  H
  H72      1.0000 0.63670  0.46830  0.06837  Biso   1.000  H
  C43      1.0000 0.33110  0.80970  0.08775  Biso   1.000  C
  C44      1.0000 0.19030  0.52140  0.42108  Biso   1.000  C
  C45      1.0000 0.47860  0.66890  0.75442  Biso   1.000  C
  C46      1.0000 0.66890  0.19030  0.58775  Biso   1.000  C
  C47      1.0000 0.80970  0.47860  0.92108  Biso   1.000  C
  C48      1.0000 0.52140  0.33110  0.25442  Biso   1.000  C
  C49      1.0000 0.80970  0.33110  0.24558  Biso   1.000  C
  C50      1.0000 0.52140  0.19030  0.91225  Biso   1.000  C
  C51      1.0000 0.66890  0.47860  0.57892  Biso   1.000  C
  C52      1.0000 0.19030  0.66890  0.74558  Biso   1.000  C
  C53      1.0000 0.47860  0.80970  0.41225  Biso   1.000  C
  C54      1.0000 0.33110  0.52140  0.07892  Biso   1.000  C
  C55      1.0000 0.91760  0.00000  0.00000  Biso   1.000  C
  C56      1.0000 0.00000  0.91760  0.33333  Biso   1.000  C
  C57      1.0000 0.08240  0.08240  0.66667  Biso   1.000  C
  C58      1.0000 0.08240  0.00000  0.50000  Biso   1.000  C
  C59      1.0000 0.00000  0.08240  0.83333  Biso   1.000  C
  C60      1.0000 0.91760  0.91760  0.16667  Biso   1.000  C
  C61      1.0000 0.78990  0.87760  0.00919  Biso   1.000  C
  C62      1.0000 0.12240  0.91230  0.34252  Biso   1.000  C
  C63      1.0000 0.08770  0.21010  0.67586  Biso   1.000  C
  C64      1.0000 0.21010  0.12240  0.50919  Biso   1.000  C
  C65      1.0000 0.87760  0.08770  0.84252  Biso   1.000  C
  C66      1.0000 0.91230  0.78990  0.17586  Biso   1.000  C
  C67      1.0000 0.87760  0.78990  0.32414  Biso   1.000  C
  C68      1.0000 0.91230  0.12240  0.99081  Biso   1.000  C
  C69      1.0000 0.21010  0.08770  0.65748  Biso   1.000  C
  C70      1.0000 0.12240  0.21010  0.82414  Biso   1.000  C
  C71      1.0000 0.08770  0.87760  0.49081  Biso   1.000  C
  C72      1.0000 0.78990  0.91230  0.15748  Biso   1.000  C
  H73      1.0000 0.78810  0.79210  0.01600  Biso   1.000  H
  H74      1.0000 0.20790  0.99600  0.34933  Biso   1.000  H
  H75      1.0000 0.00400  0.21190  0.68267  Biso   1.000  H
  H76      1.0000 0.21190  0.20790  0.51600  Biso   1.000  H
  H77      1.0000 0.79210  0.00400  0.84933  Biso   1.000  H
  H78      1.0000 0.99600  0.78810  0.18267  Biso   1.000  H
  H79      1.0000 0.79210  0.78810  0.31733  Biso   1.000  H
  H80      1.0000 0.99600  0.20790  0.98400  Biso   1.000  H
  H81      1.0000 0.21190  0.00400  0.65067  Biso   1.000  H
  H82      1.0000 0.20790  0.21190  0.81733  Biso   1.000  H
  H83      1.0000 0.00400  0.79210  0.48400  Biso   1.000  H
  H84      1.0000 0.78810  0.99600  0.15067  Biso   1.000  H
  C73      1.0000 0.66670  0.88100  0.00834  Biso   1.000  C
  C74      1.0000 0.11900  0.78570  0.34167  Biso   1.000  C
  C75      1.0000 0.21430  0.33330  0.67501  Biso   1.000  C
  C76      1.0000 0.33330  0.11900  0.50834  Biso   1.000  C
  C77      1.0000 0.88100  0.21430  0.84167  Biso   1.000  C
  C78      1.0000 0.78570  0.66670  0.17501  Biso   1.000  C
  C79      1.0000 0.88100  0.66670  0.32499  Biso   1.000  C
  C80      1.0000 0.78570  0.11900  0.99166  Biso   1.000  C
  C81      1.0000 0.33330  0.21430  0.65833  Biso   1.000  C
  C82      1.0000 0.11900  0.33330  0.82499  Biso   1.000  C
  C83      1.0000 0.21430  0.88100  0.49166  Biso   1.000  C
  C84      1.0000 0.66670  0.78570  0.15833  Biso   1.000  C
  H85      1.0000 0.58120  0.79660  0.01380  Biso   1.000  H
  H86      1.0000 0.20340  0.78460  0.34713  Biso   1.000  H
  H87      1.0000 0.21540  0.41880  0.68047  Biso   1.000  H
  H88      1.0000 0.41880  0.20340  0.51380  Biso   1.000  H
  H89      1.0000 0.79660  0.21540  0.84713  Biso   1.000  H
  H90      1.0000 0.78460  0.58120  0.18047  Biso   1.000  H
  H91      1.0000 0.79660  0.58120  0.31953  Biso   1.000  H
  H92      1.0000 0.78460  0.20340  0.98620  Biso   1.000  H
  H93      1.0000 0.41880  0.21540  0.65287  Biso   1.000  H
  H94      1.0000 0.20340  0.41880  0.81953  Biso   1.000  H
  H95      1.0000 0.21540  0.79660  0.48620  Biso   1.000  H
  H96      1.0000 0.58120  0.78460  0.15287  Biso   1.000  H
  O37      1.0000 0.85060  0.30440  0.10329  Biso   1.000  O
  O38      1.0000 0.69560  0.54620  0.43662  Biso   1.000  O
  O39      1.0000 0.45380  0.14940  0.76996  Biso   1.000  O
  O40      1.0000 0.14940  0.69560  0.60329  Biso   1.000  O
  O41      1.0000 0.30440  0.45380  0.93662  Biso   1.000  O
  O42      1.0000 0.54620  0.85060  0.26996  Biso   1.000  O
  O43      1.0000 0.30440  0.85060  0.23004  Biso   1.000  O
  O44      1.0000 0.54620  0.69560  0.89671  Biso   1.000  O
  O45      1.0000 0.14940  0.45380  0.56338  Biso   1.000  O
  O46      1.0000 0.69560  0.14940  0.73004  Biso   1.000  O
  O47      1.0000 0.45380  0.30440  0.39671  Biso   1.000  O
  O48      1.0000 0.85060  0.54620  0.06338  Biso   1.000  O
  H97      1.0000 0.87220  0.29930  0.13600  Biso   1.000  H
  H98      1.0000 0.70070  0.57290  0.46933  Biso   1.000  H
  H99      1.0000 0.42710  0.12780  0.80267  Biso   1.000  H
  H100     1.0000 0.12780  0.70070  0.63600  Biso   1.000  H
  H101     1.0000 0.29930  0.42710  0.96933  Biso   1.000  H
  H102     1.0000 0.57290  0.87220  0.30267  Biso   1.000  H
  H103     1.0000 0.29930  0.87220  0.19733  Biso   1.000  H
  H104     1.0000 0.57290  0.70070  0.86400  Biso   1.000  H
  H105     1.0000 0.12780  0.42710  0.53067  Biso   1.000  H
  H106     1.0000 0.70070  0.12780  0.69733  Biso   1.000  H
  H107     1.0000 0.42710  0.29930  0.36400  Biso   1.000  H
  H108     1.0000 0.87220  0.57290  0.03067  Biso   1.000  H
  H109     1.0000 0.80490  0.34750  0.10330  Biso   1.000  H
  H110     1.0000 0.65250  0.45740  0.43663  Biso   1.000  H
  H111     1.0000 0.54260  0.19510  0.76997  Biso   1.000  H
  H112     1.0000 0.19510  0.65250  0.60330  Biso   1.000  H
  H113     1.0000 0.34750  0.54260  0.93663  Biso   1.000  H
  H114     1.0000 0.45740  0.80490  0.26997  Biso   1.000  H
  H115     1.0000 0.34750  0.80490  0.23003  Biso   1.000  H
  H116     1.0000 0.45740  0.65250  0.89670  Biso   1.000  H
  H117     1.0000 0.19510  0.54260  0.56337  Biso   1.000  H
  H118     1.0000 0.65250  0.19510  0.73003  Biso   1.000  H
  H119     1.0000 0.54260  0.34750  0.39670  Biso   1.000  H
  H120     1.0000 0.80490  0.45740  0.06337  Biso   1.000  H
