data_image0
_cell_length_a       11.0528
_cell_length_b       11.0528
_cell_length_c       24.698
_cell_angle_alpha    90
_cell_angle_beta     90
_cell_angle_gamma    120

_symmetry_space_group_name_H-M    "P 1"
_symmetry_int_tables_number       1

loop_
  _symmetry_equiv_pos_as_xyz
  'x, y, z'

loop_
  _atom_site_label
  _atom_site_occupancy
  _atom_site_fract_x
  _atom_site_fract_y
  _atom_site_fract_z
  _atom_site_thermal_displace_type
  _atom_site_B_iso_or_equiv
  _atom_site_type_symbol
  Cu1      1.0000 0.00000  0.48395  0.33330  Biso   1.000  Cu
  Cu2      1.0000 0.51605  0.51605  0.66663  Biso   1.000  Cu
  Cu3      1.0000 0.48395  0.00000  0.99997  Biso   1.000  Cu
  Cu4      1.0000 0.00000  0.51605  0.83330  Biso   1.000  Cu
  Cu5      1.0000 0.48395  0.48395  0.16663  Biso   1.000  Cu
  Cu6      1.0000 0.51605  0.00000  0.49997  Biso   1.000  Cu
  C1       1.0000 0.00000  0.04980  0.33330  Biso   1.000  C
  C2       1.0000 0.95020  0.95020  0.66663  Biso   1.000  C
  C3       1.0000 0.04980  0.00000  0.99997  Biso   1.000  C
  C4       1.0000 0.00000  0.95020  0.83330  Biso   1.000  C
  C5       1.0000 0.04980  0.04980  0.16663  Biso   1.000  C
  C6       1.0000 0.95020  0.00000  0.49997  Biso   1.000  C
  O1       1.0000 0.82601  0.39214  0.29128  Biso   1.000  O
  O2       1.0000 0.60786  0.43387  0.62461  Biso   1.000  O
  O3       1.0000 0.56613  0.17399  0.95795  Biso   1.000  O
  O4       1.0000 0.17399  0.60786  0.79128  Biso   1.000  O
  O5       1.0000 0.39214  0.56613  0.12461  Biso   1.000  O
  O6       1.0000 0.43387  0.82601  0.45795  Biso   1.000  O
  O7       1.0000 0.39214  0.82601  0.04205  Biso   1.000  O
  O8       1.0000 0.43387  0.60786  0.70872  Biso   1.000  O
  O9       1.0000 0.17399  0.56613  0.37539  Biso   1.000  O
  O10      1.0000 0.60786  0.17399  0.54205  Biso   1.000  O
  O11      1.0000 0.56613  0.39214  0.20872  Biso   1.000  O
  O12      1.0000 0.82601  0.43387  0.87539  Biso   1.000  O
  N1       1.0000 0.00000  0.66380  0.33330  Biso   1.000  N
  N2       1.0000 0.33620  0.33620  0.66663  Biso   1.000  N
  N3       1.0000 0.66380  0.00000  0.99997  Biso   1.000  N
  N4       1.0000 0.00000  0.33620  0.83330  Biso   1.000  N
  N5       1.0000 0.66380  0.66380  0.16663  Biso   1.000  N
  N6       1.0000 0.33620  0.00000  0.49997  Biso   1.000  N
  N7       1.0000 0.00000  0.30240  0.33330  Biso   1.000  N
  N8       1.0000 0.69760  0.69760  0.66663  Biso   1.000  N
  N9       1.0000 0.30240  0.00000  0.99997  Biso   1.000  N
  N10      1.0000 0.00000  0.69760  0.83330  Biso   1.000  N
  N11      1.0000 0.30240  0.30240  0.16663  Biso   1.000  N
  N12      1.0000 0.69760  0.00000  0.49997  Biso   1.000  N
  C7       1.0000 0.66380  0.21320  0.23320  Biso   1.000  C
  C8       1.0000 0.78680  0.45060  0.56653  Biso   1.000  C
  C9       1.0000 0.54940  0.33620  0.89987  Biso   1.000  C
  C10      1.0000 0.33620  0.78680  0.73320  Biso   1.000  C
  C11      1.0000 0.21320  0.54940  0.06653  Biso   1.000  C
  C12      1.0000 0.45060  0.66380  0.39987  Biso   1.000  C
  C13      1.0000 0.21320  0.66380  0.10013  Biso   1.000  C
  C14      1.0000 0.45060  0.78680  0.76680  Biso   1.000  C
  C15      1.0000 0.33620  0.54940  0.43347  Biso   1.000  C
  C16      1.0000 0.78680  0.33620  0.60013  Biso   1.000  C
  C17      1.0000 0.54940  0.21320  0.26680  Biso   1.000  C
  C18      1.0000 0.66380  0.45060  0.93347  Biso   1.000  C
  H1       1.0000 0.64380  0.21840  0.19450  Biso   1.000  H
  H2       1.0000 0.78160  0.42540  0.52783  Biso   1.000  H
  H3       1.0000 0.57460  0.35620  0.86117  Biso   1.000  H
  H4       1.0000 0.35620  0.78160  0.69450  Biso   1.000  H
  H5       1.0000 0.21840  0.57460  0.02783  Biso   1.000  H
  H6       1.0000 0.42540  0.64380  0.36117  Biso   1.000  H
  H7       1.0000 0.21840  0.64380  0.13883  Biso   1.000  H
  H8       1.0000 0.42540  0.78160  0.80550  Biso   1.000  H
  H9       1.0000 0.35620  0.57460  0.47217  Biso   1.000  H
  H10      1.0000 0.78160  0.35620  0.63883  Biso   1.000  H
  H11      1.0000 0.57460  0.21840  0.30550  Biso   1.000  H
  H12      1.0000 0.64380  0.42540  0.97217  Biso   1.000  H
  H13      1.0000 0.66150  0.12340  0.23890  Biso   1.000  H
  H14      1.0000 0.87660  0.53810  0.57223  Biso   1.000  H
  H15      1.0000 0.46190  0.33850  0.90557  Biso   1.000  H
  H16      1.0000 0.33850  0.87660  0.73890  Biso   1.000  H
  H17      1.0000 0.12340  0.46190  0.07223  Biso   1.000  H
  H18      1.0000 0.53810  0.66150  0.40557  Biso   1.000  H
  H19      1.0000 0.12340  0.66150  0.09443  Biso   1.000  H
  H20      1.0000 0.53810  0.87660  0.76110  Biso   1.000  H
  H21      1.0000 0.33850  0.46190  0.42777  Biso   1.000  H
  H22      1.0000 0.87660  0.33850  0.59443  Biso   1.000  H
  H23      1.0000 0.46190  0.12340  0.26110  Biso   1.000  H
  H24      1.0000 0.66150  0.53810  0.92777  Biso   1.000  H
  C19      1.0000 0.12120  0.17590  0.32231  Biso   1.000  C
  C20      1.0000 0.82410  0.94530  0.65564  Biso   1.000  C
  C21      1.0000 0.05470  0.87880  0.98898  Biso   1.000  C
  C22      1.0000 0.87880  0.82410  0.82231  Biso   1.000  C
  C23      1.0000 0.17590  0.05470  0.15564  Biso   1.000  C
  C24      1.0000 0.94530  0.12120  0.48898  Biso   1.000  C
  C25      1.0000 0.17590  0.12120  0.01102  Biso   1.000  C
  C26      1.0000 0.94530  0.82410  0.67769  Biso   1.000  C
  C27      1.0000 0.87880  0.05470  0.34436  Biso   1.000  C
  C28      1.0000 0.82410  0.87880  0.51102  Biso   1.000  C
  C29      1.0000 0.05470  0.17590  0.17769  Biso   1.000  C
  C30      1.0000 0.12120  0.94530  0.84436  Biso   1.000  C
  H25      1.0000 0.20580  0.17730  0.31410  Biso   1.000  H
  H26      1.0000 0.82270  0.02850  0.64743  Biso   1.000  H
  H27      1.0000 0.97150  0.79420  0.98077  Biso   1.000  H
  H28      1.0000 0.79420  0.82270  0.81410  Biso   1.000  H
  H29      1.0000 0.17730  0.97150  0.14743  Biso   1.000  H
  H30      1.0000 0.02850  0.20580  0.48077  Biso   1.000  H
  H31      1.0000 0.17730  0.20580  0.01923  Biso   1.000  H
  H32      1.0000 0.02850  0.82270  0.68590  Biso   1.000  H
  H33      1.0000 0.79420  0.97150  0.35257  Biso   1.000  H
  H34      1.0000 0.82270  0.79420  0.51923  Biso   1.000  H
  H35      1.0000 0.97150  0.17730  0.18590  Biso   1.000  H
  H36      1.0000 0.20580  0.02850  0.85257  Biso   1.000  H
  C31      1.0000 0.11730  0.29890  0.32337  Biso   1.000  C
  C32      1.0000 0.70110  0.81840  0.65670  Biso   1.000  C
  C33      1.0000 0.18160  0.88270  0.99004  Biso   1.000  C
  C34      1.0000 0.88270  0.70110  0.82337  Biso   1.000  C
  C35      1.0000 0.29890  0.18160  0.15670  Biso   1.000  C
  C36      1.0000 0.81840  0.11730  0.49004  Biso   1.000  C
  C37      1.0000 0.29890  0.11730  0.00996  Biso   1.000  C
  C38      1.0000 0.81840  0.70110  0.67663  Biso   1.000  C
  C39      1.0000 0.88270  0.18160  0.34330  Biso   1.000  C
  C40      1.0000 0.70110  0.88270  0.50996  Biso   1.000  C
  C41      1.0000 0.18160  0.29890  0.17663  Biso   1.000  C
  C42      1.0000 0.11730  0.81840  0.84330  Biso   1.000  C
  H37      1.0000 0.20120  0.38440  0.31680  Biso   1.000  H
  H38      1.0000 0.61560  0.81680  0.65013  Biso   1.000  H
  H39      1.0000 0.18320  0.79880  0.98347  Biso   1.000  H
  H40      1.0000 0.79880  0.61560  0.81680  Biso   1.000  H
  H41      1.0000 0.38440  0.18320  0.15013  Biso   1.000  H
  H42      1.0000 0.81680  0.20120  0.48347  Biso   1.000  H
  H43      1.0000 0.38440  0.20120  0.01653  Biso   1.000  H
  H44      1.0000 0.81680  0.61560  0.68320  Biso   1.000  H
  H45      1.0000 0.79880  0.18320  0.34987  Biso   1.000  H
  H46      1.0000 0.61560  0.79880  0.51653  Biso   1.000  H
  H47      1.0000 0.18320  0.38440  0.18320  Biso   1.000  H
  H48      1.0000 0.20120  0.81680  0.84987  Biso   1.000  H
  O13      1.0000 0.90586  0.36030  0.21247  Biso   1.000  O
  O14      1.0000 0.63970  0.54556  0.54580  Biso   1.000  O
  O15      1.0000 0.45444  0.09414  0.87914  Biso   1.000  O
  O16      1.0000 0.09414  0.63970  0.71247  Biso   1.000  O
  O17      1.0000 0.36030  0.45444  0.04580  Biso   1.000  O
  O18      1.0000 0.54556  0.90586  0.37914  Biso   1.000  O
  O19      1.0000 0.36030  0.90586  0.12086  Biso   1.000  O
  O20      1.0000 0.54556  0.63970  0.78753  Biso   1.000  O
  O21      1.0000 0.09414  0.45444  0.45420  Biso   1.000  O
  O22      1.0000 0.63970  0.09414  0.62086  Biso   1.000  O
  O23      1.0000 0.45444  0.36030  0.28753  Biso   1.000  O
  O24      1.0000 0.90586  0.54556  0.95420  Biso   1.000  O
  O25      1.0000 0.84647  0.40948  0.41498  Biso   1.000  O
  O26      1.0000 0.59052  0.43699  0.74831  Biso   1.000  O
  O27      1.0000 0.56301  0.15353  0.08165  Biso   1.000  O
  O28      1.0000 0.15353  0.59052  0.91498  Biso   1.000  O
  O29      1.0000 0.40948  0.56301  0.24831  Biso   1.000  O
  O30      1.0000 0.43699  0.84647  0.58165  Biso   1.000  O
  O31      1.0000 0.40948  0.84647  0.91835  Biso   1.000  O
  O32      1.0000 0.43699  0.59052  0.58502  Biso   1.000  O
  O33      1.0000 0.15353  0.56301  0.25169  Biso   1.000  O
  O34      1.0000 0.59052  0.15353  0.41835  Biso   1.000  O
  O35      1.0000 0.56301  0.40948  0.08502  Biso   1.000  O
  O36      1.0000 0.84647  0.43699  0.75169  Biso   1.000  O
  H49      1.0000 0.91580  0.42680  0.43500  Biso   1.000  H
  H50      1.0000 0.57320  0.48900  0.76833  Biso   1.000  H
  H51      1.0000 0.51100  0.08420  0.10167  Biso   1.000  H
  H52      1.0000 0.08420  0.57320  0.93500  Biso   1.000  H
  H53      1.0000 0.42680  0.51100  0.26833  Biso   1.000  H
  H54      1.0000 0.48900  0.91580  0.60167  Biso   1.000  H
  H55      1.0000 0.42680  0.91580  0.89833  Biso   1.000  H
  H56      1.0000 0.48900  0.57320  0.56500  Biso   1.000  H
  H57      1.0000 0.08420  0.51100  0.23167  Biso   1.000  H
  H58      1.0000 0.57320  0.08420  0.39833  Biso   1.000  H
  H59      1.0000 0.51100  0.42680  0.06500  Biso   1.000  H
  H60      1.0000 0.91580  0.48900  0.73167  Biso   1.000  H
  H61      1.0000 0.80810  0.45410  0.42710  Biso   1.000  H
  H62      1.0000 0.54590  0.35400  0.76043  Biso   1.000  H
  H63      1.0000 0.64600  0.19190  0.09377  Biso   1.000  H
  H64      1.0000 0.19190  0.54590  0.92710  Biso   1.000  H
  H65      1.0000 0.45410  0.64600  0.26043  Biso   1.000  H
  H66      1.0000 0.35400  0.80810  0.59377  Biso   1.000  H
  H67      1.0000 0.45410  0.80810  0.90623  Biso   1.000  H
  H68      1.0000 0.35400  0.54590  0.57290  Biso   1.000  H
  H69      1.0000 0.19190  0.64600  0.23957  Biso   1.000  H
  H70      1.0000 0.54590  0.19190  0.40623  Biso   1.000  H
  H71      1.0000 0.64600  0.45410  0.07290  Biso   1.000  H
  H72      1.0000 0.80810  0.35400  0.73957  Biso   1.000  H
  C43      1.0000 0.81000  0.33180  0.24576  Biso   1.000  C
  C44      1.0000 0.66820  0.47820  0.57909  Biso   1.000  C
  C45      1.0000 0.52180  0.19000  0.91243  Biso   1.000  C
  C46      1.0000 0.19000  0.66820  0.74576  Biso   1.000  C
  C47      1.0000 0.33180  0.52180  0.07909  Biso   1.000  C
  C48      1.0000 0.47820  0.81000  0.41243  Biso   1.000  C
  C49      1.0000 0.33180  0.81000  0.08757  Biso   1.000  C
  C50      1.0000 0.47820  0.66820  0.75424  Biso   1.000  C
  C51      1.0000 0.19000  0.52180  0.42091  Biso   1.000  C
  C52      1.0000 0.66820  0.19000  0.58757  Biso   1.000  C
  C53      1.0000 0.52180  0.33180  0.25424  Biso   1.000  C
  C54      1.0000 0.81000  0.47820  0.92091  Biso   1.000  C
  C55      1.0000 0.00000  0.91700  0.33330  Biso   1.000  C
  C56      1.0000 0.08300  0.08300  0.66663  Biso   1.000  C
  C57      1.0000 0.91700  0.00000  0.99997  Biso   1.000  C
  C58      1.0000 0.00000  0.08300  0.83330  Biso   1.000  C
  C59      1.0000 0.91700  0.91700  0.16663  Biso   1.000  C
  C60      1.0000 0.08300  0.00000  0.49997  Biso   1.000  C
  C61      1.0000 0.87790  0.79020  0.32431  Biso   1.000  C
  C62      1.0000 0.20980  0.08770  0.65764  Biso   1.000  C
  C63      1.0000 0.91230  0.12210  0.99098  Biso   1.000  C
  C64      1.0000 0.12210  0.20980  0.82431  Biso   1.000  C
  C65      1.0000 0.79020  0.91230  0.15764  Biso   1.000  C
  C66      1.0000 0.08770  0.87790  0.49098  Biso   1.000  C
  C67      1.0000 0.79020  0.87790  0.00902  Biso   1.000  C
  C68      1.0000 0.08770  0.20980  0.67569  Biso   1.000  C
  C69      1.0000 0.12210  0.91230  0.34236  Biso   1.000  C
  C70      1.0000 0.20980  0.12210  0.50902  Biso   1.000  C
  C71      1.0000 0.91230  0.79020  0.17569  Biso   1.000  C
  C72      1.0000 0.87790  0.08770  0.84236  Biso   1.000  C
  H73      1.0000 0.79240  0.78840  0.31770  Biso   1.000  H
  H74      1.0000 0.21160  0.00400  0.65103  Biso   1.000  H
  H75      1.0000 0.99600  0.20760  0.98437  Biso   1.000  H
  H76      1.0000 0.20760  0.21160  0.81770  Biso   1.000  H
  H77      1.0000 0.78840  0.99600  0.15103  Biso   1.000  H
  H78      1.0000 0.00400  0.79240  0.48437  Biso   1.000  H
  H79      1.0000 0.78840  0.79240  0.01563  Biso   1.000  H
  H80      1.0000 0.00400  0.21160  0.68230  Biso   1.000  H
  H81      1.0000 0.20760  0.99600  0.34897  Biso   1.000  H
  H82      1.0000 0.21160  0.20760  0.51563  Biso   1.000  H
  H83      1.0000 0.99600  0.78840  0.18230  Biso   1.000  H
  H84      1.0000 0.79240  0.00400  0.84897  Biso   1.000  H
  C73      1.0000 0.88170  0.66690  0.32499  Biso   1.000  C
  C74      1.0000 0.33310  0.21480  0.65832  Biso   1.000  C
  C75      1.0000 0.78520  0.11830  0.99166  Biso   1.000  C
  C76      1.0000 0.11830  0.33310  0.82499  Biso   1.000  C
  C77      1.0000 0.66690  0.78520  0.15832  Biso   1.000  C
  C78      1.0000 0.21480  0.88170  0.49166  Biso   1.000  C
  C79      1.0000 0.66690  0.88170  0.00834  Biso   1.000  C
  C80      1.0000 0.21480  0.33310  0.67501  Biso   1.000  C
  C81      1.0000 0.11830  0.78520  0.34168  Biso   1.000  C
  C82      1.0000 0.33310  0.11830  0.50834  Biso   1.000  C
  C83      1.0000 0.78520  0.66690  0.17501  Biso   1.000  C
  C84      1.0000 0.88170  0.21480  0.84168  Biso   1.000  C
  H85      1.0000 0.79730  0.58130  0.31930  Biso   1.000  H
  H86      1.0000 0.41870  0.21600  0.65263  Biso   1.000  H
  H87      1.0000 0.78400  0.20270  0.98597  Biso   1.000  H
  H88      1.0000 0.20270  0.41870  0.81930  Biso   1.000  H
  H89      1.0000 0.58130  0.78400  0.15263  Biso   1.000  H
  H90      1.0000 0.21600  0.79730  0.48597  Biso   1.000  H
  H91      1.0000 0.58130  0.79730  0.01403  Biso   1.000  H
  H92      1.0000 0.21600  0.41870  0.68070  Biso   1.000  H
  H93      1.0000 0.20270  0.78400  0.34737  Biso   1.000  H
  H94      1.0000 0.41870  0.20270  0.51403  Biso   1.000  H
  H95      1.0000 0.78400  0.58130  0.18070  Biso   1.000  H
  H96      1.0000 0.79730  0.21600  0.84737  Biso   1.000  H
  O37      1.0000 0.85010  0.30520  0.10348  Biso   1.000  O
  O38      1.0000 0.69480  0.54490  0.43681  Biso   1.000  O
  O39      1.0000 0.45510  0.14990  0.77015  Biso   1.000  O
  O40      1.0000 0.14990  0.69480  0.60348  Biso   1.000  O
  O41      1.0000 0.30520  0.45510  0.93681  Biso   1.000  O
  O42      1.0000 0.54490  0.85010  0.27015  Biso   1.000  O
  O43      1.0000 0.30520  0.85010  0.22985  Biso   1.000  O
  O44      1.0000 0.54490  0.69480  0.89652  Biso   1.000  O
  O45      1.0000 0.14990  0.45510  0.56319  Biso   1.000  O
  O46      1.0000 0.69480  0.14990  0.72985  Biso   1.000  O
  O47      1.0000 0.45510  0.30520  0.39652  Biso   1.000  O
  O48      1.0000 0.85010  0.54490  0.06319  Biso   1.000  O
  H97      1.0000 0.86000  0.33430  0.13590  Biso   1.000  H
  H98      1.0000 0.66570  0.52570  0.46923  Biso   1.000  H
  H99      1.0000 0.47430  0.14000  0.80257  Biso   1.000  H
  H100     1.0000 0.14000  0.66570  0.63590  Biso   1.000  H
  H101     1.0000 0.33430  0.47430  0.96923  Biso   1.000  H
  H102     1.0000 0.52570  0.86000  0.30257  Biso   1.000  H
  H103     1.0000 0.33430  0.86000  0.19743  Biso   1.000  H
  H104     1.0000 0.52570  0.66570  0.86410  Biso   1.000  H
  H105     1.0000 0.14000  0.47430  0.53077  Biso   1.000  H
  H106     1.0000 0.66570  0.14000  0.69743  Biso   1.000  H
  H107     1.0000 0.47430  0.33430  0.36410  Biso   1.000  H
  H108     1.0000 0.86000  0.52570  0.03077  Biso   1.000  H
  H109     1.0000 0.85060  0.36660  0.08260  Biso   1.000  H
  H110     1.0000 0.63340  0.48400  0.41593  Biso   1.000  H
  H111     1.0000 0.51600  0.14940  0.74927  Biso   1.000  H
  H112     1.0000 0.14940  0.63340  0.58260  Biso   1.000  H
  H113     1.0000 0.36660  0.51600  0.91593  Biso   1.000  H
  H114     1.0000 0.48400  0.85060  0.24927  Biso   1.000  H
  H115     1.0000 0.36660  0.85060  0.25073  Biso   1.000  H
  H116     1.0000 0.48400  0.63340  0.91740  Biso   1.000  H
  H117     1.0000 0.14940  0.51600  0.58407  Biso   1.000  H
  H118     1.0000 0.63340  0.14940  0.75073  Biso   1.000  H
  H119     1.0000 0.51600  0.36660  0.41740  Biso   1.000  H
  H120     1.0000 0.85060  0.48400  0.08407  Biso   1.000  H
