data_image0
_cell_length_a       11.0569
_cell_length_b       11.0569
_cell_length_c       24.655
_cell_angle_alpha    90
_cell_angle_beta     90
_cell_angle_gamma    120

_symmetry_space_group_name_H-M    "P 1"
_symmetry_int_tables_number       1

loop_
  _symmetry_equiv_pos_as_xyz
  'x, y, z'

loop_
  _atom_site_label
  _atom_site_occupancy
  _atom_site_fract_x
  _atom_site_fract_y
  _atom_site_fract_z
  _atom_site_thermal_displace_type
  _atom_site_B_iso_or_equiv
  _atom_site_type_symbol
  Cu1      1.0000 0.48395  0.00000  0.00000  Biso   1.000  Cu
  Cu2      1.0000 0.00000  0.48395  0.33333  Biso   1.000  Cu
  Cu3      1.0000 0.51605  0.51605  0.66667  Biso   1.000  Cu
  Cu4      1.0000 0.51605  0.00000  0.50000  Biso   1.000  Cu
  Cu5      1.0000 0.00000  0.51605  0.83333  Biso   1.000  Cu
  Cu6      1.0000 0.48395  0.48395  0.16667  Biso   1.000  Cu
  O1       1.0000 0.39221  0.82588  0.04205  Biso   1.000  O
  O2       1.0000 0.17412  0.56633  0.37538  Biso   1.000  O
  O3       1.0000 0.43367  0.60779  0.70872  Biso   1.000  O
  O4       1.0000 0.60779  0.17412  0.54205  Biso   1.000  O
  O5       1.0000 0.82588  0.43367  0.87538  Biso   1.000  O
  O6       1.0000 0.56633  0.39221  0.20872  Biso   1.000  O
  O7       1.0000 0.82588  0.39221  0.29128  Biso   1.000  O
  O8       1.0000 0.56633  0.17412  0.95795  Biso   1.000  O
  O9       1.0000 0.60779  0.43367  0.62462  Biso   1.000  O
  O10      1.0000 0.17412  0.60779  0.79128  Biso   1.000  O
  O11      1.0000 0.43367  0.82588  0.45795  Biso   1.000  O
  O12      1.0000 0.39221  0.56633  0.12462  Biso   1.000  O
  C1       1.0000 0.04970  0.00000  0.00000  Biso   1.000  C
  C2       1.0000 0.00000  0.04970  0.33333  Biso   1.000  C
  C3       1.0000 0.95030  0.95030  0.66667  Biso   1.000  C
  C4       1.0000 0.95030  0.00000  0.50000  Biso   1.000  C
  C5       1.0000 0.00000  0.95030  0.83333  Biso   1.000  C
  C6       1.0000 0.04970  0.04970  0.16667  Biso   1.000  C
  N1       1.0000 0.30270  0.00000  0.00000  Biso   1.000  N
  N2       1.0000 0.00000  0.30270  0.33333  Biso   1.000  N
  N3       1.0000 0.69730  0.69730  0.66667  Biso   1.000  N
  N4       1.0000 0.69730  0.00000  0.50000  Biso   1.000  N
  N5       1.0000 0.00000  0.69730  0.83333  Biso   1.000  N
  N6       1.0000 0.30270  0.30270  0.16667  Biso   1.000  N
  N7       1.0000 0.66340  0.00000  0.00000  Biso   1.000  N
  N8       1.0000 0.00000  0.66340  0.33333  Biso   1.000  N
  N9       1.0000 0.33660  0.33660  0.66667  Biso   1.000  N
  N10      1.0000 0.33660  0.00000  0.50000  Biso   1.000  N
  N11      1.0000 0.00000  0.33660  0.83333  Biso   1.000  N
  N12      1.0000 0.66340  0.66340  0.16667  Biso   1.000  N
  C7       1.0000 0.17570  0.12110  0.01112  Biso   1.000  C
  C8       1.0000 0.87890  0.05460  0.34445  Biso   1.000  C
  C9       1.0000 0.94540  0.82430  0.67779  Biso   1.000  C
  C10      1.0000 0.82430  0.87890  0.51112  Biso   1.000  C
  C11      1.0000 0.12110  0.94540  0.84445  Biso   1.000  C
  C12      1.0000 0.05460  0.17570  0.17779  Biso   1.000  C
  C13      1.0000 0.12110  0.17570  0.32221  Biso   1.000  C
  C14      1.0000 0.05460  0.87890  0.98888  Biso   1.000  C
  C15      1.0000 0.82430  0.94540  0.65555  Biso   1.000  C
  C16      1.0000 0.87890  0.82430  0.82221  Biso   1.000  C
  C17      1.0000 0.94540  0.12110  0.48888  Biso   1.000  C
  C18      1.0000 0.17570  0.05460  0.15555  Biso   1.000  C
  H1       1.0000 0.17720  0.20570  0.01950  Biso   1.000  H
  H2       1.0000 0.79430  0.97150  0.35283  Biso   1.000  H
  H3       1.0000 0.02850  0.82280  0.68617  Biso   1.000  H
  H4       1.0000 0.82280  0.79430  0.51950  Biso   1.000  H
  H5       1.0000 0.20570  0.02850  0.85283  Biso   1.000  H
  H6       1.0000 0.97150  0.17720  0.18617  Biso   1.000  H
  H7       1.0000 0.20570  0.17720  0.31383  Biso   1.000  H
  H8       1.0000 0.97150  0.79430  0.98050  Biso   1.000  H
  H9       1.0000 0.82280  0.02850  0.64717  Biso   1.000  H
  H10      1.0000 0.79430  0.82280  0.81383  Biso   1.000  H
  H11      1.0000 0.02850  0.20570  0.48050  Biso   1.000  H
  H12      1.0000 0.17720  0.97150  0.14717  Biso   1.000  H
  C19      1.0000 0.21360  0.66370  0.10006  Biso   1.000  C
  C20      1.0000 0.33630  0.54990  0.43339  Biso   1.000  C
  C21      1.0000 0.45010  0.78640  0.76673  Biso   1.000  C
  C22      1.0000 0.78640  0.33630  0.60006  Biso   1.000  C
  C23      1.0000 0.66370  0.45010  0.93339  Biso   1.000  C
  C24      1.0000 0.54990  0.21360  0.26673  Biso   1.000  C
  C25      1.0000 0.66370  0.21360  0.23327  Biso   1.000  C
  C26      1.0000 0.54990  0.33630  0.89994  Biso   1.000  C
  C27      1.0000 0.78640  0.45010  0.56661  Biso   1.000  C
  C28      1.0000 0.33630  0.78640  0.73327  Biso   1.000  C
  C29      1.0000 0.45010  0.66370  0.39994  Biso   1.000  C
  C30      1.0000 0.21360  0.54990  0.06661  Biso   1.000  C
  H13      1.0000 0.21890  0.64380  0.13890  Biso   1.000  H
  H14      1.0000 0.35620  0.57510  0.47223  Biso   1.000  H
  H15      1.0000 0.42490  0.78110  0.80557  Biso   1.000  H
  H16      1.0000 0.78110  0.35620  0.63890  Biso   1.000  H
  H17      1.0000 0.64380  0.42490  0.97223  Biso   1.000  H
  H18      1.0000 0.57510  0.21890  0.30557  Biso   1.000  H
  H19      1.0000 0.64380  0.21890  0.19443  Biso   1.000  H
  H20      1.0000 0.57510  0.35620  0.86110  Biso   1.000  H
  H21      1.0000 0.78110  0.42490  0.52777  Biso   1.000  H
  H22      1.0000 0.35620  0.78110  0.69443  Biso   1.000  H
  H23      1.0000 0.42490  0.64380  0.36110  Biso   1.000  H
  H24      1.0000 0.21890  0.57510  0.02777  Biso   1.000  H
  H25      1.0000 0.12380  0.66130  0.09430  Biso   1.000  H
  H26      1.0000 0.33870  0.46250  0.42763  Biso   1.000  H
  H27      1.0000 0.53750  0.87620  0.76097  Biso   1.000  H
  H28      1.0000 0.87620  0.33870  0.59430  Biso   1.000  H
  H29      1.0000 0.66130  0.53750  0.92763  Biso   1.000  H
  H30      1.0000 0.46250  0.12380  0.26097  Biso   1.000  H
  H31      1.0000 0.66130  0.12380  0.23903  Biso   1.000  H
  H32      1.0000 0.46250  0.33870  0.90570  Biso   1.000  H
  H33      1.0000 0.87620  0.53750  0.57237  Biso   1.000  H
  H34      1.0000 0.33870  0.87620  0.73903  Biso   1.000  H
  H35      1.0000 0.53750  0.66130  0.40570  Biso   1.000  H
  H36      1.0000 0.12380  0.46250  0.07237  Biso   1.000  H
  C31      1.0000 0.29850  0.11690  0.00985  Biso   1.000  C
  C32      1.0000 0.88310  0.18160  0.34318  Biso   1.000  C
  C33      1.0000 0.81840  0.70150  0.67652  Biso   1.000  C
  C34      1.0000 0.70150  0.88310  0.50985  Biso   1.000  C
  C35      1.0000 0.11690  0.81840  0.84318  Biso   1.000  C
  C36      1.0000 0.18160  0.29850  0.17652  Biso   1.000  C
  C37      1.0000 0.11690  0.29850  0.32348  Biso   1.000  C
  C38      1.0000 0.18160  0.88310  0.99015  Biso   1.000  C
  C39      1.0000 0.70150  0.81840  0.65682  Biso   1.000  C
  C40      1.0000 0.88310  0.70150  0.82348  Biso   1.000  C
  C41      1.0000 0.81840  0.11690  0.49015  Biso   1.000  C
  C42      1.0000 0.29850  0.18160  0.15682  Biso   1.000  C
  H37      1.0000 0.38390  0.20080  0.01630  Biso   1.000  H
  H38      1.0000 0.79920  0.18310  0.34963  Biso   1.000  H
  H39      1.0000 0.81690  0.61610  0.68297  Biso   1.000  H
  H40      1.0000 0.61610  0.79920  0.51630  Biso   1.000  H
  H41      1.0000 0.20080  0.81690  0.84963  Biso   1.000  H
  H42      1.0000 0.18310  0.38390  0.18297  Biso   1.000  H
  H43      1.0000 0.20080  0.38390  0.31703  Biso   1.000  H
  H44      1.0000 0.18310  0.79920  0.98370  Biso   1.000  H
  H45      1.0000 0.61610  0.81690  0.65037  Biso   1.000  H
  H46      1.0000 0.79920  0.61610  0.81703  Biso   1.000  H
  H47      1.0000 0.81690  0.20080  0.48370  Biso   1.000  H
  H48      1.0000 0.38390  0.18310  0.15037  Biso   1.000  H
  O13      1.0000 0.36040  0.90570  0.12095  Biso   1.000  O
  O14      1.0000 0.09430  0.45470  0.45428  Biso   1.000  O
  O15      1.0000 0.54530  0.63960  0.78762  Biso   1.000  O
  O16      1.0000 0.63960  0.09430  0.62095  Biso   1.000  O
  O17      1.0000 0.90570  0.54530  0.95428  Biso   1.000  O
  O18      1.0000 0.45470  0.36040  0.28762  Biso   1.000  O
  O19      1.0000 0.90570  0.36040  0.21238  Biso   1.000  O
  O20      1.0000 0.45470  0.09430  0.87905  Biso   1.000  O
  O21      1.0000 0.63960  0.54530  0.54572  Biso   1.000  O
  O22      1.0000 0.09430  0.63960  0.71238  Biso   1.000  O
  O23      1.0000 0.54530  0.90570  0.37905  Biso   1.000  O
  O24      1.0000 0.36040  0.45470  0.04572  Biso   1.000  O
  O25      1.0000 0.56310  0.15380  0.08173  Biso   1.000  O
  O26      1.0000 0.84620  0.40930  0.41506  Biso   1.000  O
  O27      1.0000 0.59070  0.43690  0.74840  Biso   1.000  O
  O28      1.0000 0.43690  0.84620  0.58173  Biso   1.000  O
  O29      1.0000 0.15380  0.59070  0.91506  Biso   1.000  O
  O30      1.0000 0.40930  0.56310  0.24840  Biso   1.000  O
  O31      1.0000 0.15380  0.56310  0.25160  Biso   1.000  O
  O32      1.0000 0.40930  0.84620  0.91827  Biso   1.000  O
  O33      1.0000 0.43690  0.59070  0.58494  Biso   1.000  O
  O34      1.0000 0.84620  0.43690  0.75160  Biso   1.000  O
  O35      1.0000 0.59070  0.15380  0.41827  Biso   1.000  O
  O36      1.0000 0.56310  0.40930  0.08494  Biso   1.000  O
  H49      1.0000 0.51100  0.08410  0.10170  Biso   1.000  H
  H50      1.0000 0.91590  0.42690  0.43503  Biso   1.000  H
  H51      1.0000 0.57310  0.48900  0.76837  Biso   1.000  H
  H52      1.0000 0.48900  0.91590  0.60170  Biso   1.000  H
  H53      1.0000 0.08410  0.57310  0.93503  Biso   1.000  H
  H54      1.0000 0.42690  0.51100  0.26837  Biso   1.000  H
  H55      1.0000 0.08410  0.51100  0.23163  Biso   1.000  H
  H56      1.0000 0.42690  0.91590  0.89830  Biso   1.000  H
  H57      1.0000 0.48900  0.57310  0.56497  Biso   1.000  H
  H58      1.0000 0.91590  0.48900  0.73163  Biso   1.000  H
  H59      1.0000 0.57310  0.08410  0.39830  Biso   1.000  H
  H60      1.0000 0.51100  0.42690  0.06497  Biso   1.000  H
  H61      1.0000 0.64710  0.18760  0.09220  Biso   1.000  H
  H62      1.0000 0.81240  0.45950  0.42553  Biso   1.000  H
  H63      1.0000 0.54050  0.35290  0.75887  Biso   1.000  H
  H64      1.0000 0.35290  0.81240  0.59220  Biso   1.000  H
  H65      1.0000 0.18760  0.54050  0.92553  Biso   1.000  H
  H66      1.0000 0.45950  0.64710  0.25887  Biso   1.000  H
  H67      1.0000 0.18760  0.64710  0.24113  Biso   1.000  H
  H68      1.0000 0.45950  0.81240  0.90780  Biso   1.000  H
  H69      1.0000 0.35290  0.54050  0.57447  Biso   1.000  H
  H70      1.0000 0.81240  0.35290  0.74113  Biso   1.000  H
  H71      1.0000 0.54050  0.18760  0.40780  Biso   1.000  H
  H72      1.0000 0.64710  0.45950  0.07447  Biso   1.000  H
  C43      1.0000 0.33200  0.81010  0.08751  Biso   1.000  C
  C44      1.0000 0.18990  0.52190  0.42084  Biso   1.000  C
  C45      1.0000 0.47810  0.66800  0.75418  Biso   1.000  C
  C46      1.0000 0.66800  0.18990  0.58751  Biso   1.000  C
  C47      1.0000 0.81010  0.47810  0.92084  Biso   1.000  C
  C48      1.0000 0.52190  0.33200  0.25418  Biso   1.000  C
  C49      1.0000 0.81010  0.33200  0.24582  Biso   1.000  C
  C50      1.0000 0.52190  0.18990  0.91249  Biso   1.000  C
  C51      1.0000 0.66800  0.47810  0.57916  Biso   1.000  C
  C52      1.0000 0.18990  0.66800  0.74582  Biso   1.000  C
  C53      1.0000 0.47810  0.81010  0.41249  Biso   1.000  C
  C54      1.0000 0.33200  0.52190  0.07916  Biso   1.000  C
  C55      1.0000 0.79000  0.87780  0.00910  Biso   1.000  C
  C56      1.0000 0.12220  0.91220  0.34243  Biso   1.000  C
  C57      1.0000 0.08780  0.21000  0.67577  Biso   1.000  C
  C58      1.0000 0.21000  0.12220  0.50910  Biso   1.000  C
  C59      1.0000 0.87780  0.08780  0.84243  Biso   1.000  C
  C60      1.0000 0.91220  0.79000  0.17577  Biso   1.000  C
  C61      1.0000 0.87780  0.79000  0.32423  Biso   1.000  C
  C62      1.0000 0.91220  0.12220  0.99090  Biso   1.000  C
  C63      1.0000 0.21000  0.08780  0.65757  Biso   1.000  C
  C64      1.0000 0.12220  0.21000  0.82423  Biso   1.000  C
  C65      1.0000 0.08780  0.87780  0.49090  Biso   1.000  C
  C66      1.0000 0.79000  0.91220  0.15757  Biso   1.000  C
  H73      1.0000 0.78820  0.79240  0.01590  Biso   1.000  H
  H74      1.0000 0.20760  0.99580  0.34923  Biso   1.000  H
  H75      1.0000 0.00420  0.21180  0.68257  Biso   1.000  H
  H76      1.0000 0.21180  0.20760  0.51590  Biso   1.000  H
  H77      1.0000 0.79240  0.00420  0.84923  Biso   1.000  H
  H78      1.0000 0.99580  0.78820  0.18257  Biso   1.000  H
  H79      1.0000 0.79240  0.78820  0.31743  Biso   1.000  H
  H80      1.0000 0.99580  0.20760  0.98410  Biso   1.000  H
  H81      1.0000 0.21180  0.00420  0.65077  Biso   1.000  H
  H82      1.0000 0.20760  0.21180  0.81743  Biso   1.000  H
  H83      1.0000 0.00420  0.79240  0.48410  Biso   1.000  H
  H84      1.0000 0.78820  0.99580  0.15077  Biso   1.000  H
  C67      1.0000 0.91700  0.00000  0.00000  Biso   1.000  C
  C68      1.0000 0.00000  0.91700  0.33333  Biso   1.000  C
  C69      1.0000 0.08300  0.08300  0.66667  Biso   1.000  C
  C70      1.0000 0.08300  0.00000  0.50000  Biso   1.000  C
  C71      1.0000 0.00000  0.08300  0.83333  Biso   1.000  C
  C72      1.0000 0.91700  0.91700  0.16667  Biso   1.000  C
  C73      1.0000 0.66680  0.88160  0.00825  Biso   1.000  C
  C74      1.0000 0.11840  0.78520  0.34158  Biso   1.000  C
  C75      1.0000 0.21480  0.33320  0.67492  Biso   1.000  C
  C76      1.0000 0.33320  0.11840  0.50825  Biso   1.000  C
  C77      1.0000 0.88160  0.21480  0.84158  Biso   1.000  C
  C78      1.0000 0.78520  0.66680  0.17492  Biso   1.000  C
  C79      1.0000 0.88160  0.66680  0.32508  Biso   1.000  C
  C80      1.0000 0.78520  0.11840  0.99175  Biso   1.000  C
  C81      1.0000 0.33320  0.21480  0.65842  Biso   1.000  C
  C82      1.0000 0.11840  0.33320  0.82508  Biso   1.000  C
  C83      1.0000 0.21480  0.88160  0.49175  Biso   1.000  C
  C84      1.0000 0.66680  0.78520  0.15842  Biso   1.000  C
  H85      1.0000 0.58120  0.79710  0.01370  Biso   1.000  H
  H86      1.0000 0.20290  0.78410  0.34703  Biso   1.000  H
  H87      1.0000 0.21590  0.41880  0.68037  Biso   1.000  H
  H88      1.0000 0.41880  0.20290  0.51370  Biso   1.000  H
  H89      1.0000 0.79710  0.21590  0.84703  Biso   1.000  H
  H90      1.0000 0.78410  0.58120  0.18037  Biso   1.000  H
  H91      1.0000 0.79710  0.58120  0.31963  Biso   1.000  H
  H92      1.0000 0.78410  0.20290  0.98630  Biso   1.000  H
  H93      1.0000 0.41880  0.21590  0.65297  Biso   1.000  H
  H94      1.0000 0.20290  0.41880  0.81963  Biso   1.000  H
  H95      1.0000 0.21590  0.79710  0.48630  Biso   1.000  H
  H96      1.0000 0.58120  0.78410  0.15297  Biso   1.000  H
  O37      1.0000 0.84970  0.30710  0.10345  Biso   1.000  O
  O38      1.0000 0.69290  0.54260  0.43678  Biso   1.000  O
  O39      1.0000 0.45740  0.15030  0.77012  Biso   1.000  O
  O40      1.0000 0.15030  0.69290  0.60345  Biso   1.000  O
  O41      1.0000 0.30710  0.45740  0.93678  Biso   1.000  O
  O42      1.0000 0.54260  0.84970  0.27012  Biso   1.000  O
  O43      1.0000 0.30710  0.84970  0.22988  Biso   1.000  O
  O44      1.0000 0.54260  0.69290  0.89655  Biso   1.000  O
  O45      1.0000 0.15030  0.45740  0.56322  Biso   1.000  O
  O46      1.0000 0.69290  0.15030  0.72988  Biso   1.000  O
  O47      1.0000 0.45740  0.30710  0.39655  Biso   1.000  O
  O48      1.0000 0.84970  0.54260  0.06322  Biso   1.000  O
  H97      1.0000 0.85740  0.31330  0.13780  Biso   1.000  H
  H98      1.0000 0.68670  0.54410  0.47113  Biso   1.000  H
  H99      1.0000 0.45590  0.14260  0.80447  Biso   1.000  H
  H100     1.0000 0.14260  0.68670  0.63780  Biso   1.000  H
  H101     1.0000 0.31330  0.45590  0.97113  Biso   1.000  H
  H102     1.0000 0.54410  0.85740  0.30447  Biso   1.000  H
  H103     1.0000 0.31330  0.85740  0.19553  Biso   1.000  H
  H104     1.0000 0.54410  0.68670  0.86220  Biso   1.000  H
  H105     1.0000 0.14260  0.45590  0.52887  Biso   1.000  H
  H106     1.0000 0.68670  0.14260  0.69553  Biso   1.000  H
  H107     1.0000 0.45590  0.31330  0.36220  Biso   1.000  H
  H108     1.0000 0.85740  0.54410  0.02887  Biso   1.000  H
  H109     1.0000 0.88010  0.25440  0.09230  Biso   1.000  H
  H110     1.0000 0.74560  0.62570  0.42563  Biso   1.000  H
  H111     1.0000 0.37430  0.11990  0.75897  Biso   1.000  H
  H112     1.0000 0.11990  0.74560  0.59230  Biso   1.000  H
  H113     1.0000 0.25440  0.37430  0.92563  Biso   1.000  H
  H114     1.0000 0.62570  0.88010  0.25897  Biso   1.000  H
  H115     1.0000 0.25440  0.88010  0.24103  Biso   1.000  H
  H116     1.0000 0.62570  0.74560  0.90770  Biso   1.000  H
  H117     1.0000 0.11990  0.37430  0.57437  Biso   1.000  H
  H118     1.0000 0.74560  0.11990  0.74103  Biso   1.000  H
  H119     1.0000 0.37430  0.25440  0.40770  Biso   1.000  H
  H120     1.0000 0.88010  0.62570  0.07437  Biso   1.000  H
