data_image0
_cell_length_a       11.056
_cell_length_b       11.056
_cell_length_c       24.969
_cell_angle_alpha    90
_cell_angle_beta     90
_cell_angle_gamma    120

_symmetry_space_group_name_H-M    "P 1"
_symmetry_int_tables_number       1

loop_
  _symmetry_equiv_pos_as_xyz
  'x, y, z'

loop_
  _atom_site_label
  _atom_site_occupancy
  _atom_site_fract_x
  _atom_site_fract_y
  _atom_site_fract_z
  _atom_site_thermal_displace_type
  _atom_site_B_iso_or_equiv
  _atom_site_type_symbol
  Cu1      1.0000 0.48536  0.00000  0.00000  Biso   1.000  Cu
  Cu2      1.0000 0.00000  0.48536  0.33333  Biso   1.000  Cu
  Cu3      1.0000 0.51464  0.51464  0.66667  Biso   1.000  Cu
  Cu4      1.0000 0.51464  0.00000  0.50000  Biso   1.000  Cu
  Cu5      1.0000 0.00000  0.51464  0.83333  Biso   1.000  Cu
  Cu6      1.0000 0.48536  0.48536  0.16667  Biso   1.000  Cu
  C1       1.0000 0.05090  0.00000  0.00000  Biso   1.000  C
  C2       1.0000 0.00000  0.05090  0.33333  Biso   1.000  C
  C3       1.0000 0.94910  0.94910  0.66667  Biso   1.000  C
  C4       1.0000 0.94910  0.00000  0.50000  Biso   1.000  C
  C5       1.0000 1.00000  0.94910  0.83333  Biso   1.000  C
  C6       1.0000 0.05090  0.05090  0.16667  Biso   1.000  C
  C7       1.0000 0.17690  0.12050  0.01110  Biso   1.000  C
  C8       1.0000 0.87950  0.05640  0.34443  Biso   1.000  C
  C9       1.0000 0.94360  0.82310  0.67777  Biso   1.000  C
  C10      1.0000 0.82310  0.87950  0.51110  Biso   1.000  C
  C11      1.0000 0.12050  0.94360  0.84443  Biso   1.000  C
  C12      1.0000 0.05640  0.17690  0.17777  Biso   1.000  C
  C13      1.0000 0.12050  0.17690  0.32223  Biso   1.000  C
  C14      1.0000 0.05640  0.87950  0.98890  Biso   1.000  C
  C15      1.0000 0.82310  0.94360  0.65557  Biso   1.000  C
  C16      1.0000 0.87950  0.82310  0.82223  Biso   1.000  C
  C17      1.0000 0.94360  0.12050  0.48890  Biso   1.000  C
  C18      1.0000 0.17690  0.05640  0.15557  Biso   1.000  C
  H1       1.0000 0.17850  0.20330  0.01920  Biso   1.000  H
  H2       1.0000 0.79670  0.97520  0.35253  Biso   1.000  H
  H3       1.0000 0.02480  0.82150  0.68587  Biso   1.000  H
  H4       1.0000 0.82150  0.79670  0.51920  Biso   1.000  H
  H5       1.0000 0.20330  0.02480  0.85253  Biso   1.000  H
  H6       1.0000 0.97520  0.17850  0.18587  Biso   1.000  H
  H7       1.0000 0.20330  0.17850  0.31413  Biso   1.000  H
  H8       1.0000 0.97520  0.79670  0.98080  Biso   1.000  H
  H9       1.0000 0.82150  0.02480  0.64747  Biso   1.000  H
  H10      1.0000 0.79670  0.82150  0.81413  Biso   1.000  H
  H11      1.0000 0.02480  0.20330  0.48080  Biso   1.000  H
  H12      1.0000 0.17850  0.97520  0.14747  Biso   1.000  H
  C19      1.0000 0.29900  0.11620  0.00995  Biso   1.000  C
  C20      1.0000 0.88380  0.18280  0.34328  Biso   1.000  C
  C21      1.0000 0.81720  0.70100  0.67662  Biso   1.000  C
  C22      1.0000 0.70100  0.88380  0.50995  Biso   1.000  C
  C23      1.0000 0.11620  0.81720  0.84328  Biso   1.000  C
  C24      1.0000 0.18280  0.29900  0.17662  Biso   1.000  C
  C25      1.0000 0.11620  0.29900  0.32338  Biso   1.000  C
  C26      1.0000 0.18280  0.88380  0.99005  Biso   1.000  C
  C27      1.0000 0.70100  0.81720  0.65672  Biso   1.000  C
  C28      1.0000 0.88380  0.70100  0.82338  Biso   1.000  C
  C29      1.0000 0.81720  0.11620  0.49005  Biso   1.000  C
  C30      1.0000 0.29900  0.18280  0.15672  Biso   1.000  C
  H13      1.0000 0.38250  0.19830  0.01640  Biso   1.000  H
  H14      1.0000 0.80170  0.18420  0.34973  Biso   1.000  H
  H15      1.0000 0.81580  0.61750  0.68307  Biso   1.000  H
  H16      1.0000 0.61750  0.80170  0.51640  Biso   1.000  H
  H17      1.0000 0.19830  0.81580  0.84973  Biso   1.000  H
  H18      1.0000 0.18420  0.38250  0.18307  Biso   1.000  H
  H19      1.0000 0.19830  0.38250  0.31693  Biso   1.000  H
  H20      1.0000 0.18420  0.80170  0.98360  Biso   1.000  H
  H21      1.0000 0.61750  0.81580  0.65027  Biso   1.000  H
  H22      1.0000 0.80170  0.61750  0.81693  Biso   1.000  H
  H23      1.0000 0.81580  0.19830  0.48360  Biso   1.000  H
  H24      1.0000 0.38250  0.18420  0.15027  Biso   1.000  H
  O1       1.0000 0.39470  0.82770  0.04202  Biso   1.000  O
  O2       1.0000 0.17230  0.56700  0.37535  Biso   1.000  O
  O3       1.0000 0.43300  0.60530  0.70869  Biso   1.000  O
  O4       1.0000 0.60530  0.17230  0.54202  Biso   1.000  O
  O5       1.0000 0.82770  0.43300  0.87535  Biso   1.000  O
  O6       1.0000 0.56700  0.39470  0.20869  Biso   1.000  O
  O7       1.0000 0.82770  0.39470  0.29131  Biso   1.000  O
  O8       1.0000 0.56700  0.17230  0.95798  Biso   1.000  O
  O9       1.0000 0.60530  0.43300  0.62465  Biso   1.000  O
  O10      1.0000 0.17230  0.60530  0.79131  Biso   1.000  O
  O11      1.0000 0.43300  0.82770  0.45798  Biso   1.000  O
  O12      1.0000 0.39470  0.56700  0.12465  Biso   1.000  O
  N1       1.0000 0.66570  0.00000  0.00000  Biso   1.000  N
  N2       1.0000 0.00000  0.66570  0.33333  Biso   1.000  N
  N3       1.0000 0.33430  0.33430  0.66667  Biso   1.000  N
  N4       1.0000 0.33430  0.00000  0.50000  Biso   1.000  N
  N5       1.0000 0.00000  0.33430  0.83333  Biso   1.000  N
  N6       1.0000 0.66570  0.66570  0.16667  Biso   1.000  N
  C31      1.0000 0.33590  0.81180  0.08699  Biso   1.000  C
  C32      1.0000 0.18820  0.52410  0.42032  Biso   1.000  C
  C33      1.0000 0.47590  0.66410  0.75366  Biso   1.000  C
  C34      1.0000 0.66410  0.18820  0.58699  Biso   1.000  C
  C35      1.0000 0.81180  0.47590  0.92032  Biso   1.000  C
  C36      1.0000 0.52410  0.33590  0.25366  Biso   1.000  C
  C37      1.0000 0.81180  0.33590  0.24634  Biso   1.000  C
  C38      1.0000 0.52410  0.18820  0.91301  Biso   1.000  C
  C39      1.0000 0.66410  0.47590  0.57968  Biso   1.000  C
  C40      1.0000 0.18820  0.66410  0.74634  Biso   1.000  C
  C41      1.0000 0.47590  0.81180  0.41301  Biso   1.000  C
  C42      1.0000 0.33590  0.52410  0.07968  Biso   1.000  C
  C43      1.0000 0.21850  0.66680  0.09947  Biso   1.000  C
  C44      1.0000 0.33320  0.55170  0.43280  Biso   1.000  C
  C45      1.0000 0.44830  0.78150  0.76614  Biso   1.000  C
  C46      1.0000 0.78150  0.33320  0.59947  Biso   1.000  C
  C47      1.0000 0.66680  0.44830  0.93280  Biso   1.000  C
  C48      1.0000 0.55170  0.21850  0.26614  Biso   1.000  C
  C49      1.0000 0.66680  0.21850  0.23386  Biso   1.000  C
  C50      1.0000 0.55170  0.33320  0.90053  Biso   1.000  C
  C51      1.0000 0.78150  0.44830  0.56720  Biso   1.000  C
  C52      1.0000 0.33320  0.78150  0.73386  Biso   1.000  C
  C53      1.0000 0.44830  0.66680  0.40053  Biso   1.000  C
  C54      1.0000 0.21850  0.55170  0.06720  Biso   1.000  C
  H25      1.0000 0.13060  0.66420  0.09360  Biso   1.000  H
  H26      1.0000 0.33580  0.46640  0.42693  Biso   1.000  H
  H27      1.0000 0.53360  0.86940  0.76027  Biso   1.000  H
  H28      1.0000 0.86940  0.33580  0.59360  Biso   1.000  H
  H29      1.0000 0.66420  0.53360  0.92693  Biso   1.000  H
  H30      1.0000 0.46640  0.13060  0.26027  Biso   1.000  H
  H31      1.0000 0.66420  0.13060  0.23973  Biso   1.000  H
  H32      1.0000 0.46640  0.33580  0.90640  Biso   1.000  H
  H33      1.0000 0.86940  0.53360  0.57307  Biso   1.000  H
  H34      1.0000 0.33580  0.86940  0.73973  Biso   1.000  H
  H35      1.0000 0.53360  0.66420  0.40640  Biso   1.000  H
  H36      1.0000 0.13060  0.46640  0.07307  Biso   1.000  H
  H37      1.0000 0.22320  0.64810  0.13710  Biso   1.000  H
  H38      1.0000 0.35190  0.57510  0.47043  Biso   1.000  H
  H39      1.0000 0.42490  0.77680  0.80377  Biso   1.000  H
  H40      1.0000 0.77680  0.35190  0.63710  Biso   1.000  H
  H41      1.0000 0.64810  0.42490  0.97043  Biso   1.000  H
  H42      1.0000 0.57510  0.22320  0.30377  Biso   1.000  H
  H43      1.0000 0.64810  0.22320  0.19623  Biso   1.000  H
  H44      1.0000 0.57510  0.35190  0.86290  Biso   1.000  H
  H45      1.0000 0.77680  0.42490  0.52957  Biso   1.000  H
  H46      1.0000 0.35190  0.77680  0.69623  Biso   1.000  H
  H47      1.0000 0.42490  0.64810  0.36290  Biso   1.000  H
  H48      1.0000 0.22320  0.57510  0.02957  Biso   1.000  H
  N7       1.0000 0.30320  0.00000  0.00000  Biso   1.000  N
  N8       1.0000 0.00000  0.30320  0.33333  Biso   1.000  N
  N9       1.0000 0.69680  0.69680  0.66667  Biso   1.000  N
  N10      1.0000 0.69680  0.00000  0.50000  Biso   1.000  N
  N11      1.0000 0.00000  0.69680  0.83333  Biso   1.000  N
  N12      1.0000 0.30320  0.30320  0.16667  Biso   1.000  N
  O13      1.0000 0.41320  0.84540  0.91822  Biso   1.000  O
  O14      1.0000 0.15460  0.56780  0.25155  Biso   1.000  O
  O15      1.0000 0.43220  0.58680  0.58489  Biso   1.000  O
  O16      1.0000 0.58680  0.15460  0.41822  Biso   1.000  O
  O17      1.0000 0.84540  0.43220  0.75155  Biso   1.000  O
  O18      1.0000 0.56780  0.41320  0.08489  Biso   1.000  O
  O19      1.0000 0.84540  0.41320  0.41511  Biso   1.000  O
  O20      1.0000 0.56780  0.15460  0.08178  Biso   1.000  O
  O21      1.0000 0.58680  0.43220  0.74845  Biso   1.000  O
  O22      1.0000 0.15460  0.58680  0.91511  Biso   1.000  O
  O23      1.0000 0.43220  0.84540  0.58178  Biso   1.000  O
  O24      1.0000 0.41320  0.56780  0.24845  Biso   1.000  O
  H49      1.0000 0.38730  0.76870  0.90200  Biso   1.000  H
  H50      1.0000 0.23130  0.61860  0.23533  Biso   1.000  H
  H51      1.0000 0.38140  0.61270  0.56867  Biso   1.000  H
  H52      1.0000 0.61270  0.23130  0.40200  Biso   1.000  H
  H53      1.0000 0.76870  0.38140  0.73533  Biso   1.000  H
  H54      1.0000 0.61860  0.38730  0.06867  Biso   1.000  H
  H55      1.0000 0.76870  0.38730  0.43133  Biso   1.000  H
  H56      1.0000 0.61860  0.23130  0.09800  Biso   1.000  H
  H57      1.0000 0.61270  0.38140  0.76467  Biso   1.000  H
  H58      1.0000 0.23130  0.61270  0.93133  Biso   1.000  H
  H59      1.0000 0.38140  0.76870  0.59800  Biso   1.000  H
  H60      1.0000 0.38730  0.61860  0.26467  Biso   1.000  H
  H61      1.0000 0.42060  0.90600  0.89550  Biso   1.000  H
  H62      1.0000 0.09400  0.51460  0.22883  Biso   1.000  H
  H63      1.0000 0.48540  0.57940  0.56217  Biso   1.000  H
  H64      1.0000 0.57940  0.09400  0.39550  Biso   1.000  H
  H65      1.0000 0.90600  0.48540  0.72883  Biso   1.000  H
  H66      1.0000 0.51460  0.42060  0.06217  Biso   1.000  H
  H67      1.0000 0.90600  0.42060  0.43783  Biso   1.000  H
  H68      1.0000 0.51460  0.09400  0.10450  Biso   1.000  H
  H69      1.0000 0.57940  0.48540  0.77117  Biso   1.000  H
  H70      1.0000 0.09400  0.57940  0.93783  Biso   1.000  H
  H71      1.0000 0.48540  0.90600  0.60450  Biso   1.000  H
  H72      1.0000 0.42060  0.51460  0.27117  Biso   1.000  H
  O25      1.0000 0.36510  0.90690  0.12023  Biso   1.000  O
  O26      1.0000 0.09310  0.45820  0.45356  Biso   1.000  O
  O27      1.0000 0.54180  0.63490  0.78690  Biso   1.000  O
  O28      1.0000 0.63490  0.09310  0.62023  Biso   1.000  O
  O29      1.0000 0.90690  0.54180  0.95356  Biso   1.000  O
  O30      1.0000 0.45820  0.36510  0.28690  Biso   1.000  O
  O31      1.0000 0.90690  0.36510  0.21310  Biso   1.000  O
  O32      1.0000 0.45820  0.09310  0.87977  Biso   1.000  O
  O33      1.0000 0.63490  0.54180  0.54644  Biso   1.000  O
  O34      1.0000 0.09310  0.63490  0.71310  Biso   1.000  O
  O35      1.0000 0.54180  0.90690  0.37977  Biso   1.000  O
  O36      1.0000 0.36510  0.45820  0.04644  Biso   1.000  O
  C55      1.0000 0.91820  0.00000  0.00000  Biso   1.000  C
  C56      1.0000 1.00000  0.91820  0.33333  Biso   1.000  C
  C57      1.0000 0.08180  0.08180  0.66667  Biso   1.000  C
  C58      1.0000 0.08180  0.00000  0.50000  Biso   1.000  C
  C59      1.0000 0.00000  0.08180  0.83333  Biso   1.000  C
  C60      1.0000 0.91820  0.91820  0.16667  Biso   1.000  C
  O37      1.0000 0.85580  0.54800  0.06120  Biso   1.000  O
  O38      1.0000 0.45200  0.30780  0.39453  Biso   1.000  O
  O39      1.0000 0.69220  0.14420  0.72787  Biso   1.000  O
  O40      1.0000 0.14420  0.45200  0.56120  Biso   1.000  O
  O41      1.0000 0.54800  0.69220  0.89453  Biso   1.000  O
  O42      1.0000 0.30780  0.85580  0.22787  Biso   1.000  O
  O43      1.0000 0.54800  0.85580  0.27213  Biso   1.000  O
  O44      1.0000 0.30780  0.45200  0.93880  Biso   1.000  O
  O45      1.0000 0.14420  0.69220  0.60547  Biso   1.000  O
  O46      1.0000 0.45200  0.14420  0.77213  Biso   1.000  O
  O47      1.0000 0.69220  0.54800  0.43880  Biso   1.000  O
  O48      1.0000 0.85580  0.30780  0.10547  Biso   1.000  O
  H73      1.0000 0.86530  0.54490  0.02750  Biso   1.000  H
  H74      1.0000 0.45510  0.32040  0.36083  Biso   1.000  H
  H75      1.0000 0.67960  0.13470  0.69417  Biso   1.000  H
  H76      1.0000 0.13470  0.45510  0.52750  Biso   1.000  H
  H77      1.0000 0.54490  0.67960  0.86083  Biso   1.000  H
  H78      1.0000 0.32040  0.86530  0.19417  Biso   1.000  H
  H79      1.0000 0.54490  0.86530  0.30583  Biso   1.000  H
  H80      1.0000 0.32040  0.45510  0.97250  Biso   1.000  H
  H81      1.0000 0.13470  0.67960  0.63917  Biso   1.000  H
  H82      1.0000 0.45510  0.13470  0.80583  Biso   1.000  H
  H83      1.0000 0.67960  0.54490  0.47250  Biso   1.000  H
  H84      1.0000 0.86530  0.32040  0.13917  Biso   1.000  H
  H85      1.0000 0.85670  0.47820  0.07500  Biso   1.000  H
  H86      1.0000 0.52180  0.37850  0.40833  Biso   1.000  H
  H87      1.0000 0.62150  0.14330  0.74167  Biso   1.000  H
  H88      1.0000 0.14330  0.52180  0.57500  Biso   1.000  H
  H89      1.0000 0.47820  0.62150  0.90833  Biso   1.000  H
  H90      1.0000 0.37850  0.85670  0.24167  Biso   1.000  H
  H91      1.0000 0.47820  0.85670  0.25833  Biso   1.000  H
  H92      1.0000 0.37850  0.52180  0.92500  Biso   1.000  H
  H93      1.0000 0.14330  0.62150  0.59167  Biso   1.000  H
  H94      1.0000 0.52180  0.14330  0.75833  Biso   1.000  H
  H95      1.0000 0.62150  0.47820  0.42500  Biso   1.000  H
  H96      1.0000 0.85670  0.37850  0.09167  Biso   1.000  H
  C61      1.0000 0.66880  0.88270  0.00763  Biso   1.000  C
  C62      1.0000 0.11730  0.78610  0.34096  Biso   1.000  C
  C63      1.0000 0.21390  0.33120  0.67430  Biso   1.000  C
  C64      1.0000 0.33120  0.11730  0.50763  Biso   1.000  C
  C65      1.0000 0.88270  0.21390  0.84096  Biso   1.000  C
  C66      1.0000 0.78610  0.66880  0.17430  Biso   1.000  C
  C67      1.0000 0.88270  0.66880  0.32570  Biso   1.000  C
  C68      1.0000 0.78610  0.11730  0.99237  Biso   1.000  C
  C69      1.0000 0.33120  0.21390  0.65904  Biso   1.000  C
  C70      1.0000 0.11730  0.33120  0.82570  Biso   1.000  C
  C71      1.0000 0.21390  0.88270  0.49237  Biso   1.000  C
  C72      1.0000 0.66880  0.78610  0.15904  Biso   1.000  C
  H97      1.0000 0.58490  0.79990  0.01260  Biso   1.000  H
  H98      1.0000 0.20010  0.78500  0.34593  Biso   1.000  H
  H99      1.0000 0.21500  0.41510  0.67927  Biso   1.000  H
  H100     1.0000 0.41510  0.20010  0.51260  Biso   1.000  H
  H101     1.0000 0.79990  0.21500  0.84593  Biso   1.000  H
  H102     1.0000 0.78500  0.58490  0.17927  Biso   1.000  H
  H103     1.0000 0.79990  0.58490  0.32073  Biso   1.000  H
  H104     1.0000 0.78500  0.20010  0.98740  Biso   1.000  H
  H105     1.0000 0.41510  0.21500  0.65407  Biso   1.000  H
  H106     1.0000 0.20010  0.41510  0.82073  Biso   1.000  H
  H107     1.0000 0.21500  0.79990  0.48740  Biso   1.000  H
  H108     1.0000 0.58490  0.78500  0.15407  Biso   1.000  H
  C73      1.0000 0.79170  0.87880  0.00848  Biso   1.000  C
  C74      1.0000 0.12120  0.91290  0.34181  Biso   1.000  C
  C75      1.0000 0.08710  0.20830  0.67515  Biso   1.000  C
  C76      1.0000 0.20830  0.12120  0.50848  Biso   1.000  C
  C77      1.0000 0.87880  0.08710  0.84181  Biso   1.000  C
  C78      1.0000 0.91290  0.79170  0.17515  Biso   1.000  C
  C79      1.0000 0.87880  0.79170  0.32485  Biso   1.000  C
  C80      1.0000 0.91290  0.12120  0.99152  Biso   1.000  C
  C81      1.0000 0.20830  0.08710  0.65819  Biso   1.000  C
  C82      1.0000 0.12120  0.20830  0.82485  Biso   1.000  C
  C83      1.0000 0.08710  0.87880  0.49152  Biso   1.000  C
  C84      1.0000 0.79170  0.91290  0.15819  Biso   1.000  C
  H109     1.0000 0.78970  0.79480  0.01470  Biso   1.000  H
  H110     1.0000 0.20520  0.99490  0.34803  Biso   1.000  H
  H111     1.0000 0.00510  0.21030  0.68137  Biso   1.000  H
  H112     1.0000 0.21030  0.20520  0.51470  Biso   1.000  H
  H113     1.0000 0.79480  0.00510  0.84803  Biso   1.000  H
  H114     1.0000 0.99490  0.78970  0.18137  Biso   1.000  H
  H115     1.0000 0.79480  0.78970  0.31863  Biso   1.000  H
  H116     1.0000 0.99490  0.20520  0.98530  Biso   1.000  H
  H117     1.0000 0.21030  0.00510  0.65197  Biso   1.000  H
  H118     1.0000 0.20520  0.21030  0.81863  Biso   1.000  H
  H119     1.0000 0.00510  0.79480  0.48530  Biso   1.000  H
  H120     1.0000 0.78970  0.99490  0.15197  Biso   1.000  H
