data_image0
_cell_length_a       11.0775
_cell_length_b       11.0775
_cell_length_c       24.974
_cell_angle_alpha    90
_cell_angle_beta     90
_cell_angle_gamma    120

_symmetry_space_group_name_H-M    "P 1"
_symmetry_int_tables_number       1

loop_
  _symmetry_equiv_pos_as_xyz
  'x, y, z'

loop_
  _atom_site_label
  _atom_site_occupancy
  _atom_site_fract_x
  _atom_site_fract_y
  _atom_site_fract_z
  _atom_site_thermal_displace_type
  _atom_site_B_iso_or_equiv
  _atom_site_type_symbol
  Cu1      1.0000 0.48536  0.00000  0.00000  Biso   1.000  Cu
  Cu2      1.0000 0.00000  0.48536  0.33333  Biso   1.000  Cu
  Cu3      1.0000 0.51464  0.51464  0.66667  Biso   1.000  Cu
  Cu4      1.0000 0.51464  0.00000  0.50000  Biso   1.000  Cu
  Cu5      1.0000 0.00000  0.51464  0.83333  Biso   1.000  Cu
  Cu6      1.0000 0.48536  0.48536  0.16667  Biso   1.000  Cu
  C1       1.0000 0.17630  0.12020  0.01114  Biso   1.000  C
  C2       1.0000 0.87980  0.05610  0.34447  Biso   1.000  C
  C3       1.0000 0.94390  0.82370  0.67781  Biso   1.000  C
  C4       1.0000 0.82370  0.87980  0.51114  Biso   1.000  C
  C5       1.0000 0.12020  0.94390  0.84447  Biso   1.000  C
  C6       1.0000 0.05610  0.17630  0.17781  Biso   1.000  C
  C7       1.0000 0.12020  0.17630  0.32219  Biso   1.000  C
  C8       1.0000 0.05610  0.87980  0.98886  Biso   1.000  C
  C9       1.0000 0.82370  0.94390  0.65553  Biso   1.000  C
  C10      1.0000 0.87980  0.82370  0.82219  Biso   1.000  C
  C11      1.0000 0.94390  0.12020  0.48886  Biso   1.000  C
  C12      1.0000 0.17630  0.05610  0.15553  Biso   1.000  C
  H1       1.0000 0.17760  0.20270  0.01940  Biso   1.000  H
  H2       1.0000 0.79730  0.97490  0.35273  Biso   1.000  H
  H3       1.0000 0.02510  0.82240  0.68607  Biso   1.000  H
  H4       1.0000 0.82240  0.79730  0.51940  Biso   1.000  H
  H5       1.0000 0.20270  0.02510  0.85273  Biso   1.000  H
  H6       1.0000 0.97490  0.17760  0.18607  Biso   1.000  H
  H7       1.0000 0.20270  0.17760  0.31393  Biso   1.000  H
  H8       1.0000 0.97490  0.79730  0.98060  Biso   1.000  H
  H9       1.0000 0.82240  0.02510  0.64727  Biso   1.000  H
  H10      1.0000 0.79730  0.82240  0.81393  Biso   1.000  H
  H11      1.0000 0.02510  0.20270  0.48060  Biso   1.000  H
  H12      1.0000 0.17760  0.97490  0.14727  Biso   1.000  H
  C13      1.0000 0.78580  0.11720  0.99250  Biso   1.000  C
  C14      1.0000 0.88280  0.66860  0.32583  Biso   1.000  C
  C15      1.0000 0.33140  0.21420  0.65917  Biso   1.000  C
  C16      1.0000 0.21420  0.88280  0.49250  Biso   1.000  C
  C17      1.0000 0.11720  0.33140  0.82583  Biso   1.000  C
  C18      1.0000 0.66860  0.78580  0.15917  Biso   1.000  C
  C19      1.0000 0.11720  0.78580  0.34083  Biso   1.000  C
  C20      1.0000 0.66860  0.88280  0.00750  Biso   1.000  C
  C21      1.0000 0.21420  0.33140  0.67417  Biso   1.000  C
  C22      1.0000 0.88280  0.21420  0.84083  Biso   1.000  C
  C23      1.0000 0.33140  0.11720  0.50750  Biso   1.000  C
  C24      1.0000 0.78580  0.66860  0.17417  Biso   1.000  C
  H13      1.0000 0.78460  0.19980  0.98760  Biso   1.000  H
  H14      1.0000 0.80020  0.58480  0.32093  Biso   1.000  H
  H15      1.0000 0.41520  0.21540  0.65427  Biso   1.000  H
  H16      1.0000 0.21540  0.80020  0.48760  Biso   1.000  H
  H17      1.0000 0.19980  0.41520  0.82093  Biso   1.000  H
  H18      1.0000 0.58480  0.78460  0.15427  Biso   1.000  H
  H19      1.0000 0.19980  0.78460  0.34573  Biso   1.000  H
  H20      1.0000 0.58480  0.80020  0.01240  Biso   1.000  H
  H21      1.0000 0.21540  0.41520  0.67907  Biso   1.000  H
  H22      1.0000 0.80020  0.21540  0.84573  Biso   1.000  H
  H23      1.0000 0.41520  0.19980  0.51240  Biso   1.000  H
  H24      1.0000 0.78460  0.58480  0.17907  Biso   1.000  H
  O1       1.0000 0.39510  0.82810  0.04213  Biso   1.000  O
  O2       1.0000 0.17190  0.56700  0.37546  Biso   1.000  O
  O3       1.0000 0.43300  0.60490  0.70880  Biso   1.000  O
  O4       1.0000 0.60490  0.17190  0.54213  Biso   1.000  O
  O5       1.0000 0.82810  0.43300  0.87546  Biso   1.000  O
  O6       1.0000 0.56700  0.39510  0.20880  Biso   1.000  O
  O7       1.0000 0.82810  0.39510  0.29120  Biso   1.000  O
  O8       1.0000 0.56700  0.17190  0.95787  Biso   1.000  O
  O9       1.0000 0.60490  0.43300  0.62454  Biso   1.000  O
  O10      1.0000 0.17190  0.60490  0.79120  Biso   1.000  O
  O11      1.0000 0.43300  0.82810  0.45787  Biso   1.000  O
  O12      1.0000 0.39510  0.56700  0.12454  Biso   1.000  O
  N1       1.0000 0.30290  0.00000  0.00000  Biso   1.000  N
  N2       1.0000 0.00000  0.30290  0.33333  Biso   1.000  N
  N3       1.0000 0.69710  0.69710  0.66667  Biso   1.000  N
  N4       1.0000 0.69710  0.00000  0.50000  Biso   1.000  N
  N5       1.0000 0.00000  0.69710  0.83333  Biso   1.000  N
  N6       1.0000 0.30290  0.30290  0.16667  Biso   1.000  N
  C25      1.0000 0.21870  0.66610  0.09944  Biso   1.000  C
  C26      1.0000 0.33390  0.55260  0.43277  Biso   1.000  C
  C27      1.0000 0.44740  0.78130  0.76611  Biso   1.000  C
  C28      1.0000 0.78130  0.33390  0.59944  Biso   1.000  C
  C29      1.0000 0.66610  0.44740  0.93277  Biso   1.000  C
  C30      1.0000 0.55260  0.21870  0.26611  Biso   1.000  C
  C31      1.0000 0.66610  0.21870  0.23389  Biso   1.000  C
  C32      1.0000 0.55260  0.33390  0.90056  Biso   1.000  C
  C33      1.0000 0.78130  0.44740  0.56723  Biso   1.000  C
  C34      1.0000 0.33390  0.78130  0.73389  Biso   1.000  C
  C35      1.0000 0.44740  0.66610  0.40056  Biso   1.000  C
  C36      1.0000 0.21870  0.55260  0.06723  Biso   1.000  C
  H25      1.0000 0.22350  0.64710  0.13710  Biso   1.000  H
  H26      1.0000 0.35290  0.57640  0.47043  Biso   1.000  H
  H27      1.0000 0.42360  0.77650  0.80377  Biso   1.000  H
  H28      1.0000 0.77650  0.35290  0.63710  Biso   1.000  H
  H29      1.0000 0.64710  0.42360  0.97043  Biso   1.000  H
  H30      1.0000 0.57640  0.22350  0.30377  Biso   1.000  H
  H31      1.0000 0.64710  0.22350  0.19623  Biso   1.000  H
  H32      1.0000 0.57640  0.35290  0.86290  Biso   1.000  H
  H33      1.0000 0.77650  0.42360  0.52957  Biso   1.000  H
  H34      1.0000 0.35290  0.77650  0.69623  Biso   1.000  H
  H35      1.0000 0.42360  0.64710  0.36290  Biso   1.000  H
  H36      1.0000 0.22350  0.57640  0.02957  Biso   1.000  H
  H37      1.0000 0.13080  0.66340  0.09370  Biso   1.000  H
  H38      1.0000 0.33660  0.46740  0.42703  Biso   1.000  H
  H39      1.0000 0.53260  0.86920  0.76037  Biso   1.000  H
  H40      1.0000 0.86920  0.33660  0.59370  Biso   1.000  H
  H41      1.0000 0.66340  0.53260  0.92703  Biso   1.000  H
  H42      1.0000 0.46740  0.13080  0.26037  Biso   1.000  H
  H43      1.0000 0.66340  0.13080  0.23963  Biso   1.000  H
  H44      1.0000 0.46740  0.33660  0.90630  Biso   1.000  H
  H45      1.0000 0.86920  0.53260  0.57297  Biso   1.000  H
  H46      1.0000 0.33660  0.86920  0.73963  Biso   1.000  H
  H47      1.0000 0.53260  0.66340  0.40630  Biso   1.000  H
  H48      1.0000 0.13080  0.46740  0.07297  Biso   1.000  H
  C37      1.0000 0.05090  0.00000  0.00000  Biso   1.000  C
  C38      1.0000 0.00000  0.05090  0.33333  Biso   1.000  C
  C39      1.0000 0.94910  0.94910  0.66667  Biso   1.000  C
  C40      1.0000 0.94910  0.00000  0.50000  Biso   1.000  C
  C41      1.0000 0.00000  0.94910  0.83333  Biso   1.000  C
  C42      1.0000 0.05090  0.05090  0.16667  Biso   1.000  C
  C43      1.0000 0.91820  0.00000  0.00000  Biso   1.000  C
  C44      1.0000 0.00000  0.91820  0.33333  Biso   1.000  C
  C45      1.0000 0.08180  0.08180  0.66667  Biso   1.000  C
  C46      1.0000 0.08180  0.00000  0.50000  Biso   1.000  C
  C47      1.0000 0.00000  0.08180  0.83333  Biso   1.000  C
  C48      1.0000 0.91820  0.91820  0.16667  Biso   1.000  C
  O13      1.0000 0.36540  0.90670  0.12011  Biso   1.000  O
  O14      1.0000 0.09330  0.45870  0.45344  Biso   1.000  O
  O15      1.0000 0.54130  0.63460  0.78678  Biso   1.000  O
  O16      1.0000 0.63460  0.09330  0.62011  Biso   1.000  O
  O17      1.0000 0.90670  0.54130  0.95344  Biso   1.000  O
  O18      1.0000 0.45870  0.36540  0.28678  Biso   1.000  O
  O19      1.0000 0.90670  0.36540  0.21322  Biso   1.000  O
  O20      1.0000 0.45870  0.09330  0.87989  Biso   1.000  O
  O21      1.0000 0.63460  0.54130  0.54656  Biso   1.000  O
  O22      1.0000 0.09330  0.63460  0.71322  Biso   1.000  O
  O23      1.0000 0.54130  0.90670  0.37989  Biso   1.000  O
  O24      1.0000 0.36540  0.45870  0.04656  Biso   1.000  O
  N7       1.0000 0.66570  0.00000  0.00000  Biso   1.000  N
  N8       1.0000 0.00000  0.66570  0.33333  Biso   1.000  N
  N9       1.0000 0.33430  0.33430  0.66667  Biso   1.000  N
  N10      1.0000 0.33430  0.00000  0.50000  Biso   1.000  N
  N11      1.0000 0.00000  0.33430  0.83333  Biso   1.000  N
  N12      1.0000 0.66570  0.66570  0.16667  Biso   1.000  N
  C49      1.0000 0.91290  0.12110  0.99160  Biso   1.000  C
  C50      1.0000 0.87890  0.79180  0.32493  Biso   1.000  C
  C51      1.0000 0.20820  0.08710  0.65827  Biso   1.000  C
  C52      1.0000 0.08710  0.87890  0.49160  Biso   1.000  C
  C53      1.0000 0.12110  0.20820  0.82493  Biso   1.000  C
  C54      1.0000 0.79180  0.91290  0.15827  Biso   1.000  C
  C55      1.0000 0.12110  0.91290  0.34173  Biso   1.000  C
  C56      1.0000 0.79180  0.87890  0.00840  Biso   1.000  C
  C57      1.0000 0.08710  0.20820  0.67507  Biso   1.000  C
  C58      1.0000 0.87890  0.08710  0.84173  Biso   1.000  C
  C59      1.0000 0.20820  0.12110  0.50840  Biso   1.000  C
  C60      1.0000 0.91290  0.79180  0.17507  Biso   1.000  C
  H49      1.0000 0.99460  0.20490  0.98540  Biso   1.000  H
  H50      1.0000 0.79510  0.78970  0.31873  Biso   1.000  H
  H51      1.0000 0.21030  0.00540  0.65207  Biso   1.000  H
  H52      1.0000 0.00540  0.79510  0.48540  Biso   1.000  H
  H53      1.0000 0.20490  0.21030  0.81873  Biso   1.000  H
  H54      1.0000 0.78970  0.99460  0.15207  Biso   1.000  H
  H55      1.0000 0.20490  0.99460  0.34793  Biso   1.000  H
  H56      1.0000 0.78970  0.79510  0.01460  Biso   1.000  H
  H57      1.0000 0.00540  0.21030  0.68127  Biso   1.000  H
  H58      1.0000 0.79510  0.00540  0.84793  Biso   1.000  H
  H59      1.0000 0.21030  0.20490  0.51460  Biso   1.000  H
  H60      1.0000 0.99460  0.78970  0.18127  Biso   1.000  H
  C61      1.0000 0.29910  0.11650  0.00979  Biso   1.000  C
  C62      1.0000 0.88350  0.18260  0.34312  Biso   1.000  C
  C63      1.0000 0.81740  0.70090  0.67646  Biso   1.000  C
  C64      1.0000 0.70090  0.88350  0.50979  Biso   1.000  C
  C65      1.0000 0.11650  0.81740  0.84312  Biso   1.000  C
  C66      1.0000 0.18260  0.29910  0.17646  Biso   1.000  C
  C67      1.0000 0.11650  0.29910  0.32354  Biso   1.000  C
  C68      1.0000 0.18260  0.88350  0.99021  Biso   1.000  C
  C69      1.0000 0.70090  0.81740  0.65688  Biso   1.000  C
  C70      1.0000 0.88350  0.70090  0.82354  Biso   1.000  C
  C71      1.0000 0.81740  0.11650  0.49021  Biso   1.000  C
  C72      1.0000 0.29910  0.18260  0.15688  Biso   1.000  C
  H61      1.0000 0.38250  0.19860  0.01600  Biso   1.000  H
  H62      1.0000 0.80140  0.18390  0.34933  Biso   1.000  H
  H63      1.0000 0.81610  0.61750  0.68267  Biso   1.000  H
  H64      1.0000 0.61750  0.80140  0.51600  Biso   1.000  H
  H65      1.0000 0.19860  0.81610  0.84933  Biso   1.000  H
  H66      1.0000 0.18390  0.38250  0.18267  Biso   1.000  H
  H67      1.0000 0.19860  0.38250  0.31733  Biso   1.000  H
  H68      1.0000 0.18390  0.80140  0.98400  Biso   1.000  H
  H69      1.0000 0.61750  0.81610  0.65067  Biso   1.000  H
  H70      1.0000 0.80140  0.61750  0.81733  Biso   1.000  H
  H71      1.0000 0.81610  0.19860  0.48400  Biso   1.000  H
  H72      1.0000 0.38250  0.18390  0.15067  Biso   1.000  H
  O25      1.0000 0.56780  0.15580  0.08195  Biso   1.000  O
  O26      1.0000 0.84420  0.41200  0.41528  Biso   1.000  O
  O27      1.0000 0.58800  0.43220  0.74862  Biso   1.000  O
  O28      1.0000 0.43220  0.84420  0.58195  Biso   1.000  O
  O29      1.0000 0.15580  0.58800  0.91528  Biso   1.000  O
  O30      1.0000 0.41200  0.56780  0.24862  Biso   1.000  O
  O31      1.0000 0.15580  0.56780  0.25138  Biso   1.000  O
  O32      1.0000 0.41200  0.84420  0.91805  Biso   1.000  O
  O33      1.0000 0.43220  0.58800  0.58472  Biso   1.000  O
  O34      1.0000 0.84420  0.43220  0.75138  Biso   1.000  O
  O35      1.0000 0.58800  0.15580  0.41805  Biso   1.000  O
  O36      1.0000 0.56780  0.41200  0.08472  Biso   1.000  O
  H73      1.0000 0.64120  0.17560  0.09950  Biso   1.000  H
  H74      1.0000 0.82440  0.46560  0.43283  Biso   1.000  H
  H75      1.0000 0.53440  0.35880  0.76617  Biso   1.000  H
  H76      1.0000 0.35880  0.82440  0.59950  Biso   1.000  H
  H77      1.0000 0.17560  0.53440  0.93283  Biso   1.000  H
  H78      1.0000 0.46560  0.64120  0.26617  Biso   1.000  H
  H79      1.0000 0.17560  0.64120  0.23383  Biso   1.000  H
  H80      1.0000 0.46560  0.82440  0.90050  Biso   1.000  H
  H81      1.0000 0.35880  0.53440  0.56717  Biso   1.000  H
  H82      1.0000 0.82440  0.35880  0.73383  Biso   1.000  H
  H83      1.0000 0.53440  0.17560  0.40050  Biso   1.000  H
  H84      1.0000 0.64120  0.46560  0.06717  Biso   1.000  H
  H85      1.0000 0.49990  0.08460  0.09630  Biso   1.000  H
  H86      1.0000 0.91540  0.41530  0.42963  Biso   1.000  H
  H87      1.0000 0.58470  0.50010  0.76297  Biso   1.000  H
  H88      1.0000 0.50010  0.91540  0.59630  Biso   1.000  H
  H89      1.0000 0.08460  0.58470  0.92963  Biso   1.000  H
  H90      1.0000 0.41530  0.49990  0.26297  Biso   1.000  H
  H91      1.0000 0.08460  0.49990  0.23703  Biso   1.000  H
  H92      1.0000 0.41530  0.91540  0.90370  Biso   1.000  H
  H93      1.0000 0.50010  0.58470  0.57037  Biso   1.000  H
  H94      1.0000 0.91540  0.50010  0.73703  Biso   1.000  H
  H95      1.0000 0.58470  0.08460  0.40370  Biso   1.000  H
  H96      1.0000 0.49990  0.41530  0.07037  Biso   1.000  H
  O37      1.0000 0.30790  0.85680  0.22740  Biso   1.000  O
  O38      1.0000 0.14320  0.45110  0.56073  Biso   1.000  O
  O39      1.0000 0.54890  0.69210  0.89407  Biso   1.000  O
  O40      1.0000 0.69210  0.14320  0.72740  Biso   1.000  O
  O41      1.0000 0.85680  0.54890  0.06073  Biso   1.000  O
  O42      1.0000 0.45110  0.30790  0.39407  Biso   1.000  O
  O43      1.0000 0.85680  0.30790  0.10593  Biso   1.000  O
  O44      1.0000 0.45110  0.14320  0.77260  Biso   1.000  O
  O45      1.0000 0.69210  0.54890  0.43927  Biso   1.000  O
  O46      1.0000 0.14320  0.69210  0.60593  Biso   1.000  O
  O47      1.0000 0.54890  0.85680  0.27260  Biso   1.000  O
  O48      1.0000 0.30790  0.45110  0.93927  Biso   1.000  O
  H97      1.0000 0.30630  0.83560  0.26020  Biso   1.000  H
  H98      1.0000 0.16440  0.47070  0.59353  Biso   1.000  H
  H99      1.0000 0.52930  0.69370  0.92687  Biso   1.000  H
  H100     1.0000 0.69370  0.16440  0.76020  Biso   1.000  H
  H101     1.0000 0.83560  0.52930  0.09353  Biso   1.000  H
  H102     1.0000 0.47070  0.30630  0.42687  Biso   1.000  H
  H103     1.0000 0.83560  0.30630  0.07313  Biso   1.000  H
  H104     1.0000 0.47070  0.16440  0.73980  Biso   1.000  H
  H105     1.0000 0.69370  0.52930  0.40647  Biso   1.000  H
  H106     1.0000 0.16440  0.69370  0.57313  Biso   1.000  H
  H107     1.0000 0.52930  0.83560  0.23980  Biso   1.000  H
  H108     1.0000 0.30630  0.47070  0.90647  Biso   1.000  H
  H109     1.0000 0.35250  0.82530  0.21020  Biso   1.000  H
  H110     1.0000 0.17470  0.52720  0.54353  Biso   1.000  H
  H111     1.0000 0.47280  0.64750  0.87687  Biso   1.000  H
  H112     1.0000 0.64750  0.17470  0.71020  Biso   1.000  H
  H113     1.0000 0.82530  0.47280  0.04353  Biso   1.000  H
  H114     1.0000 0.52720  0.35250  0.37687  Biso   1.000  H
  H115     1.0000 0.82530  0.35250  0.12313  Biso   1.000  H
  H116     1.0000 0.52720  0.17470  0.78980  Biso   1.000  H
  H117     1.0000 0.64750  0.47280  0.45647  Biso   1.000  H
  H118     1.0000 0.17470  0.64750  0.62313  Biso   1.000  H
  H119     1.0000 0.47280  0.82530  0.28980  Biso   1.000  H
  H120     1.0000 0.35250  0.52720  0.95647  Biso   1.000  H
  C73      1.0000 0.33640  0.81210  0.08710  Biso   1.000  C
  C74      1.0000 0.18790  0.52430  0.42043  Biso   1.000  C
  C75      1.0000 0.47570  0.66360  0.75377  Biso   1.000  C
  C76      1.0000 0.66360  0.18790  0.58710  Biso   1.000  C
  C77      1.0000 0.81210  0.47570  0.92043  Biso   1.000  C
  C78      1.0000 0.52430  0.33640  0.25377  Biso   1.000  C
  C79      1.0000 0.81210  0.33640  0.24623  Biso   1.000  C
  C80      1.0000 0.52430  0.18790  0.91290  Biso   1.000  C
  C81      1.0000 0.66360  0.47570  0.57957  Biso   1.000  C
  C82      1.0000 0.18790  0.66360  0.74623  Biso   1.000  C
  C83      1.0000 0.47570  0.81210  0.41290  Biso   1.000  C
  C84      1.0000 0.33640  0.52430  0.07957  Biso   1.000  C
