data_image0
_cell_length_a       11.039
_cell_length_b       11.039
_cell_length_c       24.81
_cell_angle_alpha    90
_cell_angle_beta     90
_cell_angle_gamma    120

_symmetry_space_group_name_H-M    "P 1"
_symmetry_int_tables_number       1

loop_
  _symmetry_equiv_pos_as_xyz
  'x, y, z'

loop_
  _atom_site_label
  _atom_site_occupancy
  _atom_site_fract_x
  _atom_site_fract_y
  _atom_site_fract_z
  _atom_site_thermal_displace_type
  _atom_site_B_iso_or_equiv
  _atom_site_type_symbol
  Cu1      1.0000 0.51453  0.00000  0.00000  Biso   1.000  Cu
  Cu2      1.0000 0.00000  0.51453  0.33333  Biso   1.000  Cu
  Cu3      1.0000 0.48547  0.48547  0.66667  Biso   1.000  Cu
  Cu4      1.0000 0.48547  0.00000  0.50000  Biso   1.000  Cu
  Cu5      1.0000 0.00000  0.48547  0.83333  Biso   1.000  Cu
  Cu6      1.0000 0.51453  0.51453  0.16667  Biso   1.000  Cu
  N1       1.0000 0.33380  0.00000  0.00000  Biso   1.000  N
  N2       1.0000 0.00000  0.33380  0.33333  Biso   1.000  N
  N3       1.0000 0.66620  0.66620  0.66667  Biso   1.000  N
  N4       1.0000 0.66620  0.00000  0.50000  Biso   1.000  N
  N5       1.0000 0.00000  0.66620  0.83333  Biso   1.000  N
  N6       1.0000 0.33380  0.33380  0.16667  Biso   1.000  N
  N7       1.0000 0.69630  0.00000  0.00000  Biso   1.000  N
  N8       1.0000 0.00000  0.69630  0.33333  Biso   1.000  N
  N9       1.0000 0.30370  0.30370  0.66667  Biso   1.000  N
  N10      1.0000 0.30370  0.00000  0.50000  Biso   1.000  N
  N11      1.0000 0.00000  0.30370  0.83333  Biso   1.000  N
  N12      1.0000 0.69630  0.69630  0.16667  Biso   1.000  N
  O1       1.0000 0.60390  0.17160  0.04269  Biso   1.000  O
  O2       1.0000 0.82840  0.43230  0.37602  Biso   1.000  O
  O3       1.0000 0.56770  0.39610  0.70936  Biso   1.000  O
  O4       1.0000 0.39610  0.82840  0.54269  Biso   1.000  O
  O5       1.0000 0.17160  0.56770  0.87602  Biso   1.000  O
  O6       1.0000 0.43230  0.60390  0.20936  Biso   1.000  O
  O7       1.0000 0.17160  0.60390  0.29064  Biso   1.000  O
  O8       1.0000 0.43230  0.82840  0.95731  Biso   1.000  O
  O9       1.0000 0.39610  0.56770  0.62398  Biso   1.000  O
  O10      1.0000 0.82840  0.39610  0.79064  Biso   1.000  O
  O11      1.0000 0.56770  0.17160  0.45731  Biso   1.000  O
  O12      1.0000 0.60390  0.43230  0.12398  Biso   1.000  O
  C1       1.0000 0.94980  0.00000  0.00000  Biso   1.000  C
  C2       1.0000 0.00000  0.94980  0.33333  Biso   1.000  C
  C3       1.0000 0.05020  0.05020  0.66667  Biso   1.000  C
  C4       1.0000 0.05020  0.00000  0.50000  Biso   1.000  C
  C5       1.0000 0.00000  0.05020  0.83333  Biso   1.000  C
  C6       1.0000 0.94980  0.94980  0.16667  Biso   1.000  C
  C7       1.0000 0.70110  0.88360  0.01000  Biso   1.000  C
  C8       1.0000 0.11640  0.81750  0.34333  Biso   1.000  C
  C9       1.0000 0.18250  0.29890  0.67667  Biso   1.000  C
  C10      1.0000 0.29890  0.11640  0.51000  Biso   1.000  C
  C11      1.0000 0.88360  0.18250  0.84333  Biso   1.000  C
  C12      1.0000 0.81750  0.70110  0.17667  Biso   1.000  C
  C13      1.0000 0.88360  0.70110  0.32333  Biso   1.000  C
  C14      1.0000 0.81750  0.11640  0.99000  Biso   1.000  C
  C15      1.0000 0.29890  0.18250  0.65667  Biso   1.000  C
  C16      1.0000 0.11640  0.29890  0.82333  Biso   1.000  C
  C17      1.0000 0.18250  0.88360  0.49000  Biso   1.000  C
  C18      1.0000 0.70110  0.81750  0.15667  Biso   1.000  C
  H1       1.0000 0.61760  0.80130  0.01660  Biso   1.000  H
  H2       1.0000 0.19870  0.81630  0.34993  Biso   1.000  H
  H3       1.0000 0.18370  0.38240  0.68327  Biso   1.000  H
  H4       1.0000 0.38240  0.19870  0.51660  Biso   1.000  H
  H5       1.0000 0.80130  0.18370  0.84993  Biso   1.000  H
  H6       1.0000 0.81630  0.61760  0.18327  Biso   1.000  H
  H7       1.0000 0.80130  0.61760  0.31673  Biso   1.000  H
  H8       1.0000 0.81630  0.19870  0.98340  Biso   1.000  H
  H9       1.0000 0.38240  0.18370  0.65007  Biso   1.000  H
  H10      1.0000 0.19870  0.38240  0.81673  Biso   1.000  H
  H11      1.0000 0.18370  0.80130  0.48340  Biso   1.000  H
  H12      1.0000 0.61760  0.81630  0.15007  Biso   1.000  H
  C19      1.0000 0.82230  0.87940  0.01090  Biso   1.000  C
  C20      1.0000 0.12060  0.94290  0.34423  Biso   1.000  C
  C21      1.0000 0.05710  0.17770  0.67757  Biso   1.000  C
  C22      1.0000 0.17770  0.12060  0.51090  Biso   1.000  C
  C23      1.0000 0.87940  0.05710  0.84423  Biso   1.000  C
  C24      1.0000 0.94290  0.82230  0.17757  Biso   1.000  C
  C25      1.0000 0.87940  0.82230  0.32243  Biso   1.000  C
  C26      1.0000 0.94290  0.12060  0.98910  Biso   1.000  C
  C27      1.0000 0.17770  0.05710  0.65577  Biso   1.000  C
  C28      1.0000 0.12060  0.17770  0.82243  Biso   1.000  C
  C29      1.0000 0.05710  0.87940  0.48910  Biso   1.000  C
  C30      1.0000 0.82230  0.94290  0.15577  Biso   1.000  C
  H13      1.0000 0.82020  0.79600  0.01880  Biso   1.000  H
  H14      1.0000 0.20400  0.02420  0.35213  Biso   1.000  H
  H15      1.0000 0.97580  0.17980  0.68547  Biso   1.000  H
  H16      1.0000 0.17980  0.20400  0.51880  Biso   1.000  H
  H17      1.0000 0.79600  0.97580  0.85213  Biso   1.000  H
  H18      1.0000 0.02420  0.82020  0.18547  Biso   1.000  H
  H19      1.0000 0.79600  0.82020  0.31453  Biso   1.000  H
  H20      1.0000 0.02420  0.20400  0.98120  Biso   1.000  H
  H21      1.0000 0.17980  0.97580  0.64787  Biso   1.000  H
  H22      1.0000 0.20400  0.17980  0.81453  Biso   1.000  H
  H23      1.0000 0.97580  0.79600  0.48120  Biso   1.000  H
  H24      1.0000 0.82020  0.02420  0.14787  Biso   1.000  H
  C31      1.0000 0.66370  0.18800  0.08710  Biso   1.000  C
  C32      1.0000 0.81200  0.47570  0.42043  Biso   1.000  C
  C33      1.0000 0.52430  0.33630  0.75377  Biso   1.000  C
  C34      1.0000 0.33630  0.81200  0.58710  Biso   1.000  C
  C35      1.0000 0.18800  0.52430  0.92043  Biso   1.000  C
  C36      1.0000 0.47570  0.66370  0.25377  Biso   1.000  C
  C37      1.0000 0.18800  0.66370  0.24623  Biso   1.000  C
  C38      1.0000 0.47570  0.81200  0.91290  Biso   1.000  C
  C39      1.0000 0.33630  0.52430  0.57957  Biso   1.000  C
  C40      1.0000 0.81200  0.33630  0.74623  Biso   1.000  C
  C41      1.0000 0.52430  0.18800  0.41290  Biso   1.000  C
  C42      1.0000 0.66370  0.47570  0.07957  Biso   1.000  C
  O13      1.0000 0.43060  0.84460  0.08182  Biso   1.000  O
  O14      1.0000 0.15540  0.58600  0.41515  Biso   1.000  O
  O15      1.0000 0.41400  0.56940  0.74849  Biso   1.000  O
  O16      1.0000 0.56940  0.15540  0.58182  Biso   1.000  O
  O17      1.0000 0.84460  0.41400  0.91515  Biso   1.000  O
  O18      1.0000 0.58600  0.43060  0.24849  Biso   1.000  O
  O19      1.0000 0.84460  0.43060  0.25151  Biso   1.000  O
  O20      1.0000 0.58600  0.15540  0.91818  Biso   1.000  O
  O21      1.0000 0.56940  0.41400  0.58485  Biso   1.000  O
  O22      1.0000 0.15540  0.56940  0.75151  Biso   1.000  O
  O23      1.0000 0.41400  0.84460  0.41818  Biso   1.000  O
  O24      1.0000 0.43060  0.58600  0.08485  Biso   1.000  O
  H25      1.0000 0.47500  0.80610  0.06950  Biso   1.000  H
  H26      1.0000 0.19390  0.66890  0.40283  Biso   1.000  H
  H27      1.0000 0.33110  0.52500  0.73617  Biso   1.000  H
  H28      1.0000 0.52500  0.19390  0.56950  Biso   1.000  H
  H29      1.0000 0.80610  0.33110  0.90283  Biso   1.000  H
  H30      1.0000 0.66890  0.47500  0.23617  Biso   1.000  H
  H31      1.0000 0.80610  0.47500  0.26383  Biso   1.000  H
  H32      1.0000 0.66890  0.19390  0.93050  Biso   1.000  H
  H33      1.0000 0.52500  0.33110  0.59717  Biso   1.000  H
  H34      1.0000 0.19390  0.52500  0.76383  Biso   1.000  H
  H35      1.0000 0.33110  0.80610  0.43050  Biso   1.000  H
  H36      1.0000 0.47500  0.66890  0.09717  Biso   1.000  H
  H37      1.0000 0.48980  0.92400  0.09450  Biso   1.000  H
  H38      1.0000 0.07600  0.56580  0.42783  Biso   1.000  H
  H39      1.0000 0.43420  0.51020  0.76117  Biso   1.000  H
  H40      1.0000 0.51020  0.07600  0.59450  Biso   1.000  H
  H41      1.0000 0.92400  0.43420  0.92783  Biso   1.000  H
  H42      1.0000 0.56580  0.48980  0.26117  Biso   1.000  H
  H43      1.0000 0.92400  0.48980  0.23883  Biso   1.000  H
  H44      1.0000 0.56580  0.07600  0.90550  Biso   1.000  H
  H45      1.0000 0.51020  0.43420  0.57217  Biso   1.000  H
  H46      1.0000 0.07600  0.51020  0.73883  Biso   1.000  H
  H47      1.0000 0.43420  0.92400  0.40550  Biso   1.000  H
  H48      1.0000 0.48980  0.56580  0.07217  Biso   1.000  H
  C43      1.0000 0.78140  0.33290  0.10050  Biso   1.000  C
  C44      1.0000 0.66710  0.44850  0.43383  Biso   1.000  C
  C45      1.0000 0.55150  0.21860  0.76717  Biso   1.000  C
  C46      1.0000 0.21860  0.66710  0.60050  Biso   1.000  C
  C47      1.0000 0.33290  0.55150  0.93383  Biso   1.000  C
  C48      1.0000 0.44850  0.78140  0.26717  Biso   1.000  C
  C49      1.0000 0.33290  0.78140  0.23283  Biso   1.000  C
  C50      1.0000 0.44850  0.66710  0.89950  Biso   1.000  C
  C51      1.0000 0.21860  0.55150  0.56617  Biso   1.000  C
  C52      1.0000 0.66710  0.21860  0.73283  Biso   1.000  C
  C53      1.0000 0.55150  0.33290  0.39950  Biso   1.000  C
  C54      1.0000 0.78140  0.44850  0.06617  Biso   1.000  C
  H49      1.0000 0.86980  0.33540  0.09550  Biso   1.000  H
  H50      1.0000 0.66460  0.53440  0.42883  Biso   1.000  H
  H51      1.0000 0.46560  0.13020  0.76217  Biso   1.000  H
  H52      1.0000 0.13020  0.66460  0.59550  Biso   1.000  H
  H53      1.0000 0.33540  0.46560  0.92883  Biso   1.000  H
  H54      1.0000 0.53440  0.86980  0.26217  Biso   1.000  H
  H55      1.0000 0.33540  0.86980  0.23783  Biso   1.000  H
  H56      1.0000 0.53440  0.66460  0.90450  Biso   1.000  H
  H57      1.0000 0.13020  0.46560  0.57117  Biso   1.000  H
  H58      1.0000 0.66460  0.13020  0.73783  Biso   1.000  H
  H59      1.0000 0.46560  0.33540  0.40450  Biso   1.000  H
  H60      1.0000 0.86980  0.53440  0.07117  Biso   1.000  H
  H61      1.0000 0.77460  0.35190  0.13820  Biso   1.000  H
  H62      1.0000 0.64810  0.42270  0.47153  Biso   1.000  H
  H63      1.0000 0.57730  0.22540  0.80487  Biso   1.000  H
  H64      1.0000 0.22540  0.64810  0.63820  Biso   1.000  H
  H65      1.0000 0.35190  0.57730  0.97153  Biso   1.000  H
  H66      1.0000 0.42270  0.77460  0.30487  Biso   1.000  H
  H67      1.0000 0.35190  0.77460  0.19513  Biso   1.000  H
  H68      1.0000 0.42270  0.64810  0.86180  Biso   1.000  H
  H69      1.0000 0.22540  0.57730  0.52847  Biso   1.000  H
  H70      1.0000 0.64810  0.22540  0.69513  Biso   1.000  H
  H71      1.0000 0.57730  0.35190  0.36180  Biso   1.000  H
  H72      1.0000 0.77460  0.42270  0.02847  Biso   1.000  H
  O25      1.0000 0.63480  0.09230  0.11991  Biso   1.000  O
  O26      1.0000 0.90770  0.54250  0.45324  Biso   1.000  O
  O27      1.0000 0.45750  0.36520  0.78658  Biso   1.000  O
  O28      1.0000 0.36520  0.90770  0.61991  Biso   1.000  O
  O29      1.0000 0.09230  0.45750  0.95324  Biso   1.000  O
  O30      1.0000 0.54250  0.63480  0.28658  Biso   1.000  O
  O31      1.0000 0.09230  0.63480  0.21342  Biso   1.000  O
  O32      1.0000 0.54250  0.90770  0.88009  Biso   1.000  O
  O33      1.0000 0.36520  0.45750  0.54676  Biso   1.000  O
  O34      1.0000 0.90770  0.36520  0.71342  Biso   1.000  O
  O35      1.0000 0.45750  0.09230  0.38009  Biso   1.000  O
  O36      1.0000 0.63480  0.54250  0.04676  Biso   1.000  O
  C55      1.0000 0.08220  0.00000  0.00000  Biso   1.000  C
  C56      1.0000 0.00000  0.08220  0.33333  Biso   1.000  C
  C57      1.0000 0.91780  0.91780  0.66667  Biso   1.000  C
  C58      1.0000 0.91780  0.00000  0.50000  Biso   1.000  C
  C59      1.0000 1.00000  0.91780  0.83333  Biso   1.000  C
  C60      1.0000 0.08220  0.08220  0.16667  Biso   1.000  C
  C61      1.0000 0.33050  0.11750  0.00820  Biso   1.000  C
  C62      1.0000 0.88250  0.21300  0.34153  Biso   1.000  C
  C63      1.0000 0.78700  0.66950  0.67487  Biso   1.000  C
  C64      1.0000 0.66950  0.88250  0.50820  Biso   1.000  C
  C65      1.0000 0.11750  0.78700  0.84153  Biso   1.000  C
  C66      1.0000 0.21300  0.33050  0.17487  Biso   1.000  C
  C67      1.0000 0.11750  0.33050  0.32513  Biso   1.000  C
  C68      1.0000 0.21300  0.88250  0.99180  Biso   1.000  C
  C69      1.0000 0.66950  0.78700  0.65847  Biso   1.000  C
  C70      1.0000 0.88250  0.66950  0.82513  Biso   1.000  C
  C71      1.0000 0.78700  0.11750  0.49180  Biso   1.000  C
  C72      1.0000 0.33050  0.21300  0.15847  Biso   1.000  C
  H73      1.0000 0.41410  0.20020  0.01410  Biso   1.000  H
  H74      1.0000 0.79980  0.21390  0.34743  Biso   1.000  H
  H75      1.0000 0.78610  0.58590  0.68077  Biso   1.000  H
  H76      1.0000 0.58590  0.79980  0.51410  Biso   1.000  H
  H77      1.0000 0.20020  0.78610  0.84743  Biso   1.000  H
  H78      1.0000 0.21390  0.41410  0.18077  Biso   1.000  H
  H79      1.0000 0.20020  0.41410  0.31923  Biso   1.000  H
  H80      1.0000 0.21390  0.79980  0.98590  Biso   1.000  H
  H81      1.0000 0.58590  0.78610  0.65257  Biso   1.000  H
  H82      1.0000 0.79980  0.58590  0.81923  Biso   1.000  H
  H83      1.0000 0.78610  0.20020  0.48590  Biso   1.000  H
  H84      1.0000 0.41410  0.21390  0.15257  Biso   1.000  H
  O37      1.0000 0.14280  0.69000  0.10500  Biso   1.000  O
  O38      1.0000 0.31000  0.45280  0.43833  Biso   1.000  O
  O39      1.0000 0.54720  0.85720  0.77167  Biso   1.000  O
  O40      1.0000 0.85720  0.31000  0.60500  Biso   1.000  O
  O41      1.0000 0.69000  0.54720  0.93833  Biso   1.000  O
  O42      1.0000 0.45280  0.14280  0.27167  Biso   1.000  O
  O43      1.0000 0.69000  0.14280  0.22833  Biso   1.000  O
  O44      1.0000 0.45280  0.31000  0.89500  Biso   1.000  O
  O45      1.0000 0.85720  0.54720  0.56167  Biso   1.000  O
  O46      1.0000 0.31000  0.85720  0.72833  Biso   1.000  O
  O47      1.0000 0.54720  0.69000  0.39500  Biso   1.000  O
  O48      1.0000 0.14280  0.45280  0.06167  Biso   1.000  O
  H85      1.0000 0.17100  0.64950  0.08340  Biso   1.000  H
  H86      1.0000 0.35050  0.52150  0.41673  Biso   1.000  H
  H87      1.0000 0.47850  0.82900  0.75007  Biso   1.000  H
  H88      1.0000 0.82900  0.35050  0.58340  Biso   1.000  H
  H89      1.0000 0.64950  0.47850  0.91673  Biso   1.000  H
  H90      1.0000 0.52150  0.17100  0.25007  Biso   1.000  H
  H91      1.0000 0.64950  0.17100  0.24993  Biso   1.000  H
  H92      1.0000 0.52150  0.35050  0.91660  Biso   1.000  H
  H93      1.0000 0.82900  0.47850  0.58327  Biso   1.000  H
  H94      1.0000 0.35050  0.82900  0.74993  Biso   1.000  H
  H95      1.0000 0.47850  0.64950  0.41660  Biso   1.000  H
  H96      1.0000 0.17100  0.52150  0.08327  Biso   1.000  H
  H97      1.0000 0.19760  0.71800  0.13200  Biso   1.000  H
  H98      1.0000 0.28200  0.47960  0.46533  Biso   1.000  H
  H99      1.0000 0.52040  0.80240  0.79867  Biso   1.000  H
  H100     1.0000 0.80240  0.28200  0.63200  Biso   1.000  H
  H101     1.0000 0.71800  0.52040  0.96533  Biso   1.000  H
  H102     1.0000 0.47960  0.19760  0.29867  Biso   1.000  H
  H103     1.0000 0.71800  0.19760  0.20133  Biso   1.000  H
  H104     1.0000 0.47960  0.28200  0.86800  Biso   1.000  H
  H105     1.0000 0.80240  0.52040  0.53467  Biso   1.000  H
  H106     1.0000 0.28200  0.80240  0.70133  Biso   1.000  H
  H107     1.0000 0.52040  0.71800  0.36800  Biso   1.000  H
  H108     1.0000 0.19760  0.47960  0.03467  Biso   1.000  H
  C73      1.0000 0.20810  0.12060  0.00820  Biso   1.000  C
  C74      1.0000 0.87940  0.08750  0.34153  Biso   1.000  C
  C75      1.0000 0.91250  0.79190  0.67487  Biso   1.000  C
  C76      1.0000 0.79190  0.87940  0.50820  Biso   1.000  C
  C77      1.0000 0.12060  0.91250  0.84153  Biso   1.000  C
  C78      1.0000 0.08750  0.20810  0.17487  Biso   1.000  C
  C79      1.0000 0.12060  0.20810  0.32513  Biso   1.000  C
  C80      1.0000 0.08750  0.87940  0.99180  Biso   1.000  C
  C81      1.0000 0.79190  0.91250  0.65847  Biso   1.000  C
  C82      1.0000 0.87940  0.79190  0.82513  Biso   1.000  C
  C83      1.0000 0.91250  0.12060  0.49180  Biso   1.000  C
  C84      1.0000 0.20810  0.08750  0.15847  Biso   1.000  C
  H109     1.0000 0.21000  0.20480  0.01370  Biso   1.000  H
  H110     1.0000 0.79520  0.00520  0.34703  Biso   1.000  H
  H111     1.0000 0.99480  0.79000  0.68037  Biso   1.000  H
  H112     1.0000 0.79000  0.79520  0.51370  Biso   1.000  H
  H113     1.0000 0.20480  0.99480  0.84703  Biso   1.000  H
  H114     1.0000 0.00520  0.21000  0.18037  Biso   1.000  H
  H115     1.0000 0.20480  0.21000  0.31963  Biso   1.000  H
  H116     1.0000 0.00520  0.79520  0.98630  Biso   1.000  H
  H117     1.0000 0.79000  0.99480  0.65297  Biso   1.000  H
  H118     1.0000 0.79520  0.79000  0.81963  Biso   1.000  H
  H119     1.0000 0.99480  0.20480  0.48630  Biso   1.000  H
  H120     1.0000 0.21000  0.00520  0.15297  Biso   1.000  H
