data_image0
_cell_length_a       11.0741
_cell_length_b       11.0741
_cell_length_c       24.719
_cell_angle_alpha    90
_cell_angle_beta     90
_cell_angle_gamma    120

_symmetry_space_group_name_H-M    "P 1"
_symmetry_int_tables_number       1

loop_
  _symmetry_equiv_pos_as_xyz
  'x, y, z'

loop_
  _atom_site_label
  _atom_site_occupancy
  _atom_site_fract_x
  _atom_site_fract_y
  _atom_site_fract_z
  _atom_site_thermal_displace_type
  _atom_site_B_iso_or_equiv
  _atom_site_type_symbol
  Cu1      1.0000 0.51608  0.00000  0.00000  Biso   1.000  Cu
  Cu2      1.0000 0.00000  0.51608  0.33333  Biso   1.000  Cu
  Cu3      1.0000 0.48392  0.48392  0.66667  Biso   1.000  Cu
  Cu4      1.0000 0.48392  0.00000  0.50000  Biso   1.000  Cu
  Cu5      1.0000 0.00000  0.48392  0.83333  Biso   1.000  Cu
  Cu6      1.0000 0.51608  0.51608  0.16667  Biso   1.000  Cu
  O1       1.0000 0.60780  0.17391  0.04206  Biso   1.000  O
  O2       1.0000 0.82609  0.43389  0.37539  Biso   1.000  O
  O3       1.0000 0.56611  0.39220  0.70873  Biso   1.000  O
  O4       1.0000 0.39220  0.82609  0.54206  Biso   1.000  O
  O5       1.0000 0.17391  0.56611  0.87539  Biso   1.000  O
  O6       1.0000 0.43389  0.60780  0.20873  Biso   1.000  O
  O7       1.0000 0.17391  0.60780  0.29127  Biso   1.000  O
  O8       1.0000 0.43389  0.82609  0.95794  Biso   1.000  O
  O9       1.0000 0.39220  0.56611  0.62461  Biso   1.000  O
  O10      1.0000 0.82609  0.39220  0.79127  Biso   1.000  O
  O11      1.0000 0.56611  0.17391  0.45794  Biso   1.000  O
  O12      1.0000 0.60780  0.43389  0.12461  Biso   1.000  O
  C1       1.0000 0.95010  0.00000  0.00000  Biso   1.000  C
  C2       1.0000 0.00000  0.95010  0.33333  Biso   1.000  C
  C3       1.0000 0.04990  0.04990  0.66667  Biso   1.000  C
  C4       1.0000 0.04990  0.00000  0.50000  Biso   1.000  C
  C5       1.0000 0.00000  0.04990  0.83333  Biso   1.000  C
  C6       1.0000 0.95010  0.95010  0.16667  Biso   1.000  C
  N1       1.0000 0.33620  0.00000  0.00000  Biso   1.000  N
  N2       1.0000 0.00000  0.33620  0.33333  Biso   1.000  N
  N3       1.0000 0.66380  0.66380  0.66667  Biso   1.000  N
  N4       1.0000 0.66380  0.00000  0.50000  Biso   1.000  N
  N5       1.0000 0.00000  0.66380  0.83333  Biso   1.000  N
  N6       1.0000 0.33620  0.33620  0.16667  Biso   1.000  N
  N7       1.0000 0.69760  0.00000  0.00000  Biso   1.000  N
  N8       1.0000 0.00000  0.69760  0.33333  Biso   1.000  N
  N9       1.0000 0.30240  0.30240  0.66667  Biso   1.000  N
  N10      1.0000 0.30240  0.00000  0.50000  Biso   1.000  N
  N11      1.0000 0.00000  0.30240  0.83333  Biso   1.000  N
  N12      1.0000 0.69760  0.69760  0.16667  Biso   1.000  N
  C7       1.0000 0.78660  0.33630  0.10000  Biso   1.000  C
  C8       1.0000 0.66370  0.45030  0.43333  Biso   1.000  C
  C9       1.0000 0.54970  0.21340  0.76667  Biso   1.000  C
  C10      1.0000 0.21340  0.66370  0.60000  Biso   1.000  C
  C11      1.0000 0.33630  0.54970  0.93333  Biso   1.000  C
  C12      1.0000 0.45030  0.78660  0.26667  Biso   1.000  C
  C13      1.0000 0.33630  0.78660  0.23333  Biso   1.000  C
  C14      1.0000 0.45030  0.66370  0.90000  Biso   1.000  C
  C15      1.0000 0.21340  0.54970  0.56667  Biso   1.000  C
  C16      1.0000 0.66370  0.21340  0.73333  Biso   1.000  C
  C17      1.0000 0.54970  0.33630  0.40000  Biso   1.000  C
  C18      1.0000 0.78660  0.45030  0.06667  Biso   1.000  C
  H1       1.0000 0.78170  0.35620  0.13870  Biso   1.000  H
  H2       1.0000 0.64380  0.42550  0.47203  Biso   1.000  H
  H3       1.0000 0.57450  0.21830  0.80537  Biso   1.000  H
  H4       1.0000 0.21830  0.64380  0.63870  Biso   1.000  H
  H5       1.0000 0.35620  0.57450  0.97203  Biso   1.000  H
  H6       1.0000 0.42550  0.78170  0.30537  Biso   1.000  H
  H7       1.0000 0.35620  0.78170  0.19463  Biso   1.000  H
  H8       1.0000 0.42550  0.64380  0.86130  Biso   1.000  H
  H9       1.0000 0.21830  0.57450  0.52797  Biso   1.000  H
  H10      1.0000 0.64380  0.21830  0.69463  Biso   1.000  H
  H11      1.0000 0.57450  0.35620  0.36130  Biso   1.000  H
  H12      1.0000 0.78170  0.42550  0.02797  Biso   1.000  H
  H13      1.0000 0.87620  0.33860  0.09420  Biso   1.000  H
  H14      1.0000 0.66140  0.53760  0.42753  Biso   1.000  H
  H15      1.0000 0.46240  0.12380  0.76087  Biso   1.000  H
  H16      1.0000 0.12380  0.66140  0.59420  Biso   1.000  H
  H17      1.0000 0.33860  0.46240  0.92753  Biso   1.000  H
  H18      1.0000 0.53760  0.87620  0.26087  Biso   1.000  H
  H19      1.0000 0.33860  0.87620  0.23913  Biso   1.000  H
  H20      1.0000 0.53760  0.66140  0.90580  Biso   1.000  H
  H21      1.0000 0.12380  0.46240  0.57247  Biso   1.000  H
  H22      1.0000 0.66140  0.12380  0.73913  Biso   1.000  H
  H23      1.0000 0.46240  0.33860  0.40580  Biso   1.000  H
  H24      1.0000 0.87620  0.53760  0.07247  Biso   1.000  H
  C19      1.0000 0.82420  0.87890  0.01110  Biso   1.000  C
  C20      1.0000 0.12110  0.94530  0.34443  Biso   1.000  C
  C21      1.0000 0.05470  0.17580  0.67777  Biso   1.000  C
  C22      1.0000 0.17580  0.12110  0.51110  Biso   1.000  C
  C23      1.0000 0.87890  0.05470  0.84443  Biso   1.000  C
  C24      1.0000 0.94530  0.82420  0.17777  Biso   1.000  C
  C25      1.0000 0.87890  0.82420  0.32223  Biso   1.000  C
  C26      1.0000 0.94530  0.12110  0.98890  Biso   1.000  C
  C27      1.0000 0.17580  0.05470  0.65557  Biso   1.000  C
  C28      1.0000 0.12110  0.17580  0.82223  Biso   1.000  C
  C29      1.0000 0.05470  0.87890  0.48890  Biso   1.000  C
  C30      1.0000 0.82420  0.94530  0.15557  Biso   1.000  C
  H25      1.0000 0.82290  0.79450  0.01940  Biso   1.000  H
  H26      1.0000 0.20550  0.02840  0.35273  Biso   1.000  H
  H27      1.0000 0.97160  0.17710  0.68607  Biso   1.000  H
  H28      1.0000 0.17710  0.20550  0.51940  Biso   1.000  H
  H29      1.0000 0.79450  0.97160  0.85273  Biso   1.000  H
  H30      1.0000 0.02840  0.82290  0.18607  Biso   1.000  H
  H31      1.0000 0.79450  0.82290  0.31393  Biso   1.000  H
  H32      1.0000 0.02840  0.20550  0.98060  Biso   1.000  H
  H33      1.0000 0.17710  0.97160  0.64727  Biso   1.000  H
  H34      1.0000 0.20550  0.17710  0.81393  Biso   1.000  H
  H35      1.0000 0.97160  0.79450  0.48060  Biso   1.000  H
  H36      1.0000 0.82290  0.02840  0.14727  Biso   1.000  H
  C31      1.0000 0.70150  0.88290  0.00988  Biso   1.000  C
  C32      1.0000 0.11710  0.81860  0.34321  Biso   1.000  C
  C33      1.0000 0.18140  0.29850  0.67655  Biso   1.000  C
  C34      1.0000 0.29850  0.11710  0.50988  Biso   1.000  C
  C35      1.0000 0.88290  0.18140  0.84321  Biso   1.000  C
  C36      1.0000 0.81860  0.70150  0.17655  Biso   1.000  C
  C37      1.0000 0.88290  0.70150  0.32345  Biso   1.000  C
  C38      1.0000 0.81860  0.11710  0.99012  Biso   1.000  C
  C39      1.0000 0.29850  0.18140  0.65679  Biso   1.000  C
  C40      1.0000 0.11710  0.29850  0.82345  Biso   1.000  C
  C41      1.0000 0.18140  0.88290  0.49012  Biso   1.000  C
  C42      1.0000 0.70150  0.81860  0.15679  Biso   1.000  C
  H37      1.0000 0.61620  0.79900  0.01630  Biso   1.000  H
  H38      1.0000 0.20100  0.81720  0.34963  Biso   1.000  H
  H39      1.0000 0.18280  0.38380  0.68297  Biso   1.000  H
  H40      1.0000 0.38380  0.20100  0.51630  Biso   1.000  H
  H41      1.0000 0.79900  0.18280  0.84963  Biso   1.000  H
  H42      1.0000 0.81720  0.61620  0.18297  Biso   1.000  H
  H43      1.0000 0.79900  0.61620  0.31703  Biso   1.000  H
  H44      1.0000 0.81720  0.20100  0.98370  Biso   1.000  H
  H45      1.0000 0.38380  0.18280  0.65037  Biso   1.000  H
  H46      1.0000 0.20100  0.38380  0.81703  Biso   1.000  H
  H47      1.0000 0.18280  0.79900  0.48370  Biso   1.000  H
  H48      1.0000 0.61620  0.81720  0.15037  Biso   1.000  H
  O13      1.0000 0.63950  0.09440  0.12094  Biso   1.000  O
  O14      1.0000 0.90560  0.54510  0.45427  Biso   1.000  O
  O15      1.0000 0.45490  0.36050  0.78761  Biso   1.000  O
  O16      1.0000 0.36050  0.90560  0.62094  Biso   1.000  O
  O17      1.0000 0.09440  0.45490  0.95427  Biso   1.000  O
  O18      1.0000 0.54510  0.63950  0.28761  Biso   1.000  O
  O19      1.0000 0.09440  0.63950  0.21239  Biso   1.000  O
  O20      1.0000 0.54510  0.90560  0.87906  Biso   1.000  O
  O21      1.0000 0.36050  0.45490  0.54573  Biso   1.000  O
  O22      1.0000 0.90560  0.36050  0.71239  Biso   1.000  O
  O23      1.0000 0.45490  0.09440  0.37906  Biso   1.000  O
  O24      1.0000 0.63950  0.54510  0.04573  Biso   1.000  O
  O25      1.0000 0.43660  0.84620  0.08175  Biso   1.000  O
  O26      1.0000 0.15380  0.59040  0.41508  Biso   1.000  O
  O27      1.0000 0.40960  0.56340  0.74842  Biso   1.000  O
  O28      1.0000 0.56340  0.15380  0.58175  Biso   1.000  O
  O29      1.0000 0.84620  0.40960  0.91508  Biso   1.000  O
  O30      1.0000 0.59040  0.43660  0.24842  Biso   1.000  O
  O31      1.0000 0.84620  0.43660  0.25158  Biso   1.000  O
  O32      1.0000 0.59040  0.15380  0.91825  Biso   1.000  O
  O33      1.0000 0.56340  0.40960  0.58492  Biso   1.000  O
  O34      1.0000 0.15380  0.56340  0.75158  Biso   1.000  O
  O35      1.0000 0.40960  0.84620  0.41825  Biso   1.000  O
  O36      1.0000 0.43660  0.59040  0.08492  Biso   1.000  O
  H49      1.0000 0.49800  0.91760  0.09850  Biso   1.000  H
  H50      1.0000 0.08240  0.58040  0.43183  Biso   1.000  H
  H51      1.0000 0.41960  0.50200  0.76517  Biso   1.000  H
  H52      1.0000 0.50200  0.08240  0.59850  Biso   1.000  H
  H53      1.0000 0.91760  0.41960  0.93183  Biso   1.000  H
  H54      1.0000 0.58040  0.49800  0.26517  Biso   1.000  H
  H55      1.0000 0.91760  0.49800  0.23483  Biso   1.000  H
  H56      1.0000 0.58040  0.08240  0.90150  Biso   1.000  H
  H57      1.0000 0.50200  0.41960  0.56817  Biso   1.000  H
  H58      1.0000 0.08240  0.50200  0.73483  Biso   1.000  H
  H59      1.0000 0.41960  0.91760  0.40150  Biso   1.000  H
  H60      1.0000 0.49800  0.58040  0.06817  Biso   1.000  H
  H61      1.0000 0.35870  0.81760  0.09750  Biso   1.000  H
  H62      1.0000 0.18240  0.54110  0.43083  Biso   1.000  H
  H63      1.0000 0.45890  0.64130  0.76417  Biso   1.000  H
  H64      1.0000 0.64130  0.18240  0.59750  Biso   1.000  H
  H65      1.0000 0.81760  0.45890  0.93083  Biso   1.000  H
  H66      1.0000 0.54110  0.35870  0.26417  Biso   1.000  H
  H67      1.0000 0.81760  0.35870  0.23583  Biso   1.000  H
  H68      1.0000 0.54110  0.18240  0.90250  Biso   1.000  H
  H69      1.0000 0.64130  0.45890  0.56917  Biso   1.000  H
  H70      1.0000 0.18240  0.64130  0.73583  Biso   1.000  H
  H71      1.0000 0.45890  0.81760  0.40250  Biso   1.000  H
  H72      1.0000 0.35870  0.54110  0.06917  Biso   1.000  H
  C43      1.0000 0.66810  0.19010  0.08760  Biso   1.000  C
  C44      1.0000 0.80990  0.47800  0.42093  Biso   1.000  C
  C45      1.0000 0.52200  0.33190  0.75427  Biso   1.000  C
  C46      1.0000 0.33190  0.80990  0.58760  Biso   1.000  C
  C47      1.0000 0.19010  0.52200  0.92093  Biso   1.000  C
  C48      1.0000 0.47800  0.66810  0.25427  Biso   1.000  C
  C49      1.0000 0.19010  0.66810  0.24573  Biso   1.000  C
  C50      1.0000 0.47800  0.80990  0.91240  Biso   1.000  C
  C51      1.0000 0.33190  0.52200  0.57907  Biso   1.000  C
  C52      1.0000 0.80990  0.33190  0.74573  Biso   1.000  C
  C53      1.0000 0.52200  0.19010  0.41240  Biso   1.000  C
  C54      1.0000 0.66810  0.47800  0.07907  Biso   1.000  C
  C55      1.0000 0.08310  0.00000  0.00000  Biso   1.000  C
  C56      1.0000 0.00000  0.08310  0.33333  Biso   1.000  C
  C57      1.0000 0.91690  0.91690  0.66667  Biso   1.000  C
  C58      1.0000 0.91690  0.00000  0.50000  Biso   1.000  C
  C59      1.0000 0.00000  0.91690  0.83333  Biso   1.000  C
  C60      1.0000 0.08310  0.08310  0.16667  Biso   1.000  C
  C61      1.0000 0.21000  0.12220  0.00916  Biso   1.000  C
  C62      1.0000 0.87780  0.08780  0.34249  Biso   1.000  C
  C63      1.0000 0.91220  0.79000  0.67583  Biso   1.000  C
  C64      1.0000 0.79000  0.87780  0.50916  Biso   1.000  C
  C65      1.0000 0.12220  0.91220  0.84249  Biso   1.000  C
  C66      1.0000 0.08780  0.21000  0.17583  Biso   1.000  C
  C67      1.0000 0.12220  0.21000  0.32417  Biso   1.000  C
  C68      1.0000 0.08780  0.87780  0.99084  Biso   1.000  C
  C69      1.0000 0.79000  0.91220  0.65751  Biso   1.000  C
  C70      1.0000 0.87780  0.79000  0.82417  Biso   1.000  C
  C71      1.0000 0.91220  0.12220  0.49084  Biso   1.000  C
  C72      1.0000 0.21000  0.08780  0.15751  Biso   1.000  C
  H73      1.0000 0.21170  0.20750  0.01590  Biso   1.000  H
  H74      1.0000 0.79250  0.00420  0.34923  Biso   1.000  H
  H75      1.0000 0.99580  0.78830  0.68257  Biso   1.000  H
  H76      1.0000 0.78830  0.79250  0.51590  Biso   1.000  H
  H77      1.0000 0.20750  0.99580  0.84923  Biso   1.000  H
  H78      1.0000 0.00420  0.21170  0.18257  Biso   1.000  H
  H79      1.0000 0.20750  0.21170  0.31743  Biso   1.000  H
  H80      1.0000 0.00420  0.79250  0.98410  Biso   1.000  H
  H81      1.0000 0.78830  0.99580  0.65077  Biso   1.000  H
  H82      1.0000 0.79250  0.78830  0.81743  Biso   1.000  H
  H83      1.0000 0.99580  0.20750  0.48410  Biso   1.000  H
  H84      1.0000 0.21170  0.00420  0.15077  Biso   1.000  H
  C73      1.0000 0.33300  0.11840  0.00833  Biso   1.000  C
  C74      1.0000 0.88160  0.21460  0.34166  Biso   1.000  C
  C75      1.0000 0.78540  0.66700  0.67500  Biso   1.000  C
  C76      1.0000 0.66700  0.88160  0.50833  Biso   1.000  C
  C77      1.0000 0.11840  0.78540  0.84166  Biso   1.000  C
  C78      1.0000 0.21460  0.33300  0.17500  Biso   1.000  C
  C79      1.0000 0.11840  0.33300  0.32500  Biso   1.000  C
  C80      1.0000 0.21460  0.88160  0.99167  Biso   1.000  C
  C81      1.0000 0.66700  0.78540  0.65834  Biso   1.000  C
  C82      1.0000 0.88160  0.66700  0.82500  Biso   1.000  C
  C83      1.0000 0.78540  0.11840  0.49167  Biso   1.000  C
  C84      1.0000 0.33300  0.21460  0.15834  Biso   1.000  C
  H85      1.0000 0.41850  0.20270  0.01390  Biso   1.000  H
  H86      1.0000 0.79730  0.21580  0.34723  Biso   1.000  H
  H87      1.0000 0.78420  0.58150  0.68057  Biso   1.000  H
  H88      1.0000 0.58150  0.79730  0.51390  Biso   1.000  H
  H89      1.0000 0.20270  0.78420  0.84723  Biso   1.000  H
  H90      1.0000 0.21580  0.41850  0.18057  Biso   1.000  H
  H91      1.0000 0.20270  0.41850  0.31943  Biso   1.000  H
  H92      1.0000 0.21580  0.79730  0.98610  Biso   1.000  H
  H93      1.0000 0.58150  0.78420  0.65277  Biso   1.000  H
  H94      1.0000 0.79730  0.58150  0.81943  Biso   1.000  H
  H95      1.0000 0.78420  0.20270  0.48610  Biso   1.000  H
  H96      1.0000 0.41850  0.21580  0.15277  Biso   1.000  H
  O37      1.0000 0.14970  0.69490  0.10352  Biso   1.000  O
  O38      1.0000 0.30510  0.45480  0.43685  Biso   1.000  O
  O39      1.0000 0.54520  0.85030  0.77019  Biso   1.000  O
  O40      1.0000 0.85030  0.30510  0.60352  Biso   1.000  O
  O41      1.0000 0.69490  0.54520  0.93685  Biso   1.000  O
  O42      1.0000 0.45480  0.14970  0.27019  Biso   1.000  O
  O43      1.0000 0.69490  0.14970  0.22981  Biso   1.000  O
  O44      1.0000 0.45480  0.30510  0.89648  Biso   1.000  O
  O45      1.0000 0.85030  0.54520  0.56315  Biso   1.000  O
  O46      1.0000 0.30510  0.85030  0.72981  Biso   1.000  O
  O47      1.0000 0.54520  0.69490  0.39648  Biso   1.000  O
  O48      1.0000 0.14970  0.45480  0.06315  Biso   1.000  O
  H97      1.0000 0.14460  0.66970  0.13630  Biso   1.000  H
  H98      1.0000 0.33030  0.47490  0.46963  Biso   1.000  H
  H99      1.0000 0.52510  0.85540  0.80297  Biso   1.000  H
  H100     1.0000 0.85540  0.33030  0.63630  Biso   1.000  H
  H101     1.0000 0.66970  0.52510  0.96963  Biso   1.000  H
  H102     1.0000 0.47490  0.14460  0.30297  Biso   1.000  H
  H103     1.0000 0.66970  0.14460  0.19703  Biso   1.000  H
  H104     1.0000 0.47490  0.33030  0.86370  Biso   1.000  H
  H105     1.0000 0.85540  0.52510  0.53037  Biso   1.000  H
  H106     1.0000 0.33030  0.85540  0.69703  Biso   1.000  H
  H107     1.0000 0.52510  0.66970  0.36370  Biso   1.000  H
  H108     1.0000 0.14460  0.47490  0.03037  Biso   1.000  H
  H109     1.0000 0.16170  0.63920  0.08360  Biso   1.000  H
  H110     1.0000 0.36080  0.52250  0.41693  Biso   1.000  H
  H111     1.0000 0.47750  0.83830  0.75027  Biso   1.000  H
  H112     1.0000 0.83830  0.36080  0.58360  Biso   1.000  H
  H113     1.0000 0.63920  0.47750  0.91693  Biso   1.000  H
  H114     1.0000 0.52250  0.16170  0.25027  Biso   1.000  H
  H115     1.0000 0.63920  0.16170  0.24973  Biso   1.000  H
  H116     1.0000 0.52250  0.36080  0.91640  Biso   1.000  H
  H117     1.0000 0.83830  0.47750  0.58307  Biso   1.000  H
  H118     1.0000 0.36080  0.83830  0.74973  Biso   1.000  H
  H119     1.0000 0.47750  0.63920  0.41640  Biso   1.000  H
  H120     1.0000 0.16170  0.52250  0.08307  Biso   1.000  H
