data_image0
_cell_length_a       11.0533
_cell_length_b       11.0533
_cell_length_c       24.67
_cell_angle_alpha    90
_cell_angle_beta     90
_cell_angle_gamma    120

_symmetry_space_group_name_H-M    "P 1"
_symmetry_int_tables_number       1

loop_
  _symmetry_equiv_pos_as_xyz
  'x, y, z'

loop_
  _atom_site_label
  _atom_site_occupancy
  _atom_site_fract_x
  _atom_site_fract_y
  _atom_site_fract_z
  _atom_site_thermal_displace_type
  _atom_site_B_iso_or_equiv
  _atom_site_type_symbol
  Cu1      1.0000 0.51606  0.00000  0.00000  Biso   1.000  Cu
  Cu2      1.0000 0.00000  0.51606  0.33333  Biso   1.000  Cu
  Cu3      1.0000 0.48394  0.48394  0.66667  Biso   1.000  Cu
  Cu4      1.0000 0.48394  0.00000  0.50000  Biso   1.000  Cu
  Cu5      1.0000 0.00000  0.48394  0.83333  Biso   1.000  Cu
  Cu6      1.0000 0.51606  0.51606  0.16667  Biso   1.000  Cu
  C1       1.0000 0.95020  0.00000  0.00000  Biso   1.000  C
  C2       1.0000 0.00000  0.95020  0.33333  Biso   1.000  C
  C3       1.0000 0.04980  0.04980  0.66667  Biso   1.000  C
  C4       1.0000 0.04980  0.00000  0.50000  Biso   1.000  C
  C5       1.0000 0.00000  0.04980  0.83333  Biso   1.000  C
  C6       1.0000 0.95020  0.95020  0.16667  Biso   1.000  C
  O1       1.0000 0.60793  0.17415  0.04203  Biso   1.000  O
  O2       1.0000 0.82585  0.43378  0.37536  Biso   1.000  O
  O3       1.0000 0.56622  0.39207  0.70870  Biso   1.000  O
  O4       1.0000 0.39207  0.82585  0.54203  Biso   1.000  O
  O5       1.0000 0.17415  0.56622  0.87536  Biso   1.000  O
  O6       1.0000 0.43378  0.60793  0.20870  Biso   1.000  O
  O7       1.0000 0.17415  0.60793  0.29130  Biso   1.000  O
  O8       1.0000 0.43378  0.82585  0.95797  Biso   1.000  O
  O9       1.0000 0.39207  0.56622  0.62464  Biso   1.000  O
  O10      1.0000 0.82585  0.39207  0.79130  Biso   1.000  O
  O11      1.0000 0.56622  0.17415  0.45797  Biso   1.000  O
  O12      1.0000 0.60793  0.43378  0.12464  Biso   1.000  O
  N1       1.0000 0.33630  0.00000  0.00000  Biso   1.000  N
  N2       1.0000 0.00000  0.33630  0.33333  Biso   1.000  N
  N3       1.0000 0.66370  0.66370  0.66667  Biso   1.000  N
  N4       1.0000 0.66370  0.00000  0.50000  Biso   1.000  N
  N5       1.0000 0.00000  0.66370  0.83333  Biso   1.000  N
  N6       1.0000 0.33630  0.33630  0.16667  Biso   1.000  N
  N7       1.0000 0.69770  0.00000  0.00000  Biso   1.000  N
  N8       1.0000 0.00000  0.69770  0.33333  Biso   1.000  N
  N9       1.0000 0.30230  0.30230  0.66667  Biso   1.000  N
  N10      1.0000 0.30230  0.00000  0.50000  Biso   1.000  N
  N11      1.0000 0.00000  0.30230  0.83333  Biso   1.000  N
  N12      1.0000 0.69770  0.69770  0.16667  Biso   1.000  N
  C7       1.0000 0.78620  0.33610  0.10007  Biso   1.000  C
  C8       1.0000 0.66390  0.45010  0.43340  Biso   1.000  C
  C9       1.0000 0.54990  0.21380  0.76674  Biso   1.000  C
  C10      1.0000 0.21380  0.66390  0.60007  Biso   1.000  C
  C11      1.0000 0.33610  0.54990  0.93340  Biso   1.000  C
  C12      1.0000 0.45010  0.78620  0.26674  Biso   1.000  C
  C13      1.0000 0.33610  0.78620  0.23326  Biso   1.000  C
  C14      1.0000 0.45010  0.66390  0.89993  Biso   1.000  C
  C15      1.0000 0.21380  0.54990  0.56660  Biso   1.000  C
  C16      1.0000 0.66390  0.21380  0.73326  Biso   1.000  C
  C17      1.0000 0.54990  0.33610  0.39993  Biso   1.000  C
  C18      1.0000 0.78620  0.45010  0.06660  Biso   1.000  C
  H1       1.0000 0.78090  0.35620  0.13880  Biso   1.000  H
  H2       1.0000 0.64380  0.42470  0.47213  Biso   1.000  H
  H3       1.0000 0.57530  0.21910  0.80547  Biso   1.000  H
  H4       1.0000 0.21910  0.64380  0.63880  Biso   1.000  H
  H5       1.0000 0.35620  0.57530  0.97213  Biso   1.000  H
  H6       1.0000 0.42470  0.78090  0.30547  Biso   1.000  H
  H7       1.0000 0.35620  0.78090  0.19453  Biso   1.000  H
  H8       1.0000 0.42470  0.64380  0.86120  Biso   1.000  H
  H9       1.0000 0.21910  0.57530  0.52787  Biso   1.000  H
  H10      1.0000 0.64380  0.21910  0.69453  Biso   1.000  H
  H11      1.0000 0.57530  0.35620  0.36120  Biso   1.000  H
  H12      1.0000 0.78090  0.42470  0.02787  Biso   1.000  H
  H13      1.0000 0.87600  0.33860  0.09440  Biso   1.000  H
  H14      1.0000 0.66140  0.53740  0.42773  Biso   1.000  H
  H15      1.0000 0.46260  0.12400  0.76107  Biso   1.000  H
  H16      1.0000 0.12400  0.66140  0.59440  Biso   1.000  H
  H17      1.0000 0.33860  0.46260  0.92773  Biso   1.000  H
  H18      1.0000 0.53740  0.87600  0.26107  Biso   1.000  H
  H19      1.0000 0.33860  0.87600  0.23893  Biso   1.000  H
  H20      1.0000 0.53740  0.66140  0.90560  Biso   1.000  H
  H21      1.0000 0.12400  0.46260  0.57227  Biso   1.000  H
  H22      1.0000 0.66140  0.12400  0.73893  Biso   1.000  H
  H23      1.0000 0.46260  0.33860  0.40560  Biso   1.000  H
  H24      1.0000 0.87600  0.53740  0.07227  Biso   1.000  H
  C19      1.0000 0.82450  0.87900  0.01103  Biso   1.000  C
  C20      1.0000 0.12100  0.94550  0.34436  Biso   1.000  C
  C21      1.0000 0.05450  0.17550  0.67770  Biso   1.000  C
  C22      1.0000 0.17550  0.12100  0.51103  Biso   1.000  C
  C23      1.0000 0.87900  0.05450  0.84436  Biso   1.000  C
  C24      1.0000 0.94550  0.82450  0.17770  Biso   1.000  C
  C25      1.0000 0.87900  0.82450  0.32230  Biso   1.000  C
  C26      1.0000 0.94550  0.12100  0.98897  Biso   1.000  C
  C27      1.0000 0.17550  0.05450  0.65564  Biso   1.000  C
  C28      1.0000 0.12100  0.17550  0.82230  Biso   1.000  C
  C29      1.0000 0.05450  0.87900  0.48897  Biso   1.000  C
  C30      1.0000 0.82450  0.94550  0.15564  Biso   1.000  C
  H25      1.0000 0.82320  0.79440  0.01920  Biso   1.000  H
  H26      1.0000 0.20560  0.02880  0.35253  Biso   1.000  H
  H27      1.0000 0.97120  0.17680  0.68587  Biso   1.000  H
  H28      1.0000 0.17680  0.20560  0.51920  Biso   1.000  H
  H29      1.0000 0.79440  0.97120  0.85253  Biso   1.000  H
  H30      1.0000 0.02880  0.82320  0.18587  Biso   1.000  H
  H31      1.0000 0.79440  0.82320  0.31413  Biso   1.000  H
  H32      1.0000 0.02880  0.20560  0.98080  Biso   1.000  H
  H33      1.0000 0.17680  0.97120  0.64747  Biso   1.000  H
  H34      1.0000 0.20560  0.17680  0.81413  Biso   1.000  H
  H35      1.0000 0.97120  0.79440  0.48080  Biso   1.000  H
  H36      1.0000 0.82320  0.02880  0.14747  Biso   1.000  H
  C31      1.0000 0.70150  0.88310  0.00996  Biso   1.000  C
  C32      1.0000 0.11690  0.81840  0.34329  Biso   1.000  C
  C33      1.0000 0.18160  0.29850  0.67663  Biso   1.000  C
  C34      1.0000 0.29850  0.11690  0.50996  Biso   1.000  C
  C35      1.0000 0.88310  0.18160  0.84329  Biso   1.000  C
  C36      1.0000 0.81840  0.70150  0.17663  Biso   1.000  C
  C37      1.0000 0.88310  0.70150  0.32337  Biso   1.000  C
  C38      1.0000 0.81840  0.11690  0.99004  Biso   1.000  C
  C39      1.0000 0.29850  0.18160  0.65671  Biso   1.000  C
  C40      1.0000 0.11690  0.29850  0.82337  Biso   1.000  C
  C41      1.0000 0.18160  0.88310  0.49004  Biso   1.000  C
  C42      1.0000 0.70150  0.81840  0.15671  Biso   1.000  C
  H37      1.0000 0.61600  0.79920  0.01660  Biso   1.000  H
  H38      1.0000 0.20080  0.81680  0.34993  Biso   1.000  H
  H39      1.0000 0.18320  0.38400  0.68327  Biso   1.000  H
  H40      1.0000 0.38400  0.20080  0.51660  Biso   1.000  H
  H41      1.0000 0.79920  0.18320  0.84993  Biso   1.000  H
  H42      1.0000 0.81680  0.61600  0.18327  Biso   1.000  H
  H43      1.0000 0.79920  0.61600  0.31673  Biso   1.000  H
  H44      1.0000 0.81680  0.20080  0.98340  Biso   1.000  H
  H45      1.0000 0.38400  0.18320  0.65007  Biso   1.000  H
  H46      1.0000 0.20080  0.38400  0.81673  Biso   1.000  H
  H47      1.0000 0.18320  0.79920  0.48340  Biso   1.000  H
  H48      1.0000 0.61600  0.81680  0.15007  Biso   1.000  H
  O13      1.0000 0.63940  0.09400  0.12087  Biso   1.000  O
  O14      1.0000 0.90600  0.54540  0.45420  Biso   1.000  O
  O15      1.0000 0.45460  0.36060  0.78754  Biso   1.000  O
  O16      1.0000 0.36060  0.90600  0.62087  Biso   1.000  O
  O17      1.0000 0.09400  0.45460  0.95420  Biso   1.000  O
  O18      1.0000 0.54540  0.63940  0.28754  Biso   1.000  O
  O19      1.0000 0.09400  0.63940  0.21246  Biso   1.000  O
  O20      1.0000 0.54540  0.90600  0.87913  Biso   1.000  O
  O21      1.0000 0.36060  0.45460  0.54580  Biso   1.000  O
  O22      1.0000 0.90600  0.36060  0.71246  Biso   1.000  O
  O23      1.0000 0.45460  0.09400  0.37913  Biso   1.000  O
  O24      1.0000 0.63940  0.54540  0.04580  Biso   1.000  O
  O25      1.0000 0.43660  0.84620  0.08169  Biso   1.000  O
  O26      1.0000 0.15380  0.59040  0.41502  Biso   1.000  O
  O27      1.0000 0.40960  0.56340  0.74836  Biso   1.000  O
  O28      1.0000 0.56340  0.15380  0.58169  Biso   1.000  O
  O29      1.0000 0.84620  0.40960  0.91502  Biso   1.000  O
  O30      1.0000 0.59040  0.43660  0.24836  Biso   1.000  O
  O31      1.0000 0.84620  0.43660  0.25164  Biso   1.000  O
  O32      1.0000 0.59040  0.15380  0.91831  Biso   1.000  O
  O33      1.0000 0.56340  0.40960  0.58498  Biso   1.000  O
  O34      1.0000 0.15380  0.56340  0.75164  Biso   1.000  O
  O35      1.0000 0.40960  0.84620  0.41831  Biso   1.000  O
  O36      1.0000 0.43660  0.59040  0.08498  Biso   1.000  O
  H49      1.0000 0.50190  0.91700  0.09760  Biso   1.000  H
  H50      1.0000 0.08300  0.58490  0.43093  Biso   1.000  H
  H51      1.0000 0.41510  0.49810  0.76427  Biso   1.000  H
  H52      1.0000 0.49810  0.08300  0.59760  Biso   1.000  H
  H53      1.0000 0.91700  0.41510  0.93093  Biso   1.000  H
  H54      1.0000 0.58490  0.50190  0.26427  Biso   1.000  H
  H55      1.0000 0.91700  0.50190  0.23573  Biso   1.000  H
  H56      1.0000 0.58490  0.08300  0.90240  Biso   1.000  H
  H57      1.0000 0.49810  0.41510  0.56907  Biso   1.000  H
  H58      1.0000 0.08300  0.49810  0.73573  Biso   1.000  H
  H59      1.0000 0.41510  0.91700  0.40240  Biso   1.000  H
  H60      1.0000 0.50190  0.58490  0.06907  Biso   1.000  H
  H61      1.0000 0.36110  0.82090  0.09900  Biso   1.000  H
  H62      1.0000 0.17910  0.54020  0.43233  Biso   1.000  H
  H63      1.0000 0.45980  0.63890  0.76567  Biso   1.000  H
  H64      1.0000 0.63890  0.17910  0.59900  Biso   1.000  H
  H65      1.0000 0.82090  0.45980  0.93233  Biso   1.000  H
  H66      1.0000 0.54020  0.36110  0.26567  Biso   1.000  H
  H67      1.0000 0.82090  0.36110  0.23433  Biso   1.000  H
  H68      1.0000 0.54020  0.17910  0.90100  Biso   1.000  H
  H69      1.0000 0.63890  0.45980  0.56767  Biso   1.000  H
  H70      1.0000 0.17910  0.63890  0.73433  Biso   1.000  H
  H71      1.0000 0.45980  0.82090  0.40100  Biso   1.000  H
  H72      1.0000 0.36110  0.54020  0.06767  Biso   1.000  H
  C43      1.0000 0.66790  0.18990  0.08760  Biso   1.000  C
  C44      1.0000 0.81010  0.47800  0.42093  Biso   1.000  C
  C45      1.0000 0.52200  0.33210  0.75427  Biso   1.000  C
  C46      1.0000 0.33210  0.81010  0.58760  Biso   1.000  C
  C47      1.0000 0.18990  0.52200  0.92093  Biso   1.000  C
  C48      1.0000 0.47800  0.66790  0.25427  Biso   1.000  C
  C49      1.0000 0.18990  0.66790  0.24573  Biso   1.000  C
  C50      1.0000 0.47800  0.81010  0.91240  Biso   1.000  C
  C51      1.0000 0.33210  0.52200  0.57907  Biso   1.000  C
  C52      1.0000 0.81010  0.33210  0.74573  Biso   1.000  C
  C53      1.0000 0.52200  0.18990  0.41240  Biso   1.000  C
  C54      1.0000 0.66790  0.47800  0.07907  Biso   1.000  C
  C55      1.0000 0.08290  0.00000  0.00000  Biso   1.000  C
  C56      1.0000 0.00000  0.08290  0.33333  Biso   1.000  C
  C57      1.0000 0.91710  0.91710  0.66667  Biso   1.000  C
  C58      1.0000 0.91710  0.00000  0.50000  Biso   1.000  C
  C59      1.0000 1.00000  0.91710  0.83333  Biso   1.000  C
  C60      1.0000 0.08290  0.08290  0.16667  Biso   1.000  C
  C61      1.0000 0.20990  0.12220  0.00898  Biso   1.000  C
  C62      1.0000 0.87780  0.08770  0.34231  Biso   1.000  C
  C63      1.0000 0.91230  0.79010  0.67565  Biso   1.000  C
  C64      1.0000 0.79010  0.87780  0.50898  Biso   1.000  C
  C65      1.0000 0.12220  0.91230  0.84231  Biso   1.000  C
  C66      1.0000 0.08770  0.20990  0.17565  Biso   1.000  C
  C67      1.0000 0.12220  0.20990  0.32435  Biso   1.000  C
  C68      1.0000 0.08770  0.87780  0.99102  Biso   1.000  C
  C69      1.0000 0.79010  0.91230  0.65769  Biso   1.000  C
  C70      1.0000 0.87780  0.79010  0.82435  Biso   1.000  C
  C71      1.0000 0.91230  0.12220  0.49102  Biso   1.000  C
  C72      1.0000 0.20990  0.08770  0.15769  Biso   1.000  C
  H73      1.0000 0.21180  0.20780  0.01550  Biso   1.000  H
  H74      1.0000 0.79220  0.00400  0.34883  Biso   1.000  H
  H75      1.0000 0.99600  0.78820  0.68217  Biso   1.000  H
  H76      1.0000 0.78820  0.79220  0.51550  Biso   1.000  H
  H77      1.0000 0.20780  0.99600  0.84883  Biso   1.000  H
  H78      1.0000 0.00400  0.21180  0.18217  Biso   1.000  H
  H79      1.0000 0.20780  0.21180  0.31783  Biso   1.000  H
  H80      1.0000 0.00400  0.79220  0.98450  Biso   1.000  H
  H81      1.0000 0.78820  0.99600  0.65117  Biso   1.000  H
  H82      1.0000 0.79220  0.78820  0.81783  Biso   1.000  H
  H83      1.0000 0.99600  0.20780  0.48450  Biso   1.000  H
  H84      1.0000 0.21180  0.00400  0.15117  Biso   1.000  H
  C73      1.0000 0.33310  0.11820  0.00832  Biso   1.000  C
  C74      1.0000 0.88180  0.21490  0.34165  Biso   1.000  C
  C75      1.0000 0.78510  0.66690  0.67499  Biso   1.000  C
  C76      1.0000 0.66690  0.88180  0.50832  Biso   1.000  C
  C77      1.0000 0.11820  0.78510  0.84165  Biso   1.000  C
  C78      1.0000 0.21490  0.33310  0.17499  Biso   1.000  C
  C79      1.0000 0.11820  0.33310  0.32501  Biso   1.000  C
  C80      1.0000 0.21490  0.88180  0.99168  Biso   1.000  C
  C81      1.0000 0.66690  0.78510  0.65835  Biso   1.000  C
  C82      1.0000 0.88180  0.66690  0.82501  Biso   1.000  C
  C83      1.0000 0.78510  0.11820  0.49168  Biso   1.000  C
  C84      1.0000 0.33310  0.21490  0.15835  Biso   1.000  C
  H85      1.0000 0.41870  0.20260  0.01400  Biso   1.000  H
  H86      1.0000 0.79740  0.21610  0.34733  Biso   1.000  H
  H87      1.0000 0.78390  0.58130  0.68067  Biso   1.000  H
  H88      1.0000 0.58130  0.79740  0.51400  Biso   1.000  H
  H89      1.0000 0.20260  0.78390  0.84733  Biso   1.000  H
  H90      1.0000 0.21610  0.41870  0.18067  Biso   1.000  H
  H91      1.0000 0.20260  0.41870  0.31933  Biso   1.000  H
  H92      1.0000 0.21610  0.79740  0.98600  Biso   1.000  H
  H93      1.0000 0.58130  0.78390  0.65267  Biso   1.000  H
  H94      1.0000 0.79740  0.58130  0.81933  Biso   1.000  H
  H95      1.0000 0.78390  0.20260  0.48600  Biso   1.000  H
  H96      1.0000 0.41870  0.21610  0.15267  Biso   1.000  H
  O37      1.0000 0.15010  0.69270  0.10330  Biso   1.000  O
  O38      1.0000 0.30730  0.45740  0.43663  Biso   1.000  O
  O39      1.0000 0.54260  0.84990  0.76997  Biso   1.000  O
  O40      1.0000 0.84990  0.30730  0.60330  Biso   1.000  O
  O41      1.0000 0.69270  0.54260  0.93663  Biso   1.000  O
  O42      1.0000 0.45740  0.15010  0.26997  Biso   1.000  O
  O43      1.0000 0.69270  0.15010  0.23003  Biso   1.000  O
  O44      1.0000 0.45740  0.30730  0.89670  Biso   1.000  O
  O45      1.0000 0.84990  0.54260  0.56337  Biso   1.000  O
  O46      1.0000 0.30730  0.84990  0.73003  Biso   1.000  O
  O47      1.0000 0.54260  0.69270  0.39670  Biso   1.000  O
  O48      1.0000 0.15010  0.45740  0.06337  Biso   1.000  O
  H97      1.0000 0.14450  0.67600  0.13710  Biso   1.000  H
  H98      1.0000 0.32400  0.46850  0.47043  Biso   1.000  H
  H99      1.0000 0.53150  0.85550  0.80377  Biso   1.000  H
  H100     1.0000 0.85550  0.32400  0.63710  Biso   1.000  H
  H101     1.0000 0.67600  0.53150  0.97043  Biso   1.000  H
  H102     1.0000 0.46850  0.14450  0.30377  Biso   1.000  H
  H103     1.0000 0.67600  0.14450  0.19623  Biso   1.000  H
  H104     1.0000 0.46850  0.32400  0.86290  Biso   1.000  H
  H105     1.0000 0.85550  0.53150  0.52957  Biso   1.000  H
  H106     1.0000 0.32400  0.85550  0.69623  Biso   1.000  H
  H107     1.0000 0.53150  0.67600  0.36290  Biso   1.000  H
  H108     1.0000 0.14450  0.46850  0.02957  Biso   1.000  H
  H109     1.0000 0.13090  0.75720  0.09790  Biso   1.000  H
  H110     1.0000 0.24280  0.37370  0.43123  Biso   1.000  H
  H111     1.0000 0.62630  0.86910  0.76457  Biso   1.000  H
  H112     1.0000 0.86910  0.24280  0.59790  Biso   1.000  H
  H113     1.0000 0.75720  0.62630  0.93123  Biso   1.000  H
  H114     1.0000 0.37370  0.13090  0.26457  Biso   1.000  H
  H115     1.0000 0.75720  0.13090  0.23543  Biso   1.000  H
  H116     1.0000 0.37370  0.24280  0.90210  Biso   1.000  H
  H117     1.0000 0.86910  0.62630  0.56877  Biso   1.000  H
  H118     1.0000 0.24280  0.86910  0.73543  Biso   1.000  H
  H119     1.0000 0.62630  0.75720  0.40210  Biso   1.000  H
  H120     1.0000 0.13090  0.37370  0.06877  Biso   1.000  H
