data_image0
_cell_length_a       11.0229
_cell_length_b       11.0229
_cell_length_c       24.815
_cell_angle_alpha    90
_cell_angle_beta     90
_cell_angle_gamma    120

_symmetry_space_group_name_H-M    "P 1"
_symmetry_int_tables_number       1

loop_
  _symmetry_equiv_pos_as_xyz
  'x, y, z'

loop_
  _atom_site_label
  _atom_site_occupancy
  _atom_site_fract_x
  _atom_site_fract_y
  _atom_site_fract_z
  _atom_site_thermal_displace_type
  _atom_site_B_iso_or_equiv
  _atom_site_type_symbol
  Cu1      1.0000 0.48475  0.00000  0.50000  Biso   1.000  Cu
  Cu2      1.0000 0.00000  0.48475  0.83333  Biso   1.000  Cu
  Cu3      1.0000 0.51525  0.51525  0.16667  Biso   1.000  Cu
  Cu4      1.0000 0.51525  0.00000  0.00000  Biso   1.000  Cu
  Cu5      1.0000 0.00000  0.51525  0.33333  Biso   1.000  Cu
  Cu6      1.0000 0.48475  0.48475  0.66667  Biso   1.000  Cu
  N1       1.0000 0.66460  0.00000  0.50000  Biso   1.000  N
  N2       1.0000 0.00000  0.66460  0.83333  Biso   1.000  N
  N3       1.0000 0.33540  0.33540  0.16667  Biso   1.000  N
  N4       1.0000 0.33540  0.00000  0.00000  Biso   1.000  N
  N5       1.0000 0.00000  0.33540  0.33333  Biso   1.000  N
  N6       1.0000 0.66460  0.66460  0.66667  Biso   1.000  N
  O1       1.0000 0.45650  0.09310  0.37945  Biso   1.000  O
  O2       1.0000 0.90690  0.36340  0.71278  Biso   1.000  O
  O3       1.0000 0.63660  0.54350  0.04612  Biso   1.000  O
  O4       1.0000 0.54350  0.90690  0.87945  Biso   1.000  O
  O5       1.0000 0.09310  0.63660  0.21278  Biso   1.000  O
  O6       1.0000 0.36340  0.45650  0.54612  Biso   1.000  O
  O7       1.0000 0.09310  0.45650  0.95388  Biso   1.000  O
  O8       1.0000 0.36340  0.90690  0.62055  Biso   1.000  O
  O9       1.0000 0.54350  0.63660  0.28722  Biso   1.000  O
  O10      1.0000 0.90690  0.54350  0.45388  Biso   1.000  O
  O11      1.0000 0.63660  0.09310  0.12055  Biso   1.000  O
  O12      1.0000 0.45650  0.36340  0.78722  Biso   1.000  O
  N7       1.0000 0.30350  0.00000  0.50000  Biso   1.000  N
  N8       1.0000 0.00000  0.30350  0.83333  Biso   1.000  N
  N9       1.0000 0.69650  0.69650  0.16667  Biso   1.000  N
  N10      1.0000 0.69650  0.00000  0.00000  Biso   1.000  N
  N11      1.0000 0.00000  0.69650  0.33333  Biso   1.000  N
  N12      1.0000 0.30350  0.30350  0.66667  Biso   1.000  N
  C1       1.0000 0.18250  0.88400  0.49019  Biso   1.000  C
  C2       1.0000 0.11600  0.29850  0.82352  Biso   1.000  C
  C3       1.0000 0.70150  0.81750  0.15686  Biso   1.000  C
  C4       1.0000 0.81750  0.11600  0.99019  Biso   1.000  C
  C5       1.0000 0.88400  0.70150  0.32352  Biso   1.000  C
  C6       1.0000 0.29850  0.18250  0.65686  Biso   1.000  C
  C7       1.0000 0.88400  0.18250  0.84314  Biso   1.000  C
  C8       1.0000 0.29850  0.11600  0.50981  Biso   1.000  C
  C9       1.0000 0.81750  0.70150  0.17648  Biso   1.000  C
  C10      1.0000 0.11600  0.81750  0.34314  Biso   1.000  C
  C11      1.0000 0.70150  0.88400  0.00981  Biso   1.000  C
  C12      1.0000 0.18250  0.29850  0.67648  Biso   1.000  C
  H1       1.0000 0.18340  0.80040  0.48390  Biso   1.000  H
  H2       1.0000 0.19960  0.38300  0.81723  Biso   1.000  H
  H3       1.0000 0.61700  0.81660  0.15057  Biso   1.000  H
  H4       1.0000 0.81660  0.19960  0.98390  Biso   1.000  H
  H5       1.0000 0.80040  0.61700  0.31723  Biso   1.000  H
  H6       1.0000 0.38300  0.18340  0.65057  Biso   1.000  H
  H7       1.0000 0.80040  0.18340  0.84943  Biso   1.000  H
  H8       1.0000 0.38300  0.19960  0.51610  Biso   1.000  H
  H9       1.0000 0.81660  0.61700  0.18277  Biso   1.000  H
  H10      1.0000 0.19960  0.81660  0.34943  Biso   1.000  H
  H11      1.0000 0.61700  0.80040  0.01610  Biso   1.000  H
  H12      1.0000 0.18340  0.38300  0.68277  Biso   1.000  H
  O13      1.0000 0.56680  0.17280  0.45795  Biso   1.000  O
  O14      1.0000 0.82720  0.39400  0.79128  Biso   1.000  O
  O15      1.0000 0.60600  0.43320  0.12462  Biso   1.000  O
  O16      1.0000 0.43320  0.82720  0.95795  Biso   1.000  O
  O17      1.0000 0.17280  0.60600  0.29128  Biso   1.000  O
  O18      1.0000 0.39400  0.56680  0.62462  Biso   1.000  O
  O19      1.0000 0.17280  0.56680  0.87538  Biso   1.000  O
  O20      1.0000 0.39400  0.82720  0.54205  Biso   1.000  O
  O21      1.0000 0.43320  0.60600  0.20872  Biso   1.000  O
  O22      1.0000 0.82720  0.43320  0.37538  Biso   1.000  O
  O23      1.0000 0.60600  0.17280  0.04205  Biso   1.000  O
  O24      1.0000 0.56680  0.39400  0.70872  Biso   1.000  O
  C13      1.0000 0.55170  0.33520  0.40016  Biso   1.000  C
  C14      1.0000 0.66480  0.21650  0.73349  Biso   1.000  C
  C15      1.0000 0.78350  0.44830  0.06683  Biso   1.000  C
  C16      1.0000 0.44830  0.66480  0.90016  Biso   1.000  C
  C17      1.0000 0.33520  0.78350  0.23349  Biso   1.000  C
  C18      1.0000 0.21650  0.55170  0.56683  Biso   1.000  C
  C19      1.0000 0.33520  0.55170  0.93317  Biso   1.000  C
  C20      1.0000 0.21650  0.66480  0.59984  Biso   1.000  C
  C21      1.0000 0.44830  0.78350  0.26651  Biso   1.000  C
  C22      1.0000 0.66480  0.44830  0.43317  Biso   1.000  C
  C23      1.0000 0.78350  0.33520  0.09984  Biso   1.000  C
  C24      1.0000 0.55170  0.21650  0.76651  Biso   1.000  C
  H13      1.0000 0.46510  0.33800  0.40560  Biso   1.000  H
  H14      1.0000 0.66200  0.12710  0.73893  Biso   1.000  H
  H15      1.0000 0.87290  0.53490  0.07227  Biso   1.000  H
  H16      1.0000 0.53490  0.66200  0.90560  Biso   1.000  H
  H17      1.0000 0.33800  0.87290  0.23893  Biso   1.000  H
  H18      1.0000 0.12710  0.46510  0.57227  Biso   1.000  H
  H19      1.0000 0.33800  0.46510  0.92773  Biso   1.000  H
  H20      1.0000 0.12710  0.66200  0.59440  Biso   1.000  H
  H21      1.0000 0.53490  0.87290  0.26107  Biso   1.000  H
  H22      1.0000 0.66200  0.53490  0.42773  Biso   1.000  H
  H23      1.0000 0.87290  0.33800  0.09440  Biso   1.000  H
  H24      1.0000 0.46510  0.12710  0.76107  Biso   1.000  H
  H25      1.0000 0.57710  0.35470  0.36200  Biso   1.000  H
  H26      1.0000 0.64530  0.22240  0.69533  Biso   1.000  H
  H27      1.0000 0.77760  0.42290  0.02867  Biso   1.000  H
  H28      1.0000 0.42290  0.64530  0.86200  Biso   1.000  H
  H29      1.0000 0.35470  0.77760  0.19533  Biso   1.000  H
  H30      1.0000 0.22240  0.57710  0.52867  Biso   1.000  H
  H31      1.0000 0.35470  0.57710  0.97133  Biso   1.000  H
  H32      1.0000 0.22240  0.64530  0.63800  Biso   1.000  H
  H33      1.0000 0.42290  0.77760  0.30467  Biso   1.000  H
  H34      1.0000 0.64530  0.42290  0.47133  Biso   1.000  H
  H35      1.0000 0.77760  0.35470  0.13800  Biso   1.000  H
  H36      1.0000 0.57710  0.22240  0.80467  Biso   1.000  H
  C25      1.0000 0.52310  0.18860  0.41282  Biso   1.000  C
  C26      1.0000 0.81140  0.33450  0.74615  Biso   1.000  C
  C27      1.0000 0.66550  0.47690  0.07949  Biso   1.000  C
  C28      1.0000 0.47690  0.81140  0.91282  Biso   1.000  C
  C29      1.0000 0.18860  0.66550  0.24615  Biso   1.000  C
  C30      1.0000 0.33450  0.52310  0.57949  Biso   1.000  C
  C31      1.0000 0.18860  0.52310  0.92051  Biso   1.000  C
  C32      1.0000 0.33450  0.81140  0.58718  Biso   1.000  C
  C33      1.0000 0.47690  0.66550  0.25385  Biso   1.000  C
  C34      1.0000 0.81140  0.47690  0.42051  Biso   1.000  C
  C35      1.0000 0.66550  0.18860  0.08718  Biso   1.000  C
  C36      1.0000 0.52310  0.33450  0.75385  Biso   1.000  C
  O25      1.0000 0.56720  0.15360  0.58186  Biso   1.000  O
  O26      1.0000 0.84640  0.41360  0.91519  Biso   1.000  O
  O27      1.0000 0.58640  0.43280  0.24853  Biso   1.000  O
  O28      1.0000 0.43280  0.84640  0.08186  Biso   1.000  O
  O29      1.0000 0.15360  0.58640  0.41519  Biso   1.000  O
  O30      1.0000 0.41360  0.56720  0.74853  Biso   1.000  O
  O31      1.0000 0.15360  0.56720  0.75147  Biso   1.000  O
  O32      1.0000 0.41360  0.84640  0.41814  Biso   1.000  O
  O33      1.0000 0.43280  0.58640  0.08481  Biso   1.000  O
  O34      1.0000 0.84640  0.43280  0.25147  Biso   1.000  O
  O35      1.0000 0.58640  0.15360  0.91814  Biso   1.000  O
  O36      1.0000 0.56720  0.41360  0.58481  Biso   1.000  O
  H37      1.0000 0.49620  0.09000  0.59840  Biso   1.000  H
  H38      1.0000 0.91000  0.40620  0.93173  Biso   1.000  H
  H39      1.0000 0.59380  0.50380  0.26507  Biso   1.000  H
  H40      1.0000 0.50380  0.91000  0.09840  Biso   1.000  H
  H41      1.0000 0.09000  0.59380  0.43173  Biso   1.000  H
  H42      1.0000 0.40620  0.49620  0.76507  Biso   1.000  H
  H43      1.0000 0.09000  0.49620  0.73493  Biso   1.000  H
  H44      1.0000 0.40620  0.91000  0.40160  Biso   1.000  H
  H45      1.0000 0.50380  0.59380  0.06827  Biso   1.000  H
  H46      1.0000 0.91000  0.50380  0.23493  Biso   1.000  H
  H47      1.0000 0.59380  0.09000  0.90160  Biso   1.000  H
  H48      1.0000 0.49620  0.40620  0.56827  Biso   1.000  H
  H49      1.0000 0.58420  0.23270  0.59400  Biso   1.000  H
  H50      1.0000 0.76730  0.35150  0.92733  Biso   1.000  H
  H51      1.0000 0.64850  0.41580  0.26067  Biso   1.000  H
  H52      1.0000 0.41580  0.76730  0.09400  Biso   1.000  H
  H53      1.0000 0.23270  0.64850  0.42733  Biso   1.000  H
  H54      1.0000 0.35150  0.58420  0.76067  Biso   1.000  H
  H55      1.0000 0.23270  0.58420  0.73933  Biso   1.000  H
  H56      1.0000 0.35150  0.76730  0.40600  Biso   1.000  H
  H57      1.0000 0.41580  0.64850  0.07267  Biso   1.000  H
  H58      1.0000 0.76730  0.41580  0.23933  Biso   1.000  H
  H59      1.0000 0.64850  0.23270  0.90600  Biso   1.000  H
  H60      1.0000 0.58420  0.35150  0.57267  Biso   1.000  H
  O37      1.0000 0.45620  0.14770  0.27068  Biso   1.000  O
  O38      1.0000 0.85230  0.30850  0.60401  Biso   1.000  O
  O39      1.0000 0.69150  0.54380  0.93735  Biso   1.000  O
  O40      1.0000 0.54380  0.85230  0.77068  Biso   1.000  O
  O41      1.0000 0.14770  0.69150  0.10401  Biso   1.000  O
  O42      1.0000 0.30850  0.45620  0.43735  Biso   1.000  O
  O43      1.0000 0.14770  0.45620  0.06265  Biso   1.000  O
  O44      1.0000 0.30850  0.85230  0.72932  Biso   1.000  O
  O45      1.0000 0.54380  0.69150  0.39599  Biso   1.000  O
  O46      1.0000 0.85230  0.54380  0.56265  Biso   1.000  O
  O47      1.0000 0.69150  0.14770  0.22932  Biso   1.000  O
  O48      1.0000 0.45620  0.30850  0.89599  Biso   1.000  O
  H61      1.0000 0.51910  0.18690  0.29470  Biso   1.000  H
  H62      1.0000 0.81310  0.33220  0.62803  Biso   1.000  H
  H63      1.0000 0.66780  0.48090  0.96137  Biso   1.000  H
  H64      1.0000 0.48090  0.81310  0.79470  Biso   1.000  H
  H65      1.0000 0.18690  0.66780  0.12803  Biso   1.000  H
  H66      1.0000 0.33220  0.51910  0.46137  Biso   1.000  H
  H67      1.0000 0.18690  0.51910  0.03863  Biso   1.000  H
  H68      1.0000 0.33220  0.81310  0.70530  Biso   1.000  H
  H69      1.0000 0.48090  0.66780  0.37197  Biso   1.000  H
  H70      1.0000 0.81310  0.48090  0.53863  Biso   1.000  H
  H71      1.0000 0.66780  0.18690  0.20530  Biso   1.000  H
  H72      1.0000 0.51910  0.33220  0.87197  Biso   1.000  H
  H73      1.0000 0.37630  0.11570  0.28540  Biso   1.000  H
  H74      1.0000 0.88430  0.26060  0.61873  Biso   1.000  H
  H75      1.0000 0.73940  0.62370  0.95207  Biso   1.000  H
  H76      1.0000 0.62370  0.88430  0.78540  Biso   1.000  H
  H77      1.0000 0.11570  0.73940  0.11873  Biso   1.000  H
  H78      1.0000 0.26060  0.37630  0.45207  Biso   1.000  H
  H79      1.0000 0.11570  0.37630  0.04793  Biso   1.000  H
  H80      1.0000 0.26060  0.88430  0.71460  Biso   1.000  H
  H81      1.0000 0.62370  0.73940  0.38127  Biso   1.000  H
  H82      1.0000 0.88430  0.62370  0.54793  Biso   1.000  H
  H83      1.0000 0.73940  0.11570  0.21460  Biso   1.000  H
  H84      1.0000 0.37630  0.26060  0.88127  Biso   1.000  H
  C37      1.0000 0.66710  0.88140  0.50800  Biso   1.000  C
  C38      1.0000 0.11860  0.78570  0.84133  Biso   1.000  C
  C39      1.0000 0.21430  0.33290  0.17467  Biso   1.000  C
  C40      1.0000 0.33290  0.11860  0.00800  Biso   1.000  C
  C41      1.0000 0.88140  0.21430  0.34133  Biso   1.000  C
  C42      1.0000 0.78570  0.66710  0.67467  Biso   1.000  C
  C43      1.0000 0.88140  0.66710  0.82533  Biso   1.000  C
  C44      1.0000 0.78570  0.11860  0.49200  Biso   1.000  C
  C45      1.0000 0.33290  0.21430  0.15867  Biso   1.000  C
  C46      1.0000 0.11860  0.33290  0.32533  Biso   1.000  C
  C47      1.0000 0.21430  0.88140  0.99200  Biso   1.000  C
  C48      1.0000 0.66710  0.78570  0.65867  Biso   1.000  C
  H85      1.0000 0.58220  0.79760  0.51350  Biso   1.000  H
  H86      1.0000 0.20240  0.78460  0.84683  Biso   1.000  H
  H87      1.0000 0.21540  0.41780  0.18017  Biso   1.000  H
  H88      1.0000 0.41780  0.20240  0.01350  Biso   1.000  H
  H89      1.0000 0.79760  0.21540  0.34683  Biso   1.000  H
  H90      1.0000 0.78460  0.58220  0.68017  Biso   1.000  H
  H91      1.0000 0.79760  0.58220  0.81983  Biso   1.000  H
  H92      1.0000 0.78460  0.20240  0.48650  Biso   1.000  H
  H93      1.0000 0.41780  0.21540  0.15317  Biso   1.000  H
  H94      1.0000 0.20240  0.41780  0.31983  Biso   1.000  H
  H95      1.0000 0.21540  0.79760  0.98650  Biso   1.000  H
  H96      1.0000 0.58220  0.78460  0.65317  Biso   1.000  H
  C49      1.0000 0.05670  0.88040  0.48876  Biso   1.000  C
  C50      1.0000 0.11960  0.17630  0.82209  Biso   1.000  C
  C51      1.0000 0.82370  0.94330  0.15543  Biso   1.000  C
  C52      1.0000 0.94330  0.11960  0.98876  Biso   1.000  C
  C53      1.0000 0.88040  0.82370  0.32209  Biso   1.000  C
  C54      1.0000 0.17630  0.05670  0.65543  Biso   1.000  C
  C55      1.0000 0.88040  0.05670  0.84457  Biso   1.000  C
  C56      1.0000 0.17630  0.11960  0.51124  Biso   1.000  C
  C57      1.0000 0.94330  0.82370  0.17791  Biso   1.000  C
  C58      1.0000 0.11960  0.94330  0.34457  Biso   1.000  C
  C59      1.0000 0.82370  0.88040  0.01124  Biso   1.000  C
  C60      1.0000 0.05670  0.17630  0.67791  Biso   1.000  C
  H97      1.0000 0.97460  0.79650  0.48010  Biso   1.000  H
  H98      1.0000 0.20350  0.17810  0.81343  Biso   1.000  H
  H99      1.0000 0.82190  0.02540  0.14677  Biso   1.000  H
  H100     1.0000 0.02540  0.20350  0.98010  Biso   1.000  H
  H101     1.0000 0.79650  0.82190  0.31343  Biso   1.000  H
  H102     1.0000 0.17810  0.97460  0.64677  Biso   1.000  H
  H103     1.0000 0.79650  0.97460  0.85323  Biso   1.000  H
  H104     1.0000 0.17810  0.20350  0.51990  Biso   1.000  H
  H105     1.0000 0.02540  0.82190  0.18657  Biso   1.000  H
  H106     1.0000 0.20350  0.02540  0.35323  Biso   1.000  H
  H107     1.0000 0.82190  0.79650  0.01990  Biso   1.000  H
  H108     1.0000 0.97460  0.17810  0.68657  Biso   1.000  H
  C61      1.0000 0.04970  0.00000  0.50000  Biso   1.000  C
  C62      1.0000 0.00000  0.04970  0.83333  Biso   1.000  C
  C63      1.0000 0.95030  0.95030  0.16667  Biso   1.000  C
  C64      1.0000 0.95030  0.00000  0.00000  Biso   1.000  C
  C65      1.0000 0.00000  0.95030  0.33333  Biso   1.000  C
  C66      1.0000 0.04970  0.04970  0.66667  Biso   1.000  C
  C67      1.0000 0.91820  0.00000  0.50000  Biso   1.000  C
  C68      1.0000 0.00000  0.91820  0.83333  Biso   1.000  C
  C69      1.0000 0.08180  0.08180  0.16667  Biso   1.000  C
  C70      1.0000 0.08180  0.00000  0.00000  Biso   1.000  C
  C71      1.0000 0.00000  0.08180  0.33333  Biso   1.000  C
  C72      1.0000 0.91820  0.91820  0.66667  Biso   1.000  C
  C73      1.0000 0.79030  0.87840  0.50848  Biso   1.000  C
  C74      1.0000 0.12160  0.91190  0.84181  Biso   1.000  C
  C75      1.0000 0.08810  0.20970  0.17515  Biso   1.000  C
  C76      1.0000 0.20970  0.12160  0.00848  Biso   1.000  C
  C77      1.0000 0.87840  0.08810  0.34181  Biso   1.000  C
  C78      1.0000 0.91190  0.79030  0.67515  Biso   1.000  C
  C79      1.0000 0.87840  0.79030  0.82485  Biso   1.000  C
  C80      1.0000 0.91190  0.12160  0.49152  Biso   1.000  C
  C81      1.0000 0.20970  0.08810  0.15819  Biso   1.000  C
  C82      1.0000 0.12160  0.20970  0.32485  Biso   1.000  C
  C83      1.0000 0.08810  0.87840  0.99152  Biso   1.000  C
  C84      1.0000 0.79030  0.91190  0.65819  Biso   1.000  C
  H109     1.0000 0.78820  0.79320  0.51460  Biso   1.000  H
  H110     1.0000 0.20680  0.99500  0.84793  Biso   1.000  H
  H111     1.0000 0.00500  0.21180  0.18127  Biso   1.000  H
  H112     1.0000 0.21180  0.20680  0.01460  Biso   1.000  H
  H113     1.0000 0.79320  0.00500  0.34793  Biso   1.000  H
  H114     1.0000 0.99500  0.78820  0.68127  Biso   1.000  H
  H115     1.0000 0.79320  0.78820  0.81873  Biso   1.000  H
  H116     1.0000 0.99500  0.20680  0.48540  Biso   1.000  H
  H117     1.0000 0.21180  0.00500  0.15207  Biso   1.000  H
  H118     1.0000 0.20680  0.21180  0.31873  Biso   1.000  H
  H119     1.0000 0.00500  0.79320  0.98540  Biso   1.000  H
  H120     1.0000 0.78820  0.99500  0.65207  Biso   1.000  H
