data_image0
_cell_length_a       11.06
_cell_length_b       11.06
_cell_length_c       24.86
_cell_angle_alpha    90
_cell_angle_beta     90
_cell_angle_gamma    120

_symmetry_space_group_name_H-M    "P 1"
_symmetry_int_tables_number       1

loop_
  _symmetry_equiv_pos_as_xyz
  'x, y, z'

loop_
  _atom_site_label
  _atom_site_occupancy
  _atom_site_fract_x
  _atom_site_fract_y
  _atom_site_fract_z
  _atom_site_thermal_displace_type
  _atom_site_B_iso_or_equiv
  _atom_site_type_symbol
  Cu1      1.0000 0.48549  0.00000  0.00000  Biso   1.000  Cu
  Cu2      1.0000 0.00000  0.48549  0.33333  Biso   1.000  Cu
  Cu3      1.0000 0.51451  0.51451  0.66667  Biso   1.000  Cu
  Cu4      1.0000 0.51451  0.00000  0.50000  Biso   1.000  Cu
  Cu5      1.0000 0.00000  0.51451  0.83333  Biso   1.000  Cu
  Cu6      1.0000 0.48549  0.48549  0.16667  Biso   1.000  Cu
  N1       1.0000 0.30370  0.00000  0.00000  Biso   1.000  N
  N2       1.0000 0.00000  0.30370  0.33333  Biso   1.000  N
  N3       1.0000 0.69630  0.69630  0.66667  Biso   1.000  N
  N4       1.0000 0.69630  0.00000  0.50000  Biso   1.000  N
  N5       1.0000 0.00000  0.69630  0.83333  Biso   1.000  N
  N6       1.0000 0.30370  0.30370  0.16667  Biso   1.000  N
  C1       1.0000 0.18220  0.88270  0.98991  Biso   1.000  C
  C2       1.0000 0.11730  0.29950  0.32324  Biso   1.000  C
  C3       1.0000 0.70050  0.81780  0.65658  Biso   1.000  C
  C4       1.0000 0.81780  0.11730  0.48991  Biso   1.000  C
  C5       1.0000 0.88270  0.70050  0.82324  Biso   1.000  C
  C6       1.0000 0.29950  0.18220  0.15658  Biso   1.000  C
  C7       1.0000 0.88270  0.18220  0.34342  Biso   1.000  C
  C8       1.0000 0.29950  0.11730  0.01009  Biso   1.000  C
  C9       1.0000 0.81780  0.70050  0.67676  Biso   1.000  C
  C10      1.0000 0.11730  0.81780  0.84342  Biso   1.000  C
  C11      1.0000 0.70050  0.88270  0.51009  Biso   1.000  C
  C12      1.0000 0.18220  0.29950  0.17676  Biso   1.000  C
  H1       1.0000 0.18330  0.80060  0.98310  Biso   1.000  H
  H2       1.0000 0.19940  0.38270  0.31643  Biso   1.000  H
  H3       1.0000 0.61730  0.81670  0.64977  Biso   1.000  H
  H4       1.0000 0.81670  0.19940  0.48310  Biso   1.000  H
  H5       1.0000 0.80060  0.61730  0.81643  Biso   1.000  H
  H6       1.0000 0.38270  0.18330  0.14977  Biso   1.000  H
  H7       1.0000 0.80060  0.18330  0.35023  Biso   1.000  H
  H8       1.0000 0.38270  0.19940  0.01690  Biso   1.000  H
  H9       1.0000 0.81670  0.61730  0.68357  Biso   1.000  H
  H10      1.0000 0.19940  0.81670  0.85023  Biso   1.000  H
  H11      1.0000 0.61730  0.80060  0.51690  Biso   1.000  H
  H12      1.0000 0.18330  0.38270  0.18357  Biso   1.000  H
  O1       1.0000 0.56700  0.15620  0.08189  Biso   1.000  O
  O2       1.0000 0.84380  0.41080  0.41522  Biso   1.000  O
  O3       1.0000 0.58920  0.43300  0.74856  Biso   1.000  O
  O4       1.0000 0.43300  0.84380  0.58189  Biso   1.000  O
  O5       1.0000 0.15620  0.58920  0.91522  Biso   1.000  O
  O6       1.0000 0.41080  0.56700  0.24856  Biso   1.000  O
  O7       1.0000 0.15620  0.56700  0.25144  Biso   1.000  O
  O8       1.0000 0.41080  0.84380  0.91811  Biso   1.000  O
  O9       1.0000 0.43300  0.58920  0.58478  Biso   1.000  O
  O10      1.0000 0.84380  0.43300  0.75144  Biso   1.000  O
  O11      1.0000 0.58920  0.15620  0.41811  Biso   1.000  O
  O12      1.0000 0.56700  0.41080  0.08478  Biso   1.000  O
  H13      1.0000 0.50900  0.07760  0.09540  Biso   1.000  H
  H14      1.0000 0.92240  0.43140  0.42873  Biso   1.000  H
  H15      1.0000 0.56860  0.49100  0.76207  Biso   1.000  H
  H16      1.0000 0.49100  0.92240  0.59540  Biso   1.000  H
  H17      1.0000 0.07760  0.56860  0.92873  Biso   1.000  H
  H18      1.0000 0.43140  0.50900  0.26207  Biso   1.000  H
  H19      1.0000 0.07760  0.50900  0.23793  Biso   1.000  H
  H20      1.0000 0.43140  0.92240  0.90460  Biso   1.000  H
  H21      1.0000 0.49100  0.56860  0.57127  Biso   1.000  H
  H22      1.0000 0.92240  0.49100  0.73793  Biso   1.000  H
  H23      1.0000 0.56860  0.07760  0.40460  Biso   1.000  H
  H24      1.0000 0.50900  0.43140  0.07127  Biso   1.000  H
  H25      1.0000 0.64890  0.17380  0.09000  Biso   1.000  H
  H26      1.0000 0.82620  0.47510  0.42333  Biso   1.000  H
  H27      1.0000 0.52490  0.35110  0.75667  Biso   1.000  H
  H28      1.0000 0.35110  0.82620  0.59000  Biso   1.000  H
  H29      1.0000 0.17380  0.52490  0.92333  Biso   1.000  H
  H30      1.0000 0.47510  0.64890  0.25667  Biso   1.000  H
  H31      1.0000 0.17380  0.64890  0.24333  Biso   1.000  H
  H32      1.0000 0.47510  0.82620  0.91000  Biso   1.000  H
  H33      1.0000 0.35110  0.52490  0.57667  Biso   1.000  H
  H34      1.0000 0.82620  0.35110  0.74333  Biso   1.000  H
  H35      1.0000 0.52490  0.17380  0.41000  Biso   1.000  H
  H36      1.0000 0.64890  0.47510  0.07667  Biso   1.000  H
  O13      1.0000 0.85540  0.30700  0.10521  Biso   1.000  O
  O14      1.0000 0.69300  0.54840  0.43854  Biso   1.000  O
  O15      1.0000 0.45160  0.14460  0.77188  Biso   1.000  O
  O16      1.0000 0.14460  0.69300  0.60521  Biso   1.000  O
  O17      1.0000 0.30700  0.45160  0.93854  Biso   1.000  O
  O18      1.0000 0.54840  0.85540  0.27188  Biso   1.000  O
  O19      1.0000 0.30700  0.85540  0.22812  Biso   1.000  O
  O20      1.0000 0.54840  0.69300  0.89479  Biso   1.000  O
  O21      1.0000 0.14460  0.45160  0.56146  Biso   1.000  O
  O22      1.0000 0.69300  0.14460  0.72812  Biso   1.000  O
  O23      1.0000 0.45160  0.30700  0.39479  Biso   1.000  O
  O24      1.0000 0.85540  0.54840  0.06146  Biso   1.000  O
  H37      1.0000 0.85690  0.38450  0.10400  Biso   1.000  H
  H38      1.0000 0.61550  0.47240  0.43733  Biso   1.000  H
  H39      1.0000 0.52760  0.14310  0.77067  Biso   1.000  H
  H40      1.0000 0.14310  0.61550  0.60400  Biso   1.000  H
  H41      1.0000 0.38450  0.52760  0.93733  Biso   1.000  H
  H42      1.0000 0.47240  0.85690  0.27067  Biso   1.000  H
  H43      1.0000 0.38450  0.85690  0.22933  Biso   1.000  H
  H44      1.0000 0.47240  0.61550  0.89600  Biso   1.000  H
  H45      1.0000 0.14310  0.52760  0.56267  Biso   1.000  H
  H46      1.0000 0.61550  0.14310  0.72933  Biso   1.000  H
  H47      1.0000 0.52760  0.38450  0.39600  Biso   1.000  H
  H48      1.0000 0.85690  0.47240  0.06267  Biso   1.000  H
  H49      1.0000 0.85580  0.28580  0.13810  Biso   1.000  H
  H50      1.0000 0.71420  0.57000  0.47143  Biso   1.000  H
  H51      1.0000 0.43000  0.14420  0.80477  Biso   1.000  H
  H52      1.0000 0.14420  0.71420  0.63810  Biso   1.000  H
  H53      1.0000 0.28580  0.43000  0.97143  Biso   1.000  H
  H54      1.0000 0.57000  0.85580  0.30477  Biso   1.000  H
  H55      1.0000 0.28580  0.85580  0.19523  Biso   1.000  H
  H56      1.0000 0.57000  0.71420  0.86190  Biso   1.000  H
  H57      1.0000 0.14420  0.43000  0.52857  Biso   1.000  H
  H58      1.0000 0.71420  0.14420  0.69523  Biso   1.000  H
  H59      1.0000 0.43000  0.28580  0.36190  Biso   1.000  H
  H60      1.0000 0.85580  0.57000  0.02857  Biso   1.000  H
  O25      1.0000 0.39480  0.82820  0.04239  Biso   1.000  O
  O26      1.0000 0.17180  0.56660  0.37572  Biso   1.000  O
  O27      1.0000 0.43340  0.60520  0.70906  Biso   1.000  O
  O28      1.0000 0.60520  0.17180  0.54239  Biso   1.000  O
  O29      1.0000 0.82820  0.43340  0.87572  Biso   1.000  O
  O30      1.0000 0.56660  0.39480  0.20906  Biso   1.000  O
  O31      1.0000 0.82820  0.39480  0.29094  Biso   1.000  O
  O32      1.0000 0.56660  0.17180  0.95761  Biso   1.000  O
  O33      1.0000 0.60520  0.43340  0.62428  Biso   1.000  O
  O34      1.0000 0.17180  0.60520  0.79094  Biso   1.000  O
  O35      1.0000 0.43340  0.82820  0.45761  Biso   1.000  O
  O36      1.0000 0.39480  0.56660  0.12428  Biso   1.000  O
  C13      1.0000 0.91780  0.00000  0.00000  Biso   1.000  C
  C14      1.0000 0.00000  0.91780  0.33333  Biso   1.000  C
  C15      1.0000 0.08220  0.08220  0.66667  Biso   1.000  C
  C16      1.0000 0.08220  0.00000  0.50000  Biso   1.000  C
  C17      1.0000 0.00000  0.08220  0.83333  Biso   1.000  C
  C18      1.0000 0.91780  0.91780  0.16667  Biso   1.000  C
  C19      1.0000 0.05740  0.87970  0.98925  Biso   1.000  C
  C20      1.0000 0.12030  0.17770  0.32258  Biso   1.000  C
  C21      1.0000 0.82230  0.94260  0.65592  Biso   1.000  C
  C22      1.0000 0.94260  0.12030  0.48925  Biso   1.000  C
  C23      1.0000 0.87970  0.82230  0.82258  Biso   1.000  C
  C24      1.0000 0.17770  0.05740  0.15592  Biso   1.000  C
  C25      1.0000 0.87970  0.05740  0.34408  Biso   1.000  C
  C26      1.0000 0.17770  0.12030  0.01075  Biso   1.000  C
  C27      1.0000 0.94260  0.82230  0.67742  Biso   1.000  C
  C28      1.0000 0.12030  0.94260  0.84408  Biso   1.000  C
  C29      1.0000 0.82230  0.87970  0.51075  Biso   1.000  C
  C30      1.0000 0.05740  0.17770  0.17742  Biso   1.000  C
  H61      1.0000 0.97600  0.79660  0.98150  Biso   1.000  H
  H62      1.0000 0.20340  0.17940  0.31483  Biso   1.000  H
  H63      1.0000 0.82060  0.02400  0.64817  Biso   1.000  H
  H64      1.0000 0.02400  0.20340  0.48150  Biso   1.000  H
  H65      1.0000 0.79660  0.82060  0.81483  Biso   1.000  H
  H66      1.0000 0.17940  0.97600  0.14817  Biso   1.000  H
  H67      1.0000 0.79660  0.97600  0.35183  Biso   1.000  H
  H68      1.0000 0.17940  0.20340  0.01850  Biso   1.000  H
  H69      1.0000 0.02400  0.82060  0.68517  Biso   1.000  H
  H70      1.0000 0.20340  0.02400  0.85183  Biso   1.000  H
  H71      1.0000 0.82060  0.79660  0.51850  Biso   1.000  H
  H72      1.0000 0.97600  0.17940  0.18517  Biso   1.000  H
  C31      1.0000 0.05040  0.00000  0.00000  Biso   1.000  C
  C32      1.0000 0.00000  0.05040  0.33333  Biso   1.000  C
  C33      1.0000 0.94960  0.94960  0.66667  Biso   1.000  C
  C34      1.0000 0.94960  0.00000  0.50000  Biso   1.000  C
  C35      1.0000 0.00000  0.94960  0.83333  Biso   1.000  C
  C36      1.0000 0.05040  0.05040  0.16667  Biso   1.000  C
  N7       1.0000 0.66570  0.00000  0.00000  Biso   1.000  N
  N8       1.0000 0.00000  0.66570  0.33333  Biso   1.000  N
  N9       1.0000 0.33430  0.33430  0.66667  Biso   1.000  N
  N10      1.0000 0.33430  0.00000  0.50000  Biso   1.000  N
  N11      1.0000 0.00000  0.33430  0.83333  Biso   1.000  N
  N12      1.0000 0.66570  0.66570  0.16667  Biso   1.000  N
  O37      1.0000 0.36460  0.90670  0.11979  Biso   1.000  O
  O38      1.0000 0.09330  0.45790  0.45312  Biso   1.000  O
  O39      1.0000 0.54210  0.63540  0.78646  Biso   1.000  O
  O40      1.0000 0.63540  0.09330  0.61979  Biso   1.000  O
  O41      1.0000 0.90670  0.54210  0.95312  Biso   1.000  O
  O42      1.0000 0.45790  0.36460  0.28646  Biso   1.000  O
  O43      1.0000 0.90670  0.36460  0.21354  Biso   1.000  O
  O44      1.0000 0.45790  0.09330  0.88021  Biso   1.000  O
  O45      1.0000 0.63540  0.54210  0.54688  Biso   1.000  O
  O46      1.0000 0.09330  0.63540  0.71354  Biso   1.000  O
  O47      1.0000 0.54210  0.90670  0.38021  Biso   1.000  O
  O48      1.0000 0.36460  0.45790  0.04688  Biso   1.000  O
  C37      1.0000 0.33610  0.81220  0.08728  Biso   1.000  C
  C38      1.0000 0.18780  0.52390  0.42061  Biso   1.000  C
  C39      1.0000 0.47610  0.66390  0.75395  Biso   1.000  C
  C40      1.0000 0.66390  0.18780  0.58728  Biso   1.000  C
  C41      1.0000 0.81220  0.47610  0.92061  Biso   1.000  C
  C42      1.0000 0.52390  0.33610  0.25395  Biso   1.000  C
  C43      1.0000 0.81220  0.33610  0.24605  Biso   1.000  C
  C44      1.0000 0.52390  0.18780  0.91272  Biso   1.000  C
  C45      1.0000 0.66390  0.47610  0.57939  Biso   1.000  C
  C46      1.0000 0.18780  0.66390  0.74605  Biso   1.000  C
  C47      1.0000 0.47610  0.81220  0.41272  Biso   1.000  C
  C48      1.0000 0.33610  0.52390  0.07939  Biso   1.000  C
  C49      1.0000 0.78640  0.11740  0.99218  Biso   1.000  C
  C50      1.0000 0.88260  0.66900  0.32551  Biso   1.000  C
  C51      1.0000 0.33100  0.21360  0.65885  Biso   1.000  C
  C52      1.0000 0.21360  0.88260  0.49218  Biso   1.000  C
  C53      1.0000 0.11740  0.33100  0.82551  Biso   1.000  C
  C54      1.0000 0.66900  0.78640  0.15885  Biso   1.000  C
  C55      1.0000 0.11740  0.78640  0.34115  Biso   1.000  C
  C56      1.0000 0.66900  0.88260  0.00782  Biso   1.000  C
  C57      1.0000 0.21360  0.33100  0.67449  Biso   1.000  C
  C58      1.0000 0.88260  0.21360  0.84115  Biso   1.000  C
  C59      1.0000 0.33100  0.11740  0.50782  Biso   1.000  C
  C60      1.0000 0.78640  0.66900  0.17449  Biso   1.000  C
  H73      1.0000 0.78570  0.20030  0.98680  Biso   1.000  H
  H74      1.0000 0.79970  0.58540  0.32013  Biso   1.000  H
  H75      1.0000 0.41460  0.21430  0.65347  Biso   1.000  H
  H76      1.0000 0.21430  0.79970  0.48680  Biso   1.000  H
  H77      1.0000 0.20030  0.41460  0.82013  Biso   1.000  H
  H78      1.0000 0.58540  0.78570  0.15347  Biso   1.000  H
  H79      1.0000 0.20030  0.78570  0.34653  Biso   1.000  H
  H80      1.0000 0.58540  0.79970  0.01320  Biso   1.000  H
  H81      1.0000 0.21430  0.41460  0.67987  Biso   1.000  H
  H82      1.0000 0.79970  0.21430  0.84653  Biso   1.000  H
  H83      1.0000 0.41460  0.20030  0.51320  Biso   1.000  H
  H84      1.0000 0.78570  0.58540  0.17987  Biso   1.000  H
  C61      1.0000 0.21780  0.66600  0.09965  Biso   1.000  C
  C62      1.0000 0.33400  0.55180  0.43298  Biso   1.000  C
  C63      1.0000 0.44820  0.78220  0.76632  Biso   1.000  C
  C64      1.0000 0.78220  0.33400  0.59965  Biso   1.000  C
  C65      1.0000 0.66600  0.44820  0.93298  Biso   1.000  C
  C66      1.0000 0.55180  0.21780  0.26632  Biso   1.000  C
  C67      1.0000 0.66600  0.21780  0.23368  Biso   1.000  C
  C68      1.0000 0.55180  0.33400  0.90035  Biso   1.000  C
  C69      1.0000 0.78220  0.44820  0.56702  Biso   1.000  C
  C70      1.0000 0.33400  0.78220  0.73368  Biso   1.000  C
  C71      1.0000 0.44820  0.66600  0.40035  Biso   1.000  C
  C72      1.0000 0.21780  0.55180  0.06702  Biso   1.000  C
  H85      1.0000 0.12990  0.66360  0.09380  Biso   1.000  H
  H86      1.0000 0.33640  0.46630  0.42713  Biso   1.000  H
  H87      1.0000 0.53370  0.87010  0.76047  Biso   1.000  H
  H88      1.0000 0.87010  0.33640  0.59380  Biso   1.000  H
  H89      1.0000 0.66360  0.53370  0.92713  Biso   1.000  H
  H90      1.0000 0.46630  0.12990  0.26047  Biso   1.000  H
  H91      1.0000 0.66360  0.12990  0.23953  Biso   1.000  H
  H92      1.0000 0.46630  0.33640  0.90620  Biso   1.000  H
  H93      1.0000 0.87010  0.53370  0.57287  Biso   1.000  H
  H94      1.0000 0.33640  0.87010  0.73953  Biso   1.000  H
  H95      1.0000 0.53370  0.66360  0.40620  Biso   1.000  H
  H96      1.0000 0.12990  0.46630  0.07287  Biso   1.000  H
  H97      1.0000 0.22240  0.64690  0.13740  Biso   1.000  H
  H98      1.0000 0.35310  0.57550  0.47073  Biso   1.000  H
  H99      1.0000 0.42450  0.77760  0.80407  Biso   1.000  H
  H100     1.0000 0.77760  0.35310  0.63740  Biso   1.000  H
  H101     1.0000 0.64690  0.42450  0.97073  Biso   1.000  H
  H102     1.0000 0.57550  0.22240  0.30407  Biso   1.000  H
  H103     1.0000 0.64690  0.22240  0.19593  Biso   1.000  H
  H104     1.0000 0.57550  0.35310  0.86260  Biso   1.000  H
  H105     1.0000 0.77760  0.42450  0.52927  Biso   1.000  H
  H106     1.0000 0.35310  0.77760  0.69593  Biso   1.000  H
  H107     1.0000 0.42450  0.64690  0.36260  Biso   1.000  H
  H108     1.0000 0.22240  0.57550  0.02927  Biso   1.000  H
  C73      1.0000 0.91280  0.12030  0.99174  Biso   1.000  C
  C74      1.0000 0.87970  0.79250  0.32507  Biso   1.000  C
  C75      1.0000 0.20750  0.08720  0.65841  Biso   1.000  C
  C76      1.0000 0.08720  0.87970  0.49174  Biso   1.000  C
  C77      1.0000 0.12030  0.20750  0.82507  Biso   1.000  C
  C78      1.0000 0.79250  0.91280  0.15841  Biso   1.000  C
  C79      1.0000 0.12030  0.91280  0.34159  Biso   1.000  C
  C80      1.0000 0.79250  0.87970  0.00826  Biso   1.000  C
  C81      1.0000 0.08720  0.20750  0.67493  Biso   1.000  C
  C82      1.0000 0.87970  0.08720  0.84159  Biso   1.000  C
  C83      1.0000 0.20750  0.12030  0.50826  Biso   1.000  C
  C84      1.0000 0.91280  0.79250  0.17493  Biso   1.000  C
  H109     1.0000 0.99490  0.20420  0.98580  Biso   1.000  H
  H110     1.0000 0.79580  0.79070  0.31913  Biso   1.000  H
  H111     1.0000 0.20930  0.00510  0.65247  Biso   1.000  H
  H112     1.0000 0.00510  0.79580  0.48580  Biso   1.000  H
  H113     1.0000 0.20420  0.20930  0.81913  Biso   1.000  H
  H114     1.0000 0.79070  0.99490  0.15247  Biso   1.000  H
  H115     1.0000 0.20420  0.99490  0.34753  Biso   1.000  H
  H116     1.0000 0.79070  0.79580  0.01420  Biso   1.000  H
  H117     1.0000 0.00510  0.20930  0.68087  Biso   1.000  H
  H118     1.0000 0.79580  0.00510  0.84753  Biso   1.000  H
  H119     1.0000 0.20930  0.20420  0.51420  Biso   1.000  H
  H120     1.0000 0.99490  0.79070  0.18087  Biso   1.000  H
