data_image0
_cell_length_a       11.0487
_cell_length_b       11.0487
_cell_length_c       24.919
_cell_angle_alpha    90
_cell_angle_beta     90
_cell_angle_gamma    120

_symmetry_space_group_name_H-M    "P 1"
_symmetry_int_tables_number       1

loop_
  _symmetry_equiv_pos_as_xyz
  'x, y, z'

loop_
  _atom_site_label
  _atom_site_occupancy
  _atom_site_fract_x
  _atom_site_fract_y
  _atom_site_fract_z
  _atom_site_thermal_displace_type
  _atom_site_B_iso_or_equiv
  _atom_site_type_symbol
  Cu1      1.0000 0.51452  0.51452  0.66670  Biso   1.000  Cu
  Cu2      1.0000 0.48548  0.00000  0.00003  Biso   1.000  Cu
  Cu3      1.0000 0.00000  0.48548  0.33337  Biso   1.000  Cu
  Cu4      1.0000 0.48548  0.48548  0.16670  Biso   1.000  Cu
  Cu5      1.0000 0.51452  0.00000  0.50003  Biso   1.000  Cu
  Cu6      1.0000 0.00000  0.51452  0.83337  Biso   1.000  Cu
  N1       1.0000 0.69671  0.69671  0.66670  Biso   1.000  N
  N2       1.0000 0.30329  0.00000  0.00003  Biso   1.000  N
  N3       1.0000 0.00000  0.30329  0.33337  Biso   1.000  N
  N4       1.0000 0.30329  0.30329  0.16670  Biso   1.000  N
  N5       1.0000 0.69671  0.00000  0.50003  Biso   1.000  N
  N6       1.0000 0.00000  0.69671  0.83337  Biso   1.000  N
  C1       1.0000 0.21330  0.33090  0.67453  Biso   1.000  C
  C2       1.0000 0.66910  0.88240  0.00786  Biso   1.000  C
  C3       1.0000 0.11760  0.78670  0.34120  Biso   1.000  C
  C4       1.0000 0.78670  0.66910  0.17453  Biso   1.000  C
  C5       1.0000 0.33090  0.11760  0.50786  Biso   1.000  C
  C6       1.0000 0.88240  0.21330  0.84120  Biso   1.000  C
  C7       1.0000 0.33090  0.21330  0.65880  Biso   1.000  C
  C8       1.0000 0.88240  0.66910  0.32547  Biso   1.000  C
  C9       1.0000 0.78670  0.11760  0.99214  Biso   1.000  C
  C10      1.0000 0.66910  0.78670  0.15880  Biso   1.000  C
  C11      1.0000 0.11760  0.33090  0.82547  Biso   1.000  C
  C12      1.0000 0.21330  0.88240  0.49214  Biso   1.000  C
  H1       1.0000 0.21430  0.41470  0.67990  Biso   1.000  H
  H2       1.0000 0.58530  0.79960  0.01323  Biso   1.000  H
  H3       1.0000 0.20040  0.78570  0.34657  Biso   1.000  H
  H4       1.0000 0.78570  0.58530  0.17990  Biso   1.000  H
  H5       1.0000 0.41470  0.20040  0.51323  Biso   1.000  H
  H6       1.0000 0.79960  0.21430  0.84657  Biso   1.000  H
  H7       1.0000 0.41470  0.21430  0.65343  Biso   1.000  H
  H8       1.0000 0.79960  0.58530  0.32010  Biso   1.000  H
  H9       1.0000 0.78570  0.20040  0.98677  Biso   1.000  H
  H10      1.0000 0.58530  0.78570  0.15343  Biso   1.000  H
  H11      1.0000 0.20040  0.41470  0.82010  Biso   1.000  H
  H12      1.0000 0.21430  0.79960  0.48677  Biso   1.000  H
  O1       1.0000 0.43297  0.60499  0.70886  Biso   1.000  O
  O2       1.0000 0.39501  0.82798  0.04219  Biso   1.000  O
  O3       1.0000 0.17202  0.56703  0.37553  Biso   1.000  O
  O4       1.0000 0.56703  0.39501  0.20886  Biso   1.000  O
  O5       1.0000 0.60499  0.17202  0.54219  Biso   1.000  O
  O6       1.0000 0.82798  0.43297  0.87553  Biso   1.000  O
  O7       1.0000 0.60499  0.43297  0.62447  Biso   1.000  O
  O8       1.0000 0.82798  0.39501  0.29114  Biso   1.000  O
  O9       1.0000 0.56703  0.17202  0.95781  Biso   1.000  O
  O10      1.0000 0.39501  0.56703  0.12447  Biso   1.000  O
  O11      1.0000 0.17202  0.60499  0.79114  Biso   1.000  O
  O12      1.0000 0.43297  0.82798  0.45781  Biso   1.000  O
  O13      1.0000 0.54260  0.63510  0.78659  Biso   1.000  O
  O14      1.0000 0.36490  0.90750  0.11992  Biso   1.000  O
  O15      1.0000 0.09250  0.45740  0.45326  Biso   1.000  O
  O16      1.0000 0.45740  0.36490  0.28659  Biso   1.000  O
  O17      1.0000 0.63510  0.09250  0.61992  Biso   1.000  O
  O18      1.0000 0.90750  0.54260  0.95326  Biso   1.000  O
  O19      1.0000 0.63510  0.54260  0.54674  Biso   1.000  O
  O20      1.0000 0.90750  0.36490  0.21341  Biso   1.000  O
  O21      1.0000 0.45740  0.09250  0.88008  Biso   1.000  O
  O22      1.0000 0.36490  0.45740  0.04674  Biso   1.000  O
  O23      1.0000 0.09250  0.63510  0.71341  Biso   1.000  O
  O24      1.0000 0.54260  0.90750  0.38008  Biso   1.000  O
  O25      1.0000 0.58614  0.43157  0.74845  Biso   1.000  O
  O26      1.0000 0.56843  0.15457  0.08178  Biso   1.000  O
  O27      1.0000 0.84543  0.41386  0.41512  Biso   1.000  O
  O28      1.0000 0.41386  0.56843  0.24845  Biso   1.000  O
  O29      1.0000 0.43157  0.84543  0.58178  Biso   1.000  O
  O30      1.0000 0.15457  0.58614  0.91512  Biso   1.000  O
  O31      1.0000 0.43157  0.58614  0.58488  Biso   1.000  O
  O32      1.0000 0.15457  0.56843  0.25155  Biso   1.000  O
  O33      1.0000 0.41386  0.84543  0.91822  Biso   1.000  O
  O34      1.0000 0.56843  0.41386  0.08488  Biso   1.000  O
  O35      1.0000 0.84543  0.43157  0.75155  Biso   1.000  O
  O36      1.0000 0.58614  0.15457  0.41822  Biso   1.000  O
  H13      1.0000 0.58360  0.48920  0.77040  Biso   1.000  H
  H14      1.0000 0.51080  0.09440  0.10373  Biso   1.000  H
  H15      1.0000 0.90560  0.41640  0.43707  Biso   1.000  H
  H16      1.0000 0.41640  0.51080  0.27040  Biso   1.000  H
  H17      1.0000 0.48920  0.90560  0.60373  Biso   1.000  H
  H18      1.0000 0.09440  0.58360  0.93707  Biso   1.000  H
  H19      1.0000 0.48920  0.58360  0.56293  Biso   1.000  H
  H20      1.0000 0.09440  0.51080  0.22960  Biso   1.000  H
  H21      1.0000 0.41640  0.90560  0.89627  Biso   1.000  H
  H22      1.0000 0.51080  0.41640  0.06293  Biso   1.000  H
  H23      1.0000 0.90560  0.48920  0.72960  Biso   1.000  H
  H24      1.0000 0.58360  0.09440  0.39627  Biso   1.000  H
  H25      1.0000 0.64210  0.40640  0.76050  Biso   1.000  H
  H26      1.0000 0.59360  0.23570  0.09383  Biso   1.000  H
  H27      1.0000 0.76430  0.35790  0.42717  Biso   1.000  H
  H28      1.0000 0.35790  0.59360  0.26050  Biso   1.000  H
  H29      1.0000 0.40640  0.76430  0.59383  Biso   1.000  H
  H30      1.0000 0.23570  0.64210  0.92717  Biso   1.000  H
  H31      1.0000 0.40640  0.64210  0.57283  Biso   1.000  H
  H32      1.0000 0.23570  0.59360  0.23950  Biso   1.000  H
  H33      1.0000 0.35790  0.76430  0.90617  Biso   1.000  H
  H34      1.0000 0.59360  0.35790  0.07283  Biso   1.000  H
  H35      1.0000 0.76430  0.40640  0.73950  Biso   1.000  H
  H36      1.0000 0.64210  0.23570  0.40617  Biso   1.000  H
  C13      1.0000 0.08170  0.08170  0.66670  Biso   1.000  C
  C14      1.0000 0.91830  0.00000  0.00003  Biso   1.000  C
  C15      1.0000 0.00000  0.91830  0.33337  Biso   1.000  C
  C16      1.0000 0.91830  0.91830  0.16670  Biso   1.000  C
  C17      1.0000 0.08170  0.00000  0.50003  Biso   1.000  C
  C18      1.0000 0.00000  0.08170  0.83337  Biso   1.000  C
  O37      1.0000 0.54750  0.69080  0.89496  Biso   1.000  O
  O38      1.0000 0.30920  0.85670  0.22829  Biso   1.000  O
  O39      1.0000 0.14330  0.45250  0.56163  Biso   1.000  O
  O40      1.0000 0.45250  0.30920  0.39496  Biso   1.000  O
  O41      1.0000 0.69080  0.14330  0.72829  Biso   1.000  O
  O42      1.0000 0.85670  0.54750  0.06163  Biso   1.000  O
  O43      1.0000 0.69080  0.54750  0.43837  Biso   1.000  O
  O44      1.0000 0.85670  0.30920  0.10504  Biso   1.000  O
  O45      1.0000 0.45250  0.14330  0.77171  Biso   1.000  O
  O46      1.0000 0.30920  0.45250  0.93837  Biso   1.000  O
  O47      1.0000 0.14330  0.69080  0.60504  Biso   1.000  O
  O48      1.0000 0.54750  0.85670  0.27171  Biso   1.000  O
  H37      1.0000 0.52080  0.66100  0.86330  Biso   1.000  H
  H38      1.0000 0.33900  0.85980  0.19663  Biso   1.000  H
  H39      1.0000 0.14020  0.47920  0.52997  Biso   1.000  H
  H40      1.0000 0.47920  0.33900  0.36330  Biso   1.000  H
  H41      1.0000 0.66100  0.14020  0.69663  Biso   1.000  H
  H42      1.0000 0.85980  0.52080  0.02997  Biso   1.000  H
  H43      1.0000 0.66100  0.52080  0.47003  Biso   1.000  H
  H44      1.0000 0.85980  0.33900  0.13670  Biso   1.000  H
  H45      1.0000 0.47920  0.14020  0.80337  Biso   1.000  H
  H46      1.0000 0.33900  0.47920  0.97003  Biso   1.000  H
  H47      1.0000 0.14020  0.66100  0.63670  Biso   1.000  H
  H48      1.0000 0.52080  0.85980  0.30337  Biso   1.000  H
  H49      1.0000 0.49580  0.72100  0.90740  Biso   1.000  H
  H50      1.0000 0.27900  0.77480  0.24073  Biso   1.000  H
  H51      1.0000 0.22520  0.50420  0.57407  Biso   1.000  H
  H52      1.0000 0.50420  0.27900  0.40740  Biso   1.000  H
  H53      1.0000 0.72100  0.22520  0.74073  Biso   1.000  H
  H54      1.0000 0.77480  0.49580  0.07407  Biso   1.000  H
  H55      1.0000 0.72100  0.49580  0.42593  Biso   1.000  H
  H56      1.0000 0.77480  0.27900  0.09260  Biso   1.000  H
  H57      1.0000 0.50420  0.22520  0.75927  Biso   1.000  H
  H58      1.0000 0.27900  0.50420  0.92593  Biso   1.000  H
  H59      1.0000 0.22520  0.72100  0.59260  Biso   1.000  H
  H60      1.0000 0.49580  0.77480  0.25927  Biso   1.000  H
  C19      1.0000 0.44790  0.78150  0.76621  Biso   1.000  C
  C20      1.0000 0.21850  0.66640  0.09954  Biso   1.000  C
  C21      1.0000 0.33360  0.55210  0.43288  Biso   1.000  C
  C22      1.0000 0.55210  0.21850  0.26621  Biso   1.000  C
  C23      1.0000 0.78150  0.33360  0.59954  Biso   1.000  C
  C24      1.0000 0.66640  0.44790  0.93288  Biso   1.000  C
  C25      1.0000 0.78150  0.44790  0.56712  Biso   1.000  C
  C26      1.0000 0.66640  0.21850  0.23379  Biso   1.000  C
  C27      1.0000 0.55210  0.33360  0.90046  Biso   1.000  C
  C28      1.0000 0.21850  0.55210  0.06712  Biso   1.000  C
  C29      1.0000 0.33360  0.78150  0.73379  Biso   1.000  C
  C30      1.0000 0.44790  0.66640  0.40046  Biso   1.000  C
  H61      1.0000 0.42410  0.77670  0.80390  Biso   1.000  H
  H62      1.0000 0.22330  0.64740  0.13723  Biso   1.000  H
  H63      1.0000 0.35260  0.57590  0.47057  Biso   1.000  H
  H64      1.0000 0.57590  0.22330  0.30390  Biso   1.000  H
  H65      1.0000 0.77670  0.35260  0.63723  Biso   1.000  H
  H66      1.0000 0.64740  0.42410  0.97057  Biso   1.000  H
  H67      1.0000 0.77670  0.42410  0.52943  Biso   1.000  H
  H68      1.0000 0.64740  0.22330  0.19610  Biso   1.000  H
  H69      1.0000 0.57590  0.35260  0.86277  Biso   1.000  H
  H70      1.0000 0.22330  0.57590  0.02943  Biso   1.000  H
  H71      1.0000 0.35260  0.77670  0.69610  Biso   1.000  H
  H72      1.0000 0.42410  0.64740  0.36277  Biso   1.000  H
  H73      1.0000 0.53340  0.86950  0.76040  Biso   1.000  H
  H74      1.0000 0.13050  0.66390  0.09373  Biso   1.000  H
  H75      1.0000 0.33610  0.46660  0.42707  Biso   1.000  H
  H76      1.0000 0.46660  0.13050  0.26040  Biso   1.000  H
  H77      1.0000 0.86950  0.33610  0.59373  Biso   1.000  H
  H78      1.0000 0.66390  0.53340  0.92707  Biso   1.000  H
  H79      1.0000 0.86950  0.53340  0.57293  Biso   1.000  H
  H80      1.0000 0.66390  0.13050  0.23960  Biso   1.000  H
  H81      1.0000 0.46660  0.33610  0.90627  Biso   1.000  H
  H82      1.0000 0.13050  0.46660  0.07293  Biso   1.000  H
  H83      1.0000 0.33610  0.86950  0.73960  Biso   1.000  H
  H84      1.0000 0.53340  0.66390  0.40627  Biso   1.000  H
  C31      1.0000 0.08680  0.20800  0.67504  Biso   1.000  C
  C32      1.0000 0.79200  0.87880  0.00837  Biso   1.000  C
  C33      1.0000 0.12120  0.91320  0.34171  Biso   1.000  C
  C34      1.0000 0.91320  0.79200  0.17504  Biso   1.000  C
  C35      1.0000 0.20800  0.12120  0.50837  Biso   1.000  C
  C36      1.0000 0.87880  0.08680  0.84171  Biso   1.000  C
  C37      1.0000 0.20800  0.08680  0.65829  Biso   1.000  C
  C38      1.0000 0.87880  0.79200  0.32496  Biso   1.000  C
  C39      1.0000 0.91320  0.12120  0.99163  Biso   1.000  C
  C40      1.0000 0.79200  0.91320  0.15829  Biso   1.000  C
  C41      1.0000 0.12120  0.20800  0.82496  Biso   1.000  C
  C42      1.0000 0.08680  0.87880  0.49163  Biso   1.000  C
  H85      1.0000 0.00470  0.20990  0.68100  Biso   1.000  H
  H86      1.0000 0.79010  0.79480  0.01433  Biso   1.000  H
  H87      1.0000 0.20520  0.99530  0.34767  Biso   1.000  H
  H88      1.0000 0.99530  0.79010  0.18100  Biso   1.000  H
  H89      1.0000 0.20990  0.20520  0.51433  Biso   1.000  H
  H90      1.0000 0.79480  0.00470  0.84767  Biso   1.000  H
  H91      1.0000 0.20990  0.00470  0.65233  Biso   1.000  H
  H92      1.0000 0.79480  0.79010  0.31900  Biso   1.000  H
  H93      1.0000 0.99530  0.20520  0.98567  Biso   1.000  H
  H94      1.0000 0.79010  0.99530  0.15233  Biso   1.000  H
  H95      1.0000 0.20520  0.20990  0.81900  Biso   1.000  H
  H96      1.0000 0.00470  0.79480  0.48567  Biso   1.000  H
  C43      1.0000 0.94930  0.94930  0.66670  Biso   1.000  C
  C44      1.0000 0.05070  0.00000  0.00003  Biso   1.000  C
  C45      1.0000 0.00000  0.05070  0.33337  Biso   1.000  C
  C46      1.0000 0.05070  0.05070  0.16670  Biso   1.000  C
  C47      1.0000 0.94930  0.00000  0.50003  Biso   1.000  C
  C48      1.0000 0.00000  0.94930  0.83337  Biso   1.000  C
  C49      1.0000 0.94320  0.82290  0.67749  Biso   1.000  C
  C50      1.0000 0.17710  0.12030  0.01082  Biso   1.000  C
  C51      1.0000 0.87970  0.05680  0.34416  Biso   1.000  C
  C52      1.0000 0.05680  0.17710  0.17749  Biso   1.000  C
  C53      1.0000 0.82290  0.87970  0.51082  Biso   1.000  C
  C54      1.0000 0.12030  0.94320  0.84416  Biso   1.000  C
  C55      1.0000 0.82290  0.94320  0.65584  Biso   1.000  C
  C56      1.0000 0.12030  0.17710  0.32251  Biso   1.000  C
  C57      1.0000 0.05680  0.87970  0.98918  Biso   1.000  C
  C58      1.0000 0.17710  0.05680  0.15584  Biso   1.000  C
  C59      1.0000 0.87970  0.82290  0.82251  Biso   1.000  C
  C60      1.0000 0.94320  0.12030  0.48918  Biso   1.000  C
  H97      1.0000 0.02460  0.82110  0.68530  Biso   1.000  H
  H98      1.0000 0.17890  0.20350  0.01863  Biso   1.000  H
  H99      1.0000 0.79650  0.97540  0.35197  Biso   1.000  H
  H100     1.0000 0.97540  0.17890  0.18530  Biso   1.000  H
  H101     1.0000 0.82110  0.79650  0.51863  Biso   1.000  H
  H102     1.0000 0.20350  0.02460  0.85197  Biso   1.000  H
  H103     1.0000 0.82110  0.02460  0.64803  Biso   1.000  H
  H104     1.0000 0.20350  0.17890  0.31470  Biso   1.000  H
  H105     1.0000 0.97540  0.79650  0.98137  Biso   1.000  H
  H106     1.0000 0.17890  0.97540  0.14803  Biso   1.000  H
  H107     1.0000 0.79650  0.82110  0.81470  Biso   1.000  H
  H108     1.0000 0.02460  0.20350  0.48137  Biso   1.000  H
  C61      1.0000 0.47570  0.66360  0.75380  Biso   1.000  C
  C62      1.0000 0.33640  0.81210  0.08713  Biso   1.000  C
  C63      1.0000 0.18790  0.52430  0.42047  Biso   1.000  C
  C64      1.0000 0.52430  0.33640  0.25380  Biso   1.000  C
  C65      1.0000 0.66360  0.18790  0.58713  Biso   1.000  C
  C66      1.0000 0.81210  0.47570  0.92047  Biso   1.000  C
  C67      1.0000 0.66360  0.47570  0.57953  Biso   1.000  C
  C68      1.0000 0.81210  0.33640  0.24620  Biso   1.000  C
  C69      1.0000 0.52430  0.18790  0.91287  Biso   1.000  C
  C70      1.0000 0.33640  0.52430  0.07953  Biso   1.000  C
  C71      1.0000 0.18790  0.66360  0.74620  Biso   1.000  C
  C72      1.0000 0.47570  0.81210  0.41287  Biso   1.000  C
  N7       1.0000 0.33412  0.33412  0.66670  Biso   1.000  N
  N8       1.0000 0.66588  0.00000  0.00003  Biso   1.000  N
  N9       1.0000 0.00000  0.66588  0.33337  Biso   1.000  N
  N10      1.0000 0.66588  0.66588  0.16670  Biso   1.000  N
  N11      1.0000 0.33412  0.00000  0.50003  Biso   1.000  N
  N12      1.0000 0.00000  0.33412  0.83337  Biso   1.000  N
  C73      1.0000 0.81690  0.70070  0.67664  Biso   1.000  C
  C74      1.0000 0.29930  0.11620  0.00997  Biso   1.000  C
  C75      1.0000 0.88380  0.18310  0.34331  Biso   1.000  C
  C76      1.0000 0.18310  0.29930  0.17664  Biso   1.000  C
  C77      1.0000 0.70070  0.88380  0.50997  Biso   1.000  C
  C78      1.0000 0.11620  0.81690  0.84331  Biso   1.000  C
  C79      1.0000 0.70070  0.81690  0.65669  Biso   1.000  C
  C80      1.0000 0.11620  0.29930  0.32336  Biso   1.000  C
  C81      1.0000 0.18310  0.88380  0.99003  Biso   1.000  C
  C82      1.0000 0.29930  0.18310  0.15669  Biso   1.000  C
  C83      1.0000 0.88380  0.70070  0.82336  Biso   1.000  C
  C84      1.0000 0.81690  0.11620  0.49003  Biso   1.000  C
  H109     1.0000 0.81540  0.61710  0.68330  Biso   1.000  H
  H110     1.0000 0.38290  0.19830  0.01663  Biso   1.000  H
  H111     1.0000 0.80170  0.18460  0.34997  Biso   1.000  H
  H112     1.0000 0.18460  0.38290  0.18330  Biso   1.000  H
  H113     1.0000 0.61710  0.80170  0.51663  Biso   1.000  H
  H114     1.0000 0.19830  0.81540  0.84997  Biso   1.000  H
  H115     1.0000 0.61710  0.81540  0.65003  Biso   1.000  H
  H116     1.0000 0.19830  0.38290  0.31670  Biso   1.000  H
  H117     1.0000 0.18460  0.80170  0.98337  Biso   1.000  H
  H118     1.0000 0.38290  0.18460  0.15003  Biso   1.000  H
  H119     1.0000 0.80170  0.61710  0.81670  Biso   1.000  H
  H120     1.0000 0.81540  0.19830  0.48337  Biso   1.000  H
