data_image0
_cell_length_a       11.0822
_cell_length_b       11.0822
_cell_length_c       24.757
_cell_angle_alpha    90
_cell_angle_beta     90
_cell_angle_gamma    120

_symmetry_space_group_name_H-M    "P 1"
_symmetry_int_tables_number       1

loop_
  _symmetry_equiv_pos_as_xyz
  'x, y, z'

loop_
  _atom_site_label
  _atom_site_occupancy
  _atom_site_fract_x
  _atom_site_fract_y
  _atom_site_fract_z
  _atom_site_thermal_displace_type
  _atom_site_B_iso_or_equiv
  _atom_site_type_symbol
  Cu1      1.0000 0.48383  0.00000  0.00000  Biso   1.000  Cu
  Cu2      1.0000 0.00000  0.48383  0.33333  Biso   1.000  Cu
  Cu3      1.0000 0.51617  0.51617  0.66667  Biso   1.000  Cu
  Cu4      1.0000 0.51617  0.00000  0.50000  Biso   1.000  Cu
  Cu5      1.0000 0.00000  0.51617  0.83333  Biso   1.000  Cu
  Cu6      1.0000 0.48383  0.48383  0.16667  Biso   1.000  Cu
  O1       1.0000 0.39220  0.82620  0.04213  Biso   1.000  O
  O2       1.0000 0.17380  0.56600  0.37546  Biso   1.000  O
  O3       1.0000 0.43400  0.60780  0.70880  Biso   1.000  O
  O4       1.0000 0.60780  0.17380  0.54213  Biso   1.000  O
  O5       1.0000 0.82620  0.43400  0.87546  Biso   1.000  O
  O6       1.0000 0.56600  0.39220  0.20880  Biso   1.000  O
  O7       1.0000 0.82620  0.39220  0.29120  Biso   1.000  O
  O8       1.0000 0.56600  0.17380  0.95787  Biso   1.000  O
  O9       1.0000 0.60780  0.43400  0.62454  Biso   1.000  O
  O10      1.0000 0.17380  0.60780  0.79120  Biso   1.000  O
  O11      1.0000 0.43400  0.82620  0.45787  Biso   1.000  O
  O12      1.0000 0.39220  0.56600  0.12454  Biso   1.000  O
  N1       1.0000 0.66360  0.00000  0.00000  Biso   1.000  N
  N2       1.0000 0.00000  0.66360  0.33333  Biso   1.000  N
  N3       1.0000 0.33640  0.33640  0.66667  Biso   1.000  N
  N4       1.0000 0.33640  0.00000  0.50000  Biso   1.000  N
  N5       1.0000 0.00000  0.33640  0.83333  Biso   1.000  N
  N6       1.0000 0.66360  0.66360  0.16667  Biso   1.000  N
  C1       1.0000 0.05000  0.00000  0.00000  Biso   1.000  C
  C2       1.0000 0.00000  0.05000  0.33333  Biso   1.000  C
  C3       1.0000 0.95000  0.95000  0.66667  Biso   1.000  C
  C4       1.0000 0.95000  0.00000  0.50000  Biso   1.000  C
  C5       1.0000 0.00000  0.95000  0.83333  Biso   1.000  C
  C6       1.0000 0.05000  0.05000  0.16667  Biso   1.000  C
  N7       1.0000 0.30200  0.00000  0.00000  Biso   1.000  N
  N8       1.0000 0.00000  0.30200  0.33333  Biso   1.000  N
  N9       1.0000 0.69800  0.69800  0.66667  Biso   1.000  N
  N10      1.0000 0.69800  0.00000  0.50000  Biso   1.000  N
  N11      1.0000 0.00000  0.69800  0.83333  Biso   1.000  N
  N12      1.0000 0.30200  0.30200  0.16667  Biso   1.000  N
  C7       1.0000 0.21340  0.66380  0.10005  Biso   1.000  C
  C8       1.0000 0.33620  0.54960  0.43338  Biso   1.000  C
  C9       1.0000 0.45040  0.78660  0.76672  Biso   1.000  C
  C10      1.0000 0.78660  0.33620  0.60005  Biso   1.000  C
  C11      1.0000 0.66380  0.45040  0.93338  Biso   1.000  C
  C12      1.0000 0.54960  0.21340  0.26672  Biso   1.000  C
  C13      1.0000 0.66380  0.21340  0.23328  Biso   1.000  C
  C14      1.0000 0.54960  0.33620  0.89995  Biso   1.000  C
  C15      1.0000 0.78660  0.45040  0.56662  Biso   1.000  C
  C16      1.0000 0.33620  0.78660  0.73328  Biso   1.000  C
  C17      1.0000 0.45040  0.66380  0.39995  Biso   1.000  C
  C18      1.0000 0.21340  0.54960  0.06662  Biso   1.000  C
  H1       1.0000 0.21830  0.64380  0.13870  Biso   1.000  H
  H2       1.0000 0.35620  0.57450  0.47203  Biso   1.000  H
  H3       1.0000 0.42550  0.78170  0.80537  Biso   1.000  H
  H4       1.0000 0.78170  0.35620  0.63870  Biso   1.000  H
  H5       1.0000 0.64380  0.42550  0.97203  Biso   1.000  H
  H6       1.0000 0.57450  0.21830  0.30537  Biso   1.000  H
  H7       1.0000 0.64380  0.21830  0.19463  Biso   1.000  H
  H8       1.0000 0.57450  0.35620  0.86130  Biso   1.000  H
  H9       1.0000 0.78170  0.42550  0.52797  Biso   1.000  H
  H10      1.0000 0.35620  0.78170  0.69463  Biso   1.000  H
  H11      1.0000 0.42550  0.64380  0.36130  Biso   1.000  H
  H12      1.0000 0.21830  0.57450  0.02797  Biso   1.000  H
  H13      1.0000 0.12400  0.66170  0.09420  Biso   1.000  H
  H14      1.0000 0.33830  0.46230  0.42753  Biso   1.000  H
  H15      1.0000 0.53770  0.87600  0.76087  Biso   1.000  H
  H16      1.0000 0.87600  0.33830  0.59420  Biso   1.000  H
  H17      1.0000 0.66170  0.53770  0.92753  Biso   1.000  H
  H18      1.0000 0.46230  0.12400  0.26087  Biso   1.000  H
  H19      1.0000 0.66170  0.12400  0.23913  Biso   1.000  H
  H20      1.0000 0.46230  0.33830  0.90580  Biso   1.000  H
  H21      1.0000 0.87600  0.53770  0.57247  Biso   1.000  H
  H22      1.0000 0.33830  0.87600  0.73913  Biso   1.000  H
  H23      1.0000 0.53770  0.66170  0.40580  Biso   1.000  H
  H24      1.0000 0.12400  0.46230  0.07247  Biso   1.000  H
  C19      1.0000 0.17510  0.12060  0.01121  Biso   1.000  C
  C20      1.0000 0.87940  0.05450  0.34454  Biso   1.000  C
  C21      1.0000 0.94550  0.82490  0.67788  Biso   1.000  C
  C22      1.0000 0.82490  0.87940  0.51121  Biso   1.000  C
  C23      1.0000 0.12060  0.94550  0.84454  Biso   1.000  C
  C24      1.0000 0.05450  0.17510  0.17788  Biso   1.000  C
  C25      1.0000 0.12060  0.17510  0.32212  Biso   1.000  C
  C26      1.0000 0.05450  0.87940  0.98879  Biso   1.000  C
  C27      1.0000 0.82490  0.94550  0.65546  Biso   1.000  C
  C28      1.0000 0.87940  0.82490  0.82212  Biso   1.000  C
  C29      1.0000 0.94550  0.12060  0.48879  Biso   1.000  C
  C30      1.0000 0.17510  0.05450  0.15546  Biso   1.000  C
  H25      1.0000 0.17630  0.20480  0.01970  Biso   1.000  H
  H26      1.0000 0.79520  0.97150  0.35303  Biso   1.000  H
  H27      1.0000 0.02850  0.82370  0.68637  Biso   1.000  H
  H28      1.0000 0.82370  0.79520  0.51970  Biso   1.000  H
  H29      1.0000 0.20480  0.02850  0.85303  Biso   1.000  H
  H30      1.0000 0.97150  0.17630  0.18637  Biso   1.000  H
  H31      1.0000 0.20480  0.17630  0.31363  Biso   1.000  H
  H32      1.0000 0.97150  0.79520  0.98030  Biso   1.000  H
  H33      1.0000 0.82370  0.02850  0.64697  Biso   1.000  H
  H34      1.0000 0.79520  0.82370  0.81363  Biso   1.000  H
  H35      1.0000 0.02850  0.20480  0.48030  Biso   1.000  H
  H36      1.0000 0.17630  0.97150  0.14697  Biso   1.000  H
  C31      1.0000 0.29810  0.11660  0.00986  Biso   1.000  C
  C32      1.0000 0.88340  0.18150  0.34319  Biso   1.000  C
  C33      1.0000 0.81850  0.70190  0.67653  Biso   1.000  C
  C34      1.0000 0.70190  0.88340  0.50986  Biso   1.000  C
  C35      1.0000 0.11660  0.81850  0.84319  Biso   1.000  C
  C36      1.0000 0.18150  0.29810  0.17653  Biso   1.000  C
  C37      1.0000 0.11660  0.29810  0.32347  Biso   1.000  C
  C38      1.0000 0.18150  0.88340  0.99014  Biso   1.000  C
  C39      1.0000 0.70190  0.81850  0.65681  Biso   1.000  C
  C40      1.0000 0.88340  0.70190  0.82347  Biso   1.000  C
  C41      1.0000 0.81850  0.11660  0.49014  Biso   1.000  C
  C42      1.0000 0.29810  0.18150  0.15681  Biso   1.000  C
  H37      1.0000 0.38340  0.20030  0.01620  Biso   1.000  H
  H38      1.0000 0.79970  0.18310  0.34953  Biso   1.000  H
  H39      1.0000 0.81690  0.61660  0.68287  Biso   1.000  H
  H40      1.0000 0.61660  0.79970  0.51620  Biso   1.000  H
  H41      1.0000 0.20030  0.81690  0.84953  Biso   1.000  H
  H42      1.0000 0.18310  0.38340  0.18287  Biso   1.000  H
  H43      1.0000 0.20030  0.38340  0.31713  Biso   1.000  H
  H44      1.0000 0.18310  0.79970  0.98380  Biso   1.000  H
  H45      1.0000 0.61660  0.81690  0.65047  Biso   1.000  H
  H46      1.0000 0.79970  0.61660  0.81713  Biso   1.000  H
  H47      1.0000 0.81690  0.20030  0.48380  Biso   1.000  H
  H48      1.0000 0.38340  0.18310  0.15047  Biso   1.000  H
  O13      1.0000 0.36040  0.90580  0.12091  Biso   1.000  O
  O14      1.0000 0.09420  0.45460  0.45424  Biso   1.000  O
  O15      1.0000 0.54540  0.63960  0.78758  Biso   1.000  O
  O16      1.0000 0.63960  0.09420  0.62091  Biso   1.000  O
  O17      1.0000 0.90580  0.54540  0.95424  Biso   1.000  O
  O18      1.0000 0.45460  0.36040  0.28758  Biso   1.000  O
  O19      1.0000 0.90580  0.36040  0.21242  Biso   1.000  O
  O20      1.0000 0.45460  0.09420  0.87909  Biso   1.000  O
  O21      1.0000 0.63960  0.54540  0.54576  Biso   1.000  O
  O22      1.0000 0.09420  0.63960  0.71242  Biso   1.000  O
  O23      1.0000 0.54540  0.90580  0.37909  Biso   1.000  O
  O24      1.0000 0.36040  0.45460  0.04576  Biso   1.000  O
  O25      1.0000 0.56440  0.15290  0.08176  Biso   1.000  O
  O26      1.0000 0.84710  0.41150  0.41509  Biso   1.000  O
  O27      1.0000 0.58850  0.43560  0.74843  Biso   1.000  O
  O28      1.0000 0.43560  0.84710  0.58176  Biso   1.000  O
  O29      1.0000 0.15290  0.58850  0.91509  Biso   1.000  O
  O30      1.0000 0.41150  0.56440  0.24843  Biso   1.000  O
  O31      1.0000 0.15290  0.56440  0.25157  Biso   1.000  O
  O32      1.0000 0.41150  0.84710  0.91824  Biso   1.000  O
  O33      1.0000 0.43560  0.58850  0.58491  Biso   1.000  O
  O34      1.0000 0.84710  0.43560  0.75157  Biso   1.000  O
  O35      1.0000 0.58850  0.15290  0.41824  Biso   1.000  O
  O36      1.0000 0.56440  0.41150  0.08491  Biso   1.000  O
  H49      1.0000 0.50300  0.08630  0.10060  Biso   1.000  H
  H50      1.0000 0.91370  0.41670  0.43393  Biso   1.000  H
  H51      1.0000 0.58330  0.49700  0.76727  Biso   1.000  H
  H52      1.0000 0.49700  0.91370  0.60060  Biso   1.000  H
  H53      1.0000 0.08630  0.58330  0.93393  Biso   1.000  H
  H54      1.0000 0.41670  0.50300  0.26727  Biso   1.000  H
  H55      1.0000 0.08630  0.50300  0.23273  Biso   1.000  H
  H56      1.0000 0.41670  0.91370  0.89940  Biso   1.000  H
  H57      1.0000 0.49700  0.58330  0.56607  Biso   1.000  H
  H58      1.0000 0.91370  0.49700  0.73273  Biso   1.000  H
  H59      1.0000 0.58330  0.08630  0.39940  Biso   1.000  H
  H60      1.0000 0.50300  0.41670  0.06607  Biso   1.000  H
  H61      1.0000 0.55530  0.22400  0.08620  Biso   1.000  H
  H62      1.0000 0.77600  0.33130  0.41953  Biso   1.000  H
  H63      1.0000 0.66870  0.44470  0.75287  Biso   1.000  H
  H64      1.0000 0.44470  0.77600  0.58620  Biso   1.000  H
  H65      1.0000 0.22400  0.66870  0.91953  Biso   1.000  H
  H66      1.0000 0.33130  0.55530  0.25287  Biso   1.000  H
  H67      1.0000 0.22400  0.55530  0.24713  Biso   1.000  H
  H68      1.0000 0.33130  0.77600  0.91380  Biso   1.000  H
  H69      1.0000 0.44470  0.66870  0.58047  Biso   1.000  H
  H70      1.0000 0.77600  0.44470  0.74713  Biso   1.000  H
  H71      1.0000 0.66870  0.22400  0.41380  Biso   1.000  H
  H72      1.0000 0.55530  0.33130  0.08047  Biso   1.000  H
  C43      1.0000 0.33240  0.81000  0.08753  Biso   1.000  C
  C44      1.0000 0.19000  0.52240  0.42086  Biso   1.000  C
  C45      1.0000 0.47760  0.66760  0.75420  Biso   1.000  C
  C46      1.0000 0.66760  0.19000  0.58753  Biso   1.000  C
  C47      1.0000 0.81000  0.47760  0.92086  Biso   1.000  C
  C48      1.0000 0.52240  0.33240  0.25420  Biso   1.000  C
  C49      1.0000 0.81000  0.33240  0.24580  Biso   1.000  C
  C50      1.0000 0.52240  0.19000  0.91247  Biso   1.000  C
  C51      1.0000 0.66760  0.47760  0.57914  Biso   1.000  C
  C52      1.0000 0.19000  0.66760  0.74580  Biso   1.000  C
  C53      1.0000 0.47760  0.81000  0.41247  Biso   1.000  C
  C54      1.0000 0.33240  0.52240  0.07914  Biso   1.000  C
  C55      1.0000 0.91720  0.00000  0.00000  Biso   1.000  C
  C56      1.0000 0.00000  0.91720  0.33333  Biso   1.000  C
  C57      1.0000 0.08280  0.08280  0.66667  Biso   1.000  C
  C58      1.0000 0.08280  0.00000  0.50000  Biso   1.000  C
  C59      1.0000 0.00000  0.08280  0.83333  Biso   1.000  C
  C60      1.0000 0.91720  0.91720  0.16667  Biso   1.000  C
  C61      1.0000 0.78980  0.87760  0.00904  Biso   1.000  C
  C62      1.0000 0.12240  0.91220  0.34237  Biso   1.000  C
  C63      1.0000 0.08780  0.21020  0.67571  Biso   1.000  C
  C64      1.0000 0.21020  0.12240  0.50904  Biso   1.000  C
  C65      1.0000 0.87760  0.08780  0.84237  Biso   1.000  C
  C66      1.0000 0.91220  0.78980  0.17571  Biso   1.000  C
  C67      1.0000 0.87760  0.78980  0.32429  Biso   1.000  C
  C68      1.0000 0.91220  0.12240  0.99096  Biso   1.000  C
  C69      1.0000 0.21020  0.08780  0.65763  Biso   1.000  C
  C70      1.0000 0.12240  0.21020  0.82429  Biso   1.000  C
  C71      1.0000 0.08780  0.87760  0.49096  Biso   1.000  C
  C72      1.0000 0.78980  0.91220  0.15763  Biso   1.000  C
  H73      1.0000 0.78760  0.79210  0.01570  Biso   1.000  H
  H74      1.0000 0.20790  0.99550  0.34903  Biso   1.000  H
  H75      1.0000 0.00450  0.21240  0.68237  Biso   1.000  H
  H76      1.0000 0.21240  0.20790  0.51570  Biso   1.000  H
  H77      1.0000 0.79210  0.00450  0.84903  Biso   1.000  H
  H78      1.0000 0.99550  0.78760  0.18237  Biso   1.000  H
  H79      1.0000 0.79210  0.78760  0.31763  Biso   1.000  H
  H80      1.0000 0.99550  0.20790  0.98430  Biso   1.000  H
  H81      1.0000 0.21240  0.00450  0.65097  Biso   1.000  H
  H82      1.0000 0.20790  0.21240  0.81763  Biso   1.000  H
  H83      1.0000 0.00450  0.79210  0.48430  Biso   1.000  H
  H84      1.0000 0.78760  0.99550  0.15097  Biso   1.000  H
  C73      1.0000 0.66690  0.88210  0.00823  Biso   1.000  C
  C74      1.0000 0.11790  0.78480  0.34156  Biso   1.000  C
  C75      1.0000 0.21520  0.33310  0.67490  Biso   1.000  C
  C76      1.0000 0.33310  0.11790  0.50823  Biso   1.000  C
  C77      1.0000 0.88210  0.21520  0.84156  Biso   1.000  C
  C78      1.0000 0.78480  0.66690  0.17490  Biso   1.000  C
  C79      1.0000 0.88210  0.66690  0.32510  Biso   1.000  C
  C80      1.0000 0.78480  0.11790  0.99177  Biso   1.000  C
  C81      1.0000 0.33310  0.21520  0.65844  Biso   1.000  C
  C82      1.0000 0.11790  0.33310  0.82510  Biso   1.000  C
  C83      1.0000 0.21520  0.88210  0.49177  Biso   1.000  C
  C84      1.0000 0.66690  0.78480  0.15844  Biso   1.000  C
  H85      1.0000 0.58130  0.79800  0.01370  Biso   1.000  H
  H86      1.0000 0.20200  0.78330  0.34703  Biso   1.000  H
  H87      1.0000 0.21670  0.41870  0.68037  Biso   1.000  H
  H88      1.0000 0.41870  0.20200  0.51370  Biso   1.000  H
  H89      1.0000 0.79800  0.21670  0.84703  Biso   1.000  H
  H90      1.0000 0.78330  0.58130  0.18037  Biso   1.000  H
  H91      1.0000 0.79800  0.58130  0.31963  Biso   1.000  H
  H92      1.0000 0.78330  0.20200  0.98630  Biso   1.000  H
  H93      1.0000 0.41870  0.21670  0.65297  Biso   1.000  H
  H94      1.0000 0.20200  0.41870  0.81963  Biso   1.000  H
  H95      1.0000 0.21670  0.79800  0.48630  Biso   1.000  H
  H96      1.0000 0.58130  0.78330  0.15297  Biso   1.000  H
  O37      1.0000 0.85100  0.30580  0.10345  Biso   1.000  O
  O38      1.0000 0.69420  0.54520  0.43678  Biso   1.000  O
  O39      1.0000 0.45480  0.14900  0.77012  Biso   1.000  O
  O40      1.0000 0.14900  0.69420  0.60345  Biso   1.000  O
  O41      1.0000 0.30580  0.45480  0.93678  Biso   1.000  O
  O42      1.0000 0.54520  0.85100  0.27012  Biso   1.000  O
  O43      1.0000 0.30580  0.85100  0.22988  Biso   1.000  O
  O44      1.0000 0.54520  0.69420  0.89655  Biso   1.000  O
  O45      1.0000 0.14900  0.45480  0.56322  Biso   1.000  O
  O46      1.0000 0.69420  0.14900  0.72988  Biso   1.000  O
  O47      1.0000 0.45480  0.30580  0.39655  Biso   1.000  O
  O48      1.0000 0.85100  0.54520  0.06322  Biso   1.000  O
  H97      1.0000 0.84820  0.33130  0.13560  Biso   1.000  H
  H98      1.0000 0.66870  0.51690  0.46893  Biso   1.000  H
  H99      1.0000 0.48310  0.15180  0.80227  Biso   1.000  H
  H100     1.0000 0.15180  0.66870  0.63560  Biso   1.000  H
  H101     1.0000 0.33130  0.48310  0.96893  Biso   1.000  H
  H102     1.0000 0.51690  0.84820  0.30227  Biso   1.000  H
  H103     1.0000 0.33130  0.84820  0.19773  Biso   1.000  H
  H104     1.0000 0.51690  0.66870  0.86440  Biso   1.000  H
  H105     1.0000 0.15180  0.48310  0.53107  Biso   1.000  H
  H106     1.0000 0.66870  0.15180  0.69773  Biso   1.000  H
  H107     1.0000 0.48310  0.33130  0.36440  Biso   1.000  H
  H108     1.0000 0.84820  0.51690  0.03107  Biso   1.000  H
  H109     1.0000 0.79390  0.31710  0.08420  Biso   1.000  H
  H110     1.0000 0.68290  0.47680  0.41753  Biso   1.000  H
  H111     1.0000 0.52320  0.20610  0.75087  Biso   1.000  H
  H112     1.0000 0.20610  0.68290  0.58420  Biso   1.000  H
  H113     1.0000 0.31710  0.52320  0.91753  Biso   1.000  H
  H114     1.0000 0.47680  0.79390  0.25087  Biso   1.000  H
  H115     1.0000 0.31710  0.79390  0.24913  Biso   1.000  H
  H116     1.0000 0.47680  0.68290  0.91580  Biso   1.000  H
  H117     1.0000 0.20610  0.52320  0.58247  Biso   1.000  H
  H118     1.0000 0.68290  0.20610  0.74913  Biso   1.000  H
  H119     1.0000 0.52320  0.31710  0.41580  Biso   1.000  H
  H120     1.0000 0.79390  0.47680  0.08247  Biso   1.000  H
