data_image0
_cell_length_a       11.0545
_cell_length_b       11.0545
_cell_length_c       24.645
_cell_angle_alpha    90
_cell_angle_beta     90
_cell_angle_gamma    120

_symmetry_space_group_name_H-M    "P 1"
_symmetry_int_tables_number       1

loop_
  _symmetry_equiv_pos_as_xyz
  'x, y, z'

loop_
  _atom_site_label
  _atom_site_occupancy
  _atom_site_fract_x
  _atom_site_fract_y
  _atom_site_fract_z
  _atom_site_thermal_displace_type
  _atom_site_B_iso_or_equiv
  _atom_site_type_symbol
  Cu1      1.0000 0.48391  0.00000  0.00000  Biso   1.000  Cu
  Cu2      1.0000 0.00000  0.48391  0.33333  Biso   1.000  Cu
  Cu3      1.0000 0.51609  0.51609  0.66667  Biso   1.000  Cu
  Cu4      1.0000 0.51609  0.00000  0.50000  Biso   1.000  Cu
  Cu5      1.0000 0.00000  0.51609  0.83333  Biso   1.000  Cu
  Cu6      1.0000 0.48391  0.48391  0.16667  Biso   1.000  Cu
  N1       1.0000 0.66360  0.00000  0.00000  Biso   1.000  N
  N2       1.0000 0.00000  0.66360  0.33333  Biso   1.000  N
  N3       1.0000 0.33640  0.33640  0.66667  Biso   1.000  N
  N4       1.0000 0.33640  0.00000  0.50000  Biso   1.000  N
  N5       1.0000 0.00000  0.33640  0.83333  Biso   1.000  N
  N6       1.0000 0.66360  0.66360  0.16667  Biso   1.000  N
  O1       1.0000 0.39240  0.82620  0.04213  Biso   1.000  O
  O2       1.0000 0.17380  0.56620  0.37546  Biso   1.000  O
  O3       1.0000 0.43380  0.60760  0.70880  Biso   1.000  O
  O4       1.0000 0.60760  0.17380  0.54213  Biso   1.000  O
  O5       1.0000 0.82620  0.43380  0.87546  Biso   1.000  O
  O6       1.0000 0.56620  0.39240  0.20880  Biso   1.000  O
  O7       1.0000 0.82620  0.39240  0.29120  Biso   1.000  O
  O8       1.0000 0.56620  0.17380  0.95787  Biso   1.000  O
  O9       1.0000 0.60760  0.43380  0.62454  Biso   1.000  O
  O10      1.0000 0.17380  0.60760  0.79120  Biso   1.000  O
  O11      1.0000 0.43380  0.82620  0.45787  Biso   1.000  O
  O12      1.0000 0.39240  0.56620  0.12454  Biso   1.000  O
  N7       1.0000 0.30210  0.00000  0.00000  Biso   1.000  N
  N8       1.0000 0.00000  0.30210  0.33333  Biso   1.000  N
  N9       1.0000 0.69790  0.69790  0.66667  Biso   1.000  N
  N10      1.0000 0.69790  0.00000  0.50000  Biso   1.000  N
  N11      1.0000 0.00000  0.69790  0.83333  Biso   1.000  N
  N12      1.0000 0.30210  0.30210  0.16667  Biso   1.000  N
  C1       1.0000 0.04980  0.00000  0.00000  Biso   1.000  C
  C2       1.0000 0.00000  0.04980  0.33333  Biso   1.000  C
  C3       1.0000 0.95020  0.95020  0.66667  Biso   1.000  C
  C4       1.0000 0.95020  0.00000  0.50000  Biso   1.000  C
  C5       1.0000 0.00000  0.95020  0.83333  Biso   1.000  C
  C6       1.0000 0.04980  0.04980  0.16667  Biso   1.000  C
  C7       1.0000 0.21370  0.66400  0.10005  Biso   1.000  C
  C8       1.0000 0.33600  0.54970  0.43338  Biso   1.000  C
  C9       1.0000 0.45030  0.78630  0.76672  Biso   1.000  C
  C10      1.0000 0.78630  0.33600  0.60005  Biso   1.000  C
  C11      1.0000 0.66400  0.45030  0.93338  Biso   1.000  C
  C12      1.0000 0.54970  0.21370  0.26672  Biso   1.000  C
  C13      1.0000 0.66400  0.21370  0.23328  Biso   1.000  C
  C14      1.0000 0.54970  0.33600  0.89995  Biso   1.000  C
  C15      1.0000 0.78630  0.45030  0.56662  Biso   1.000  C
  C16      1.0000 0.33600  0.78630  0.73328  Biso   1.000  C
  C17      1.0000 0.45030  0.66400  0.39995  Biso   1.000  C
  C18      1.0000 0.21370  0.54970  0.06662  Biso   1.000  C
  H1       1.0000 0.21890  0.64410  0.13890  Biso   1.000  H
  H2       1.0000 0.35590  0.57480  0.47223  Biso   1.000  H
  H3       1.0000 0.42520  0.78110  0.80557  Biso   1.000  H
  H4       1.0000 0.78110  0.35590  0.63890  Biso   1.000  H
  H5       1.0000 0.64410  0.42520  0.97223  Biso   1.000  H
  H6       1.0000 0.57480  0.21890  0.30557  Biso   1.000  H
  H7       1.0000 0.64410  0.21890  0.19443  Biso   1.000  H
  H8       1.0000 0.57480  0.35590  0.86110  Biso   1.000  H
  H9       1.0000 0.78110  0.42520  0.52777  Biso   1.000  H
  H10      1.0000 0.35590  0.78110  0.69443  Biso   1.000  H
  H11      1.0000 0.42520  0.64410  0.36110  Biso   1.000  H
  H12      1.0000 0.21890  0.57480  0.02777  Biso   1.000  H
  H13      1.0000 0.12390  0.66160  0.09430  Biso   1.000  H
  H14      1.0000 0.33840  0.46230  0.42763  Biso   1.000  H
  H15      1.0000 0.53770  0.87610  0.76097  Biso   1.000  H
  H16      1.0000 0.87610  0.33840  0.59430  Biso   1.000  H
  H17      1.0000 0.66160  0.53770  0.92763  Biso   1.000  H
  H18      1.0000 0.46230  0.12390  0.26097  Biso   1.000  H
  H19      1.0000 0.66160  0.12390  0.23903  Biso   1.000  H
  H20      1.0000 0.46230  0.33840  0.90570  Biso   1.000  H
  H21      1.0000 0.87610  0.53770  0.57237  Biso   1.000  H
  H22      1.0000 0.33840  0.87610  0.73903  Biso   1.000  H
  H23      1.0000 0.53770  0.66160  0.40570  Biso   1.000  H
  H24      1.0000 0.12390  0.46230  0.07237  Biso   1.000  H
  C19      1.0000 0.17550  0.12100  0.01113  Biso   1.000  C
  C20      1.0000 0.87900  0.05450  0.34446  Biso   1.000  C
  C21      1.0000 0.94550  0.82450  0.67780  Biso   1.000  C
  C22      1.0000 0.82450  0.87900  0.51113  Biso   1.000  C
  C23      1.0000 0.12100  0.94550  0.84446  Biso   1.000  C
  C24      1.0000 0.05450  0.17550  0.17780  Biso   1.000  C
  C25      1.0000 0.12100  0.17550  0.32220  Biso   1.000  C
  C26      1.0000 0.05450  0.87900  0.98887  Biso   1.000  C
  C27      1.0000 0.82450  0.94550  0.65554  Biso   1.000  C
  C28      1.0000 0.87900  0.82450  0.82220  Biso   1.000  C
  C29      1.0000 0.94550  0.12100  0.48887  Biso   1.000  C
  C30      1.0000 0.17550  0.05450  0.15554  Biso   1.000  C
  H25      1.0000 0.17690  0.20560  0.01940  Biso   1.000  H
  H26      1.0000 0.79440  0.97130  0.35273  Biso   1.000  H
  H27      1.0000 0.02870  0.82310  0.68607  Biso   1.000  H
  H28      1.0000 0.82310  0.79440  0.51940  Biso   1.000  H
  H29      1.0000 0.20560  0.02870  0.85273  Biso   1.000  H
  H30      1.0000 0.97130  0.17690  0.18607  Biso   1.000  H
  H31      1.0000 0.20560  0.17690  0.31393  Biso   1.000  H
  H32      1.0000 0.97130  0.79440  0.98060  Biso   1.000  H
  H33      1.0000 0.82310  0.02870  0.64727  Biso   1.000  H
  H34      1.0000 0.79440  0.82310  0.81393  Biso   1.000  H
  H35      1.0000 0.02870  0.20560  0.48060  Biso   1.000  H
  H36      1.0000 0.17690  0.97130  0.14727  Biso   1.000  H
  O13      1.0000 0.36030  0.90570  0.12102  Biso   1.000  O
  O14      1.0000 0.09430  0.45460  0.45435  Biso   1.000  O
  O15      1.0000 0.54540  0.63970  0.78769  Biso   1.000  O
  O16      1.0000 0.63970  0.09430  0.62102  Biso   1.000  O
  O17      1.0000 0.90570  0.54540  0.95435  Biso   1.000  O
  O18      1.0000 0.45460  0.36030  0.28769  Biso   1.000  O
  O19      1.0000 0.90570  0.36030  0.21231  Biso   1.000  O
  O20      1.0000 0.45460  0.09430  0.87898  Biso   1.000  O
  O21      1.0000 0.63970  0.54540  0.54565  Biso   1.000  O
  O22      1.0000 0.09430  0.63970  0.71231  Biso   1.000  O
  O23      1.0000 0.54540  0.90570  0.37898  Biso   1.000  O
  O24      1.0000 0.36030  0.45460  0.04565  Biso   1.000  O
  C31      1.0000 0.29810  0.11670  0.00995  Biso   1.000  C
  C32      1.0000 0.88330  0.18140  0.34328  Biso   1.000  C
  C33      1.0000 0.81860  0.70190  0.67662  Biso   1.000  C
  C34      1.0000 0.70190  0.88330  0.50995  Biso   1.000  C
  C35      1.0000 0.11670  0.81860  0.84328  Biso   1.000  C
  C36      1.0000 0.18140  0.29810  0.17662  Biso   1.000  C
  C37      1.0000 0.11670  0.29810  0.32338  Biso   1.000  C
  C38      1.0000 0.18140  0.88330  0.99005  Biso   1.000  C
  C39      1.0000 0.70190  0.81860  0.65672  Biso   1.000  C
  C40      1.0000 0.88330  0.70190  0.82338  Biso   1.000  C
  C41      1.0000 0.81860  0.11670  0.49005  Biso   1.000  C
  C42      1.0000 0.29810  0.18140  0.15672  Biso   1.000  C
  H37      1.0000 0.38350  0.20060  0.01650  Biso   1.000  H
  H38      1.0000 0.79940  0.18290  0.34983  Biso   1.000  H
  H39      1.0000 0.81710  0.61650  0.68317  Biso   1.000  H
  H40      1.0000 0.61650  0.79940  0.51650  Biso   1.000  H
  H41      1.0000 0.20060  0.81710  0.84983  Biso   1.000  H
  H42      1.0000 0.18290  0.38350  0.18317  Biso   1.000  H
  H43      1.0000 0.20060  0.38350  0.31683  Biso   1.000  H
  H44      1.0000 0.18290  0.79940  0.98350  Biso   1.000  H
  H45      1.0000 0.61650  0.81710  0.65017  Biso   1.000  H
  H46      1.0000 0.79940  0.61650  0.81683  Biso   1.000  H
  H47      1.0000 0.81710  0.20060  0.48350  Biso   1.000  H
  H48      1.0000 0.38350  0.18290  0.15017  Biso   1.000  H
  C43      1.0000 0.33180  0.80970  0.08748  Biso   1.000  C
  C44      1.0000 0.19030  0.52210  0.42081  Biso   1.000  C
  C45      1.0000 0.47790  0.66820  0.75415  Biso   1.000  C
  C46      1.0000 0.66820  0.19030  0.58748  Biso   1.000  C
  C47      1.0000 0.80970  0.47790  0.92081  Biso   1.000  C
  C48      1.0000 0.52210  0.33180  0.25415  Biso   1.000  C
  C49      1.0000 0.80970  0.33180  0.24585  Biso   1.000  C
  C50      1.0000 0.52210  0.19030  0.91252  Biso   1.000  C
  C51      1.0000 0.66820  0.47790  0.57919  Biso   1.000  C
  C52      1.0000 0.19030  0.66820  0.74585  Biso   1.000  C
  C53      1.0000 0.47790  0.80970  0.41252  Biso   1.000  C
  C54      1.0000 0.33180  0.52210  0.07919  Biso   1.000  C
  O25      1.0000 0.40960  0.84640  0.91823  Biso   1.000  O
  O26      1.0000 0.15360  0.56320  0.25156  Biso   1.000  O
  O27      1.0000 0.43680  0.59040  0.58490  Biso   1.000  O
  O28      1.0000 0.59040  0.15360  0.41823  Biso   1.000  O
  O29      1.0000 0.84640  0.43680  0.75156  Biso   1.000  O
  O30      1.0000 0.56320  0.40960  0.08490  Biso   1.000  O
  O31      1.0000 0.84640  0.40960  0.41510  Biso   1.000  O
  O32      1.0000 0.56320  0.15360  0.08177  Biso   1.000  O
  O33      1.0000 0.59040  0.43680  0.74844  Biso   1.000  O
  O34      1.0000 0.15360  0.59040  0.91510  Biso   1.000  O
  O35      1.0000 0.43680  0.84640  0.58177  Biso   1.000  O
  O36      1.0000 0.40960  0.56320  0.24844  Biso   1.000  O
  H49      1.0000 0.42200  0.92230  0.90460  Biso   1.000  H
  H50      1.0000 0.07770  0.49970  0.23793  Biso   1.000  H
  H51      1.0000 0.50030  0.57800  0.57127  Biso   1.000  H
  H52      1.0000 0.57800  0.07770  0.40460  Biso   1.000  H
  H53      1.0000 0.92230  0.50030  0.73793  Biso   1.000  H
  H54      1.0000 0.49970  0.42200  0.07127  Biso   1.000  H
  H55      1.0000 0.92230  0.42200  0.42873  Biso   1.000  H
  H56      1.0000 0.49970  0.07770  0.09540  Biso   1.000  H
  H57      1.0000 0.57800  0.50030  0.76207  Biso   1.000  H
  H58      1.0000 0.07770  0.57800  0.92873  Biso   1.000  H
  H59      1.0000 0.50030  0.92230  0.59540  Biso   1.000  H
  H60      1.0000 0.42200  0.49970  0.26207  Biso   1.000  H
  H61      1.0000 0.46730  0.82680  0.90360  Biso   1.000  H
  H62      1.0000 0.17320  0.64050  0.23693  Biso   1.000  H
  H63      1.0000 0.35950  0.53270  0.57027  Biso   1.000  H
  H64      1.0000 0.53270  0.17320  0.40360  Biso   1.000  H
  H65      1.0000 0.82680  0.35950  0.73693  Biso   1.000  H
  H66      1.0000 0.64050  0.46730  0.07027  Biso   1.000  H
  H67      1.0000 0.82680  0.46730  0.42973  Biso   1.000  H
  H68      1.0000 0.64050  0.17320  0.09640  Biso   1.000  H
  H69      1.0000 0.53270  0.35950  0.76307  Biso   1.000  H
  H70      1.0000 0.17320  0.53270  0.92973  Biso   1.000  H
  H71      1.0000 0.35950  0.82680  0.59640  Biso   1.000  H
  H72      1.0000 0.46730  0.64050  0.26307  Biso   1.000  H
  C55      1.0000 0.91700  0.00000  0.00000  Biso   1.000  C
  C56      1.0000 0.00000  0.91700  0.33333  Biso   1.000  C
  C57      1.0000 0.08300  0.08300  0.66667  Biso   1.000  C
  C58      1.0000 0.08300  0.00000  0.50000  Biso   1.000  C
  C59      1.0000 0.00000  0.08300  0.83333  Biso   1.000  C
  C60      1.0000 0.91700  0.91700  0.16667  Biso   1.000  C
  C61      1.0000 0.78980  0.87790  0.00915  Biso   1.000  C
  C62      1.0000 0.12210  0.91190  0.34248  Biso   1.000  C
  C63      1.0000 0.08810  0.21020  0.67582  Biso   1.000  C
  C64      1.0000 0.21020  0.12210  0.50915  Biso   1.000  C
  C65      1.0000 0.87790  0.08810  0.84248  Biso   1.000  C
  C66      1.0000 0.91190  0.78980  0.17582  Biso   1.000  C
  C67      1.0000 0.87790  0.78980  0.32418  Biso   1.000  C
  C68      1.0000 0.91190  0.12210  0.99085  Biso   1.000  C
  C69      1.0000 0.21020  0.08810  0.65752  Biso   1.000  C
  C70      1.0000 0.12210  0.21020  0.82418  Biso   1.000  C
  C71      1.0000 0.08810  0.87790  0.49085  Biso   1.000  C
  C72      1.0000 0.78980  0.91190  0.15752  Biso   1.000  C
  H73      1.0000 0.78790  0.79240  0.01600  Biso   1.000  H
  H74      1.0000 0.20760  0.99550  0.34933  Biso   1.000  H
  H75      1.0000 0.00450  0.21210  0.68267  Biso   1.000  H
  H76      1.0000 0.21210  0.20760  0.51600  Biso   1.000  H
  H77      1.0000 0.79240  0.00450  0.84933  Biso   1.000  H
  H78      1.0000 0.99550  0.78790  0.18267  Biso   1.000  H
  H79      1.0000 0.79240  0.78790  0.31733  Biso   1.000  H
  H80      1.0000 0.99550  0.20760  0.98400  Biso   1.000  H
  H81      1.0000 0.21210  0.00450  0.65067  Biso   1.000  H
  H82      1.0000 0.20760  0.21210  0.81733  Biso   1.000  H
  H83      1.0000 0.00450  0.79240  0.48400  Biso   1.000  H
  H84      1.0000 0.78790  0.99550  0.15067  Biso   1.000  H
  C73      1.0000 0.66690  0.88190  0.00820  Biso   1.000  C
  C74      1.0000 0.11810  0.78500  0.34153  Biso   1.000  C
  C75      1.0000 0.21500  0.33310  0.67487  Biso   1.000  C
  C76      1.0000 0.33310  0.11810  0.50820  Biso   1.000  C
  C77      1.0000 0.88190  0.21500  0.84153  Biso   1.000  C
  C78      1.0000 0.78500  0.66690  0.17487  Biso   1.000  C
  C79      1.0000 0.88190  0.66690  0.32513  Biso   1.000  C
  C80      1.0000 0.78500  0.11810  0.99180  Biso   1.000  C
  C81      1.0000 0.33310  0.21500  0.65847  Biso   1.000  C
  C82      1.0000 0.11810  0.33310  0.82513  Biso   1.000  C
  C83      1.0000 0.21500  0.88190  0.49180  Biso   1.000  C
  C84      1.0000 0.66690  0.78500  0.15847  Biso   1.000  C
  H85      1.0000 0.58120  0.79740  0.01360  Biso   1.000  H
  H86      1.0000 0.20260  0.78380  0.34693  Biso   1.000  H
  H87      1.0000 0.21620  0.41880  0.68027  Biso   1.000  H
  H88      1.0000 0.41880  0.20260  0.51360  Biso   1.000  H
  H89      1.0000 0.79740  0.21620  0.84693  Biso   1.000  H
  H90      1.0000 0.78380  0.58120  0.18027  Biso   1.000  H
  H91      1.0000 0.79740  0.58120  0.31973  Biso   1.000  H
  H92      1.0000 0.78380  0.20260  0.98640  Biso   1.000  H
  H93      1.0000 0.41880  0.21620  0.65307  Biso   1.000  H
  H94      1.0000 0.20260  0.41880  0.81973  Biso   1.000  H
  H95      1.0000 0.21620  0.79740  0.48640  Biso   1.000  H
  H96      1.0000 0.58120  0.78380  0.15307  Biso   1.000  H
  O37      1.0000 0.54490  0.69420  0.89678  Biso   1.000  O
  O38      1.0000 0.30580  0.85070  0.23011  Biso   1.000  O
  O39      1.0000 0.14930  0.45510  0.56345  Biso   1.000  O
  O40      1.0000 0.45510  0.30580  0.39678  Biso   1.000  O
  O41      1.0000 0.69420  0.14930  0.73011  Biso   1.000  O
  O42      1.0000 0.85070  0.54490  0.06345  Biso   1.000  O
  O43      1.0000 0.69420  0.54490  0.43655  Biso   1.000  O
  O44      1.0000 0.85070  0.30580  0.10322  Biso   1.000  O
  O45      1.0000 0.45510  0.14930  0.76989  Biso   1.000  O
  O46      1.0000 0.30580  0.45510  0.93655  Biso   1.000  O
  O47      1.0000 0.14930  0.69420  0.60322  Biso   1.000  O
  O48      1.0000 0.54490  0.85070  0.26989  Biso   1.000  O
  H97      1.0000 0.57130  0.69460  0.86440  Biso   1.000  H
  H98      1.0000 0.30540  0.87670  0.19773  Biso   1.000  H
  H99      1.0000 0.12330  0.42870  0.53107  Biso   1.000  H
  H100     1.0000 0.42870  0.30540  0.36440  Biso   1.000  H
  H101     1.0000 0.69460  0.12330  0.69773  Biso   1.000  H
  H102     1.0000 0.87670  0.57130  0.03107  Biso   1.000  H
  H103     1.0000 0.69460  0.57130  0.46893  Biso   1.000  H
  H104     1.0000 0.87670  0.30540  0.13560  Biso   1.000  H
  H105     1.0000 0.42870  0.12330  0.80227  Biso   1.000  H
  H106     1.0000 0.30540  0.42870  0.96893  Biso   1.000  H
  H107     1.0000 0.12330  0.69460  0.63560  Biso   1.000  H
  H108     1.0000 0.57130  0.87670  0.30227  Biso   1.000  H
  H109     1.0000 0.45680  0.65980  0.89640  Biso   1.000  H
  H110     1.0000 0.34020  0.79700  0.22973  Biso   1.000  H
  H111     1.0000 0.20300  0.54320  0.56307  Biso   1.000  H
  H112     1.0000 0.54320  0.34020  0.39640  Biso   1.000  H
  H113     1.0000 0.65980  0.20300  0.72973  Biso   1.000  H
  H114     1.0000 0.79700  0.45680  0.06307  Biso   1.000  H
  H115     1.0000 0.65980  0.45680  0.43693  Biso   1.000  H
  H116     1.0000 0.79700  0.34020  0.10360  Biso   1.000  H
  H117     1.0000 0.54320  0.20300  0.77027  Biso   1.000  H
  H118     1.0000 0.34020  0.54320  0.93693  Biso   1.000  H
  H119     1.0000 0.20300  0.65980  0.60360  Biso   1.000  H
  H120     1.0000 0.45680  0.79700  0.27027  Biso   1.000  H
