data_image0
_cell_length_a       15.653
_cell_length_b       9.8786
_cell_length_c       15.2018
_cell_angle_alpha    90
_cell_angle_beta     98.981
_cell_angle_gamma    90

_symmetry_space_group_name_H-M    "P 1"
_symmetry_int_tables_number       1

loop_
  _symmetry_equiv_pos_as_xyz
  'x, y, z'

loop_
  _atom_site_label
  _atom_site_occupancy
  _atom_site_fract_x
  _atom_site_fract_y
  _atom_site_fract_z
  _atom_site_thermal_displace_type
  _atom_site_B_iso_or_equiv
  _atom_site_type_symbol
  Cu1      1.0000 0.50000  0.00000  0.50000  Biso   1.000  Cu
  Cu2      1.0000 0.50000  0.50000  0.00000  Biso   1.000  Cu
  Cu3      1.0000 0.00000  0.00000  0.50000  Biso   1.000  Cu
  Cu4      1.0000 0.00000  0.50000  0.00000  Biso   1.000  Cu
  O1       1.0000 0.35730  0.25970  0.57370  Biso   1.000  O
  O2       1.0000 0.35730  0.24030  0.07370  Biso   1.000  O
  O3       1.0000 0.64270  0.74030  0.42630  Biso   1.000  O
  O4       1.0000 0.64270  0.75970  0.92630  Biso   1.000  O
  O5       1.0000 0.36940  0.03310  0.57930  Biso   1.000  O
  O6       1.0000 0.36940  0.46690  0.07930  Biso   1.000  O
  O7       1.0000 0.63060  0.96690  0.42070  Biso   1.000  O
  O8       1.0000 0.63060  0.53310  0.92070  Biso   1.000  O
  O9       1.0000 0.22000  0.08490  0.41820  Biso   1.000  O
  O10      1.0000 0.22000  0.41510  0.91820  Biso   1.000  O
  O11      1.0000 0.78000  0.91510  0.58180  Biso   1.000  O
  O12      1.0000 0.78000  0.58490  0.08180  Biso   1.000  O
  O13      1.0000 0.08420  0.02440  0.42100  Biso   1.000  O
  O14      1.0000 0.08420  0.47560  0.92100  Biso   1.000  O
  O15      1.0000 0.91580  0.97560  0.57900  Biso   1.000  O
  O16      1.0000 0.91580  0.52440  0.07900  Biso   1.000  O
  N1       1.0000 0.51280  0.20140  0.48970  Biso   1.000  N
  N2       1.0000 0.51280  0.29860  0.98970  Biso   1.000  N
  N3       1.0000 0.48720  0.79860  0.51030  Biso   1.000  N
  N4       1.0000 0.48720  0.70140  0.01030  Biso   1.000  N
  H1       1.0000 0.47130  0.23870  0.51790  Biso   1.000  H
  H2       1.0000 0.47130  0.26130  0.01790  Biso   1.000  H
  H3       1.0000 0.52870  0.76130  0.48210  Biso   1.000  H
  H4       1.0000 0.52870  0.73870  0.98210  Biso   1.000  H
  N5       1.0000 0.59800  0.01770  0.60510  Biso   1.000  N
  N6       1.0000 0.59800  0.48230  0.10510  Biso   1.000  N
  N7       1.0000 0.40200  0.98230  0.39490  Biso   1.000  N
  N8       1.0000 0.40200  0.51770  0.89490  Biso   1.000  N
  H5       1.0000 0.64630  0.99750  0.58130  Biso   1.000  H
  H6       1.0000 0.64630  0.50250  0.08130  Biso   1.000  H
  H7       1.0000 0.35370  0.00250  0.41870  Biso   1.000  H
  H8       1.0000 0.35370  0.49750  0.91870  Biso   1.000  H
  N9       1.0000 0.24040  0.15810  0.69880  Biso   1.000  N
  N10      1.0000 0.24040  0.34190  0.19880  Biso   1.000  N
  N11      1.0000 0.75960  0.84190  0.30120  Biso   1.000  N
  N12      1.0000 0.75960  0.65810  0.80120  Biso   1.000  N
  N13      1.0000 0.09510  0.06320  0.59120  Biso   1.000  N
  N14      1.0000 0.09510  0.43680  0.09120  Biso   1.000  N
  N15      1.0000 0.90490  0.93680  0.40880  Biso   1.000  N
  N16      1.0000 0.90490  0.56320  0.90880  Biso   1.000  N
  C1       1.0000 0.59680  0.24190  0.54190  Biso   1.000  C
  C2       1.0000 0.59680  0.25810  0.04190  Biso   1.000  C
  C3       1.0000 0.40320  0.75810  0.45810  Biso   1.000  C
  C4       1.0000 0.40320  0.74190  0.95810  Biso   1.000  C
  H9       1.0000 0.64260  0.21370  0.50860  Biso   1.000  H
  H10      1.0000 0.64260  0.28630  0.00860  Biso   1.000  H
  H11      1.0000 0.35740  0.78630  0.49140  Biso   1.000  H
  H12      1.0000 0.35740  0.71370  0.99140  Biso   1.000  H
  C5       1.0000 0.60600  0.39360  0.55830  Biso   1.000  C
  C6       1.0000 0.60600  0.10640  0.05830  Biso   1.000  C
  C7       1.0000 0.39400  0.60640  0.44170  Biso   1.000  C
  C8       1.0000 0.39400  0.89360  0.94170  Biso   1.000  C
  H13      1.0000 0.55970  0.42520  0.58870  Biso   1.000  H
  H14      1.0000 0.55970  0.07480  0.08870  Biso   1.000  H
  H15      1.0000 0.44030  0.57480  0.41130  Biso   1.000  H
  H16      1.0000 0.44030  0.92520  0.91130  Biso   1.000  H
  H17      1.0000 0.60150  0.44070  0.50180  Biso   1.000  H
  H18      1.0000 0.60150  0.05930  0.00180  Biso   1.000  H
  H19      1.0000 0.39850  0.55930  0.49820  Biso   1.000  H
  H20      1.0000 0.39850  0.94070  0.99820  Biso   1.000  H
  C9       1.0000 0.69330  0.42510  0.61490  Biso   1.000  C
  C10      1.0000 0.69330  0.07490  0.11490  Biso   1.000  C
  C11      1.0000 0.30670  0.57490  0.38510  Biso   1.000  C
  C12      1.0000 0.30670  0.92510  0.88510  Biso   1.000  C
  H21      1.0000 0.73940  0.40000  0.58220  Biso   1.000  H
  H22      1.0000 0.73940  0.10000  0.08220  Biso   1.000  H
  H23      1.0000 0.26060  0.60000  0.41780  Biso   1.000  H
  H24      1.0000 0.26060  0.90000  0.91780  Biso   1.000  H
  H25      1.0000 0.69750  0.52170  0.62630  Biso   1.000  H
  H26      1.0000 0.69750  0.97830  0.12630  Biso   1.000  H
  H27      1.0000 0.30250  0.47830  0.37370  Biso   1.000  H
  H28      1.0000 0.30250  0.02170  0.87370  Biso   1.000  H
  C13      1.0000 0.70480  0.34940  0.70300  Biso   1.000  C
  C14      1.0000 0.70480  0.15060  0.20300  Biso   1.000  C
  C15      1.0000 0.29520  0.65060  0.29700  Biso   1.000  C
  C16      1.0000 0.29520  0.84940  0.79700  Biso   1.000  C
  H29      1.0000 0.66180  0.37970  0.73820  Biso   1.000  H
  H30      1.0000 0.66180  0.12030  0.23820  Biso   1.000  H
  H31      1.0000 0.33820  0.62030  0.26180  Biso   1.000  H
  H32      1.0000 0.33820  0.87970  0.76180  Biso   1.000  H
  H33      1.0000 0.76160  0.36820  0.73630  Biso   1.000  H
  H34      1.0000 0.76160  0.13180  0.23630  Biso   1.000  H
  H35      1.0000 0.23840  0.63180  0.26370  Biso   1.000  H
  H36      1.0000 0.23840  0.86820  0.76370  Biso   1.000  H
  C17      1.0000 0.69490  0.19770  0.68600  Biso   1.000  C
  C18      1.0000 0.69490  0.30230  0.18600  Biso   1.000  C
  C19      1.0000 0.30510  0.80230  0.31400  Biso   1.000  C
  C20      1.0000 0.30510  0.69770  0.81400  Biso   1.000  C
  H37      1.0000 0.69870  0.15060  0.74240  Biso   1.000  H
  H38      1.0000 0.69870  0.34940  0.24240  Biso   1.000  H
  H39      1.0000 0.30130  0.84940  0.25760  Biso   1.000  H
  H40      1.0000 0.30130  0.65060  0.75760  Biso   1.000  H
  H41      1.0000 0.74190  0.16620  0.65650  Biso   1.000  H
  H42      1.0000 0.74190  0.33380  0.15650  Biso   1.000  H
  H43      1.0000 0.25810  0.83380  0.34350  Biso   1.000  H
  H44      1.0000 0.25810  0.66620  0.84350  Biso   1.000  H
  C21      1.0000 0.60830  0.16380  0.62790  Biso   1.000  C
  C22      1.0000 0.60830  0.33620  0.12790  Biso   1.000  C
  C23      1.0000 0.39170  0.83620  0.37210  Biso   1.000  C
  C24      1.0000 0.39170  0.66380  0.87210  Biso   1.000  C
  H45      1.0000 0.56170  0.18990  0.66080  Biso   1.000  H
  H46      1.0000 0.56170  0.31010  0.16080  Biso   1.000  H
  H47      1.0000 0.43830  0.81010  0.33920  Biso   1.000  H
  H48      1.0000 0.43830  0.68990  0.83920  Biso   1.000  H
  C25      1.0000 0.60270  0.92400  0.68370  Biso   1.000  C
  C26      1.0000 0.60270  0.57600  0.18370  Biso   1.000  C
  C27      1.0000 0.39730  0.07600  0.31630  Biso   1.000  C
  C28      1.0000 0.39730  0.42400  0.81630  Biso   1.000  C
  H49      1.0000 0.66130  0.93120  0.71730  Biso   1.000  H
  H50      1.0000 0.66130  0.56880  0.21730  Biso   1.000  H
  H51      1.0000 0.33870  0.06880  0.28270  Biso   1.000  H
  H52      1.0000 0.33870  0.43120  0.78270  Biso   1.000  H
  C29      1.0000 0.54080  0.96430  0.74570  Biso   1.000  C
  C30      1.0000 0.54080  0.53570  0.24570  Biso   1.000  C
  C31      1.0000 0.45920  0.03570  0.25430  Biso   1.000  C
  C32      1.0000 0.45920  0.46430  0.75430  Biso   1.000  C
  H53      1.0000 0.55130  0.05670  0.76380  Biso   1.000  H
  H54      1.0000 0.55130  0.44330  0.26380  Biso   1.000  H
  H55      1.0000 0.44870  0.94330  0.23620  Biso   1.000  H
  H56      1.0000 0.44870  0.55670  0.73620  Biso   1.000  H
  H57      1.0000 0.54940  0.90680  0.79730  Biso   1.000  H
  H58      1.0000 0.54940  0.59320  0.29730  Biso   1.000  H
  H59      1.0000 0.45060  0.09320  0.20270  Biso   1.000  H
  H60      1.0000 0.45060  0.40680  0.70270  Biso   1.000  H
  H61      1.0000 0.48250  0.95510  0.71560  Biso   1.000  H
  H62      1.0000 0.48250  0.54490  0.21560  Biso   1.000  H
  H63      1.0000 0.51750  0.04490  0.28440  Biso   1.000  H
  H64      1.0000 0.51750  0.45510  0.78440  Biso   1.000  H
  C33      1.0000 0.59070  0.77940  0.65180  Biso   1.000  C
  C34      1.0000 0.59070  0.72060  0.15180  Biso   1.000  C
  C35      1.0000 0.40930  0.22060  0.34820  Biso   1.000  C
  C36      1.0000 0.40930  0.27940  0.84820  Biso   1.000  C
  H65      1.0000 0.60290  0.72010  0.70310  Biso   1.000  H
  H66      1.0000 0.60290  0.77990  0.20310  Biso   1.000  H
  H67      1.0000 0.39710  0.27990  0.29690  Biso   1.000  H
  H68      1.0000 0.39710  0.22010  0.79690  Biso   1.000  H
  H69      1.0000 0.63330  0.76030  0.61340  Biso   1.000  H
  H70      1.0000 0.63330  0.73970  0.11340  Biso   1.000  H
  H71      1.0000 0.36670  0.23970  0.38660  Biso   1.000  H
  H72      1.0000 0.36670  0.26030  0.88660  Biso   1.000  H
  C37      1.0000 0.49830  0.25620  0.39850  Biso   1.000  C
  C38      1.0000 0.49830  0.24380  0.89850  Biso   1.000  C
  C39      1.0000 0.50170  0.74380  0.60150  Biso   1.000  C
  C40      1.0000 0.50170  0.75620  0.10150  Biso   1.000  C
  H73      1.0000 0.50440  0.35390  0.40110  Biso   1.000  H
  H74      1.0000 0.50440  0.14610  0.90110  Biso   1.000  H
  H75      1.0000 0.49560  0.64610  0.59890  Biso   1.000  H
  H76      1.0000 0.49560  0.85390  0.09890  Biso   1.000  H
  H77      1.0000 0.54210  0.22080  0.36610  Biso   1.000  H
  H78      1.0000 0.54210  0.27920  0.86610  Biso   1.000  H
  H79      1.0000 0.45790  0.77920  0.63390  Biso   1.000  H
  H80      1.0000 0.45790  0.72080  0.13390  Biso   1.000  H
  C41      1.0000 0.33090  0.14260  0.58510  Biso   1.000  C
  C42      1.0000 0.33090  0.35740  0.08510  Biso   1.000  C
  C43      1.0000 0.66910  0.85740  0.41490  Biso   1.000  C
  C44      1.0000 0.66910  0.64260  0.91490  Biso   1.000  C
  C45      1.0000 0.24190  0.12910  0.61250  Biso   1.000  C
  C46      1.0000 0.24190  0.37090  0.11250  Biso   1.000  C
  C47      1.0000 0.75810  0.87090  0.38750  Biso   1.000  C
  C48      1.0000 0.75810  0.62910  0.88750  Biso   1.000  C
  C49      1.0000 0.16590  0.13790  0.72870  Biso   1.000  C
  C50      1.0000 0.16590  0.36210  0.22870  Biso   1.000  C
  C51      1.0000 0.83410  0.86210  0.27130  Biso   1.000  C
  C52      1.0000 0.83410  0.63790  0.77130  Biso   1.000  C
  H81      1.0000 0.16270  0.15920  0.78770  Biso   1.000  H
  H82      1.0000 0.16270  0.34080  0.28770  Biso   1.000  H
  H83      1.0000 0.83730  0.84080  0.21230  Biso   1.000  H
  H84      1.0000 0.83730  0.65920  0.71230  Biso   1.000  H
  C53      1.0000 0.09480  0.08800  0.67730  Biso   1.000  C
  C54      1.0000 0.09480  0.41200  0.17730  Biso   1.000  C
  C55      1.0000 0.90520  0.91200  0.32270  Biso   1.000  C
  C56      1.0000 0.90520  0.58800  0.82270  Biso   1.000  C
  H85      1.0000 0.04520  0.07070  0.70210  Biso   1.000  H
  H86      1.0000 0.04520  0.42930  0.20210  Biso   1.000  H
  H87      1.0000 0.95480  0.92930  0.29790  Biso   1.000  H
  H88      1.0000 0.95480  0.57070  0.79790  Biso   1.000  H
  C57      1.0000 0.16840  0.08570  0.55830  Biso   1.000  C
  C58      1.0000 0.16840  0.41430  0.05830  Biso   1.000  C
  C59      1.0000 0.83160  0.91430  0.44170  Biso   1.000  C
  C60      1.0000 0.83160  0.58570  0.94170  Biso   1.000  C
  C61      1.0000 0.15890  0.06250  0.45770  Biso   1.000  C
  C62      1.0000 0.15890  0.43750  0.95770  Biso   1.000  C
  C63      1.0000 0.84110  0.93750  0.54230  Biso   1.000  C
  C64      1.0000 0.84110  0.56250  0.04230  Biso   1.000  C
  O17      1.0000 0.95900  0.24710  0.48660  Biso   1.000  O
  O18      1.0000 0.95900  0.25290  0.98660  Biso   1.000  O
  O19      1.0000 0.04100  0.75290  0.51340  Biso   1.000  O
  O20      1.0000 0.04100  0.74710  0.01340  Biso   1.000  O
  O21      1.0000 0.86350  0.96660  0.77160  Biso   1.000  O
  O22      1.0000 0.86350  0.53340  0.27160  Biso   1.000  O
  O23      1.0000 0.13650  0.03340  0.22840  Biso   1.000  O
  O24      1.0000 0.13650  0.46660  0.72840  Biso   1.000  O
  O25      1.0000 0.77090  0.24440  0.41950  Biso   1.000  O
  O26      1.0000 0.77090  0.25560  0.91950  Biso   1.000  O
  O27      1.0000 0.22910  0.75560  0.58050  Biso   1.000  O
  O28      1.0000 0.22910  0.74440  0.08050  Biso   1.000  O
  O29      1.0000 0.96970  0.37420  0.65480  Biso   1.000  O
  O30      1.0000 0.96970  0.12580  0.15480  Biso   1.000  O
  O31      1.0000 0.03030  0.62580  0.34520  Biso   1.000  O
  O32      1.0000 0.03030  0.87420  0.84520  Biso   1.000  O
  O33      1.0000 0.92100  0.23460  0.79410  Biso   1.000  O
  O34      1.0000 0.92100  0.26540  0.29410  Biso   1.000  O
  O35      1.0000 0.07900  0.76540  0.20590  Biso   1.000  O
  O36      1.0000 0.07900  0.73460  0.70590  Biso   1.000  O
  O37      1.0000 0.23890  0.46170  0.59080  Biso   1.000  O
  O38      1.0000 0.23890  0.03830  0.09080  Biso   1.000  O
  O39      1.0000 0.76110  0.53830  0.40920  Biso   1.000  O
  O40      1.0000 0.76110  0.96170  0.90920  Biso   1.000  O
  O41      1.0000 0.10260  0.40040  0.44560  Biso   1.000  O
  O42      1.0000 0.10260  0.09960  0.94560  Biso   1.000  O
  O43      1.0000 0.89740  0.59960  0.55440  Biso   1.000  O
  O44      1.0000 0.89740  0.90040  0.05440  Biso   1.000  O
