data_image0
_cell_length_a       19.0931
_cell_length_b       11.1949
_cell_length_c       25.607
_cell_angle_alpha    90
_cell_angle_beta     94.81
_cell_angle_gamma    90

_symmetry_space_group_name_H-M    "P 1"
_symmetry_int_tables_number       1

loop_
  _symmetry_equiv_pos_as_xyz
  'x, y, z'

loop_
  _atom_site_label
  _atom_site_occupancy
  _atom_site_fract_x
  _atom_site_fract_y
  _atom_site_fract_z
  _atom_site_thermal_displace_type
  _atom_site_B_iso_or_equiv
  _atom_site_type_symbol
  Cu1      1.0000 0.18453  0.59225  0.29924  Biso   1.000  Cu
  Cu2      1.0000 0.18453  0.40775  0.79924  Biso   1.000  Cu
  Cu3      1.0000 0.68453  0.09225  0.29924  Biso   1.000  Cu
  Cu4      1.0000 0.68453  0.90775  0.79924  Biso   1.000  Cu
  S1       1.0000 0.35818  0.61926  0.24638  Biso   1.000  S
  S2       1.0000 0.35818  0.38074  0.74638  Biso   1.000  S
  S3       1.0000 0.85818  0.11926  0.24638  Biso   1.000  S
  S4       1.0000 0.85818  0.88074  0.74638  Biso   1.000  S
  C1       1.0000 0.40750  0.74300  0.27150  Biso   1.000  C
  C2       1.0000 0.40750  0.25700  0.77150  Biso   1.000  C
  C3       1.0000 0.90750  0.24300  0.27150  Biso   1.000  C
  C4       1.0000 0.90750  0.75700  0.77150  Biso   1.000  C
  H1       1.0000 0.37740  0.81400  0.27050  Biso   1.000  H
  H2       1.0000 0.37740  0.18600  0.77050  Biso   1.000  H
  H3       1.0000 0.87740  0.31400  0.27050  Biso   1.000  H
  H4       1.0000 0.87740  0.68600  0.77050  Biso   1.000  H
  H5       1.0000 0.44700  0.75690  0.25010  Biso   1.000  H
  H6       1.0000 0.44700  0.24310  0.75010  Biso   1.000  H
  H7       1.0000 0.94700  0.25690  0.25010  Biso   1.000  H
  H8       1.0000 0.94700  0.74310  0.75010  Biso   1.000  H
  H9       1.0000 0.42550  0.72680  0.30770  Biso   1.000  H
  H10      1.0000 0.42550  0.27320  0.80770  Biso   1.000  H
  H11      1.0000 0.92550  0.22680  0.30770  Biso   1.000  H
  H12      1.0000 0.92550  0.77320  0.80770  Biso   1.000  H
  C5       1.0000 0.42370  0.50810  0.25270  Biso   1.000  C
  C6       1.0000 0.42370  0.49190  0.75270  Biso   1.000  C
  C7       1.0000 0.92370  0.00810  0.25270  Biso   1.000  C
  C8       1.0000 0.92370  0.99190  0.75270  Biso   1.000  C
  H13      1.0000 0.40390  0.43170  0.24010  Biso   1.000  H
  H14      1.0000 0.40390  0.56830  0.74010  Biso   1.000  H
  H15      1.0000 0.90390  0.93170  0.24010  Biso   1.000  H
  H16      1.0000 0.90390  0.06830  0.74010  Biso   1.000  H
  H17      1.0000 0.44120  0.50040  0.28970  Biso   1.000  H
  H18      1.0000 0.44120  0.49960  0.78970  Biso   1.000  H
  H19      1.0000 0.94120  0.00040  0.28970  Biso   1.000  H
  H20      1.0000 0.94120  0.99960  0.78970  Biso   1.000  H
  H21      1.0000 0.46260  0.53050  0.23200  Biso   1.000  H
  H22      1.0000 0.46260  0.46950  0.73200  Biso   1.000  H
  H23      1.0000 0.96260  0.03050  0.23200  Biso   1.000  H
  H24      1.0000 0.96260  0.96950  0.73200  Biso   1.000  H
  S5       1.0000 0.00576  0.61734  0.34422  Biso   1.000  S
  S6       1.0000 0.00576  0.38266  0.84422  Biso   1.000  S
  S7       1.0000 0.50576  0.11734  0.34422  Biso   1.000  S
  S8       1.0000 0.50576  0.88266  0.84422  Biso   1.000  S
  S9       1.0000 0.99490  0.55670  0.29610  Biso   1.000  S
  S10      1.0000 0.99490  0.44330  0.79610  Biso   1.000  S
  S11      1.0000 0.49490  0.05670  0.29610  Biso   1.000  S
  S12      1.0000 0.49490  0.94330  0.79610  Biso   1.000  S
  C9       1.0000 0.95360  0.48710  0.34560  Biso   1.000  C
  C10      1.0000 0.95360  0.51290  0.84560  Biso   1.000  C
  C11      1.0000 0.45360  0.98710  0.34560  Biso   1.000  C
  C12      1.0000 0.45360  0.01290  0.84560  Biso   1.000  C
  H25      1.0000 0.98030  0.42410  0.36490  Biso   1.000  H
  H26      1.0000 0.98030  0.57590  0.86490  Biso   1.000  H
  H27      1.0000 0.48030  0.92410  0.36490  Biso   1.000  H
  H28      1.0000 0.48030  0.07590  0.86490  Biso   1.000  H
  H29      1.0000 0.94060  0.46020  0.30970  Biso   1.000  H
  H30      1.0000 0.94060  0.53980  0.80970  Biso   1.000  H
  H31      1.0000 0.44060  0.96020  0.30970  Biso   1.000  H
  H32      1.0000 0.44060  0.03980  0.80970  Biso   1.000  H
  H33      1.0000 0.91100  0.50480  0.36300  Biso   1.000  H
  H34      1.0000 0.91100  0.49520  0.86300  Biso   1.000  H
  H35      1.0000 0.41100  0.00480  0.36300  Biso   1.000  H
  H36      1.0000 0.41100  0.99520  0.86300  Biso   1.000  H
  H37      1.0000 0.97050  0.40470  0.34960  Biso   1.000  H
  H38      1.0000 0.97050  0.59530  0.84960  Biso   1.000  H
  H39      1.0000 0.47050  0.90470  0.34960  Biso   1.000  H
  H40      1.0000 0.47050  0.09530  0.84960  Biso   1.000  H
  H41      1.0000 0.90270  0.48680  0.33660  Biso   1.000  H
  H42      1.0000 0.90270  0.51320  0.83660  Biso   1.000  H
  H43      1.0000 0.40270  0.98680  0.33660  Biso   1.000  H
  H44      1.0000 0.40270  0.01320  0.83660  Biso   1.000  H
  H45      1.0000 0.96420  0.53050  0.37860  Biso   1.000  H
  H46      1.0000 0.96420  0.46950  0.87860  Biso   1.000  H
  H47      1.0000 0.46420  0.03050  0.37860  Biso   1.000  H
  H48      1.0000 0.46420  0.96950  0.87860  Biso   1.000  H
  C13      1.0000 0.94150  0.70700  0.30720  Biso   1.000  C
  C14      1.0000 0.94150  0.29300  0.80720  Biso   1.000  C
  C15      1.0000 0.44150  0.20700  0.30720  Biso   1.000  C
  C16      1.0000 0.44150  0.79300  0.80720  Biso   1.000  C
  H49      1.0000 0.96090  0.78670  0.30190  Biso   1.000  H
  H50      1.0000 0.96090  0.21330  0.80190  Biso   1.000  H
  H51      1.0000 0.46090  0.28670  0.30190  Biso   1.000  H
  H52      1.0000 0.46090  0.71330  0.80190  Biso   1.000  H
  H53      1.0000 0.89940  0.71410  0.32650  Biso   1.000  H
  H54      1.0000 0.89940  0.28590  0.82650  Biso   1.000  H
  H55      1.0000 0.39940  0.21410  0.32650  Biso   1.000  H
  H56      1.0000 0.39940  0.78590  0.82650  Biso   1.000  H
  H57      1.0000 0.92900  0.66930  0.27320  Biso   1.000  H
  H58      1.0000 0.92900  0.33070  0.77320  Biso   1.000  H
  H59      1.0000 0.42900  0.16930  0.27320  Biso   1.000  H
  H60      1.0000 0.42900  0.83070  0.77320  Biso   1.000  H
  H61      1.0000 0.95490  0.76830  0.28260  Biso   1.000  H
  H62      1.0000 0.95490  0.23170  0.78260  Biso   1.000  H
  H63      1.0000 0.45490  0.26830  0.28260  Biso   1.000  H
  H64      1.0000 0.45490  0.73170  0.78260  Biso   1.000  H
  H65      1.0000 0.95250  0.73510  0.34320  Biso   1.000  H
  H66      1.0000 0.95250  0.26490  0.84320  Biso   1.000  H
  H67      1.0000 0.45250  0.23510  0.34320  Biso   1.000  H
  H68      1.0000 0.45250  0.76490  0.84320  Biso   1.000  H
  H69      1.0000 0.89100  0.69120  0.30130  Biso   1.000  H
  H70      1.0000 0.89100  0.30880  0.80130  Biso   1.000  H
  H71      1.0000 0.39100  0.19120  0.30130  Biso   1.000  H
  H72      1.0000 0.39100  0.80880  0.80130  Biso   1.000  H
  O1       1.0000 0.30746  0.59130  0.28672  Biso   1.000  O
  O2       1.0000 0.30746  0.40870  0.78672  Biso   1.000  O
  O3       1.0000 0.80746  0.09130  0.28672  Biso   1.000  O
  O4       1.0000 0.80746  0.90870  0.78672  Biso   1.000  O
  O5       1.0000 0.06184  0.59070  0.30892  Biso   1.000  O
  O6       1.0000 0.06184  0.40930  0.80892  Biso   1.000  O
  O7       1.0000 0.56184  0.09070  0.30892  Biso   1.000  O
  O8       1.0000 0.56184  0.90930  0.80892  Biso   1.000  O
  N1       1.0000 0.18400  0.77525  0.30014  Biso   1.000  N
  N2       1.0000 0.18400  0.22475  0.80014  Biso   1.000  N
  N3       1.0000 0.68400  0.27525  0.30014  Biso   1.000  N
  N4       1.0000 0.68400  0.72475  0.80014  Biso   1.000  N
  N5       1.0000 0.18600  0.40830  0.30053  Biso   1.000  N
  N6       1.0000 0.18600  0.59170  0.80053  Biso   1.000  N
  N7       1.0000 0.68600  0.90830  0.30053  Biso   1.000  N
  N8       1.0000 0.68600  0.09170  0.80053  Biso   1.000  N
  N9       1.0000 0.15880  0.59060  0.22088  Biso   1.000  N
  N10      1.0000 0.15880  0.40940  0.72088  Biso   1.000  N
  N11      1.0000 0.65880  0.09060  0.22088  Biso   1.000  N
  N12      1.0000 0.65880  0.90940  0.72088  Biso   1.000  N
  N13      1.0000 0.07800  0.58680  0.94353  Biso   1.000  N
  N14      1.0000 0.07800  0.41320  0.44353  Biso   1.000  N
  N15      1.0000 0.57800  0.08680  0.94353  Biso   1.000  N
  N16      1.0000 0.57800  0.91320  0.44353  Biso   1.000  N
  N17      1.0000 0.21160  0.59350  0.37772  Biso   1.000  N
  N18      1.0000 0.21160  0.40650  0.87772  Biso   1.000  N
  N19      1.0000 0.71160  0.09350  0.37772  Biso   1.000  N
  N20      1.0000 0.71160  0.90650  0.87772  Biso   1.000  N
  N21      1.0000 0.30490  0.57570  0.65156  Biso   1.000  N
  N22      1.0000 0.30490  0.42430  0.15156  Biso   1.000  N
  N23      1.0000 0.80490  0.07570  0.65156  Biso   1.000  N
  N24      1.0000 0.80490  0.92430  0.15156  Biso   1.000  N
  C17      1.0000 0.24040  0.83650  0.32131  Biso   1.000  C
  C18      1.0000 0.24040  0.16350  0.82131  Biso   1.000  C
  C19      1.0000 0.74040  0.33650  0.32131  Biso   1.000  C
  C20      1.0000 0.74040  0.66350  0.82131  Biso   1.000  C
  H73      1.0000 0.27990  0.79310  0.33610  Biso   1.000  H
  H74      1.0000 0.27990  0.20690  0.83610  Biso   1.000  H
  H75      1.0000 0.77990  0.29310  0.33610  Biso   1.000  H
  H76      1.0000 0.77990  0.70690  0.83610  Biso   1.000  H
  C21      1.0000 0.24280  0.96000  0.32225  Biso   1.000  C
  C22      1.0000 0.24280  0.04000  0.82225  Biso   1.000  C
  C23      1.0000 0.74280  0.46000  0.32225  Biso   1.000  C
  C24      1.0000 0.74280  0.54000  0.82225  Biso   1.000  C
  H77      1.0000 0.28400  0.00010  0.33640  Biso   1.000  H
  H78      1.0000 0.28400  0.99990  0.83640  Biso   1.000  H
  H79      1.0000 0.78400  0.50010  0.33640  Biso   1.000  H
  H80      1.0000 0.78400  0.49990  0.83640  Biso   1.000  H
  C25      1.0000 0.18440  0.02500  0.30236  Biso   1.000  C
  C26      1.0000 0.18440  0.97500  0.80236  Biso   1.000  C
  C27      1.0000 0.68440  0.52500  0.30236  Biso   1.000  C
  C28      1.0000 0.68440  0.47500  0.80236  Biso   1.000  C
  C29      1.0000 0.12620  0.96240  0.28183  Biso   1.000  C
  C30      1.0000 0.12620  0.03760  0.78183  Biso   1.000  C
  C31      1.0000 0.62620  0.46240  0.28183  Biso   1.000  C
  C32      1.0000 0.62620  0.53760  0.78183  Biso   1.000  C
  H81      1.0000 0.08500  0.00390  0.26880  Biso   1.000  H
  H82      1.0000 0.08500  0.99610  0.76880  Biso   1.000  H
  H83      1.0000 0.58500  0.50390  0.26880  Biso   1.000  H
  H84      1.0000 0.58500  0.49610  0.76880  Biso   1.000  H
  C33      1.0000 0.12810  0.83760  0.28035  Biso   1.000  C
  C34      1.0000 0.12810  0.16240  0.78035  Biso   1.000  C
  C35      1.0000 0.62810  0.33760  0.28035  Biso   1.000  C
  C36      1.0000 0.62810  0.66240  0.78035  Biso   1.000  C
  H85      1.0000 0.08840  0.79560  0.26480  Biso   1.000  H
  H86      1.0000 0.08840  0.20440  0.76480  Biso   1.000  H
  H87      1.0000 0.58840  0.29560  0.26480  Biso   1.000  H
  H88      1.0000 0.58840  0.70440  0.76480  Biso   1.000  H
  C37      1.0000 0.18530  0.15820  0.30210  Biso   1.000  C
  C38      1.0000 0.18530  0.84180  0.80210  Biso   1.000  C
  C39      1.0000 0.68530  0.65820  0.30210  Biso   1.000  C
  C40      1.0000 0.68530  0.34180  0.80210  Biso   1.000  C
  C41      1.0000 0.13870  0.22340  0.32957  Biso   1.000  C
  C42      1.0000 0.13870  0.77660  0.82957  Biso   1.000  C
  C43      1.0000 0.63870  0.72340  0.32957  Biso   1.000  C
  C44      1.0000 0.63870  0.27660  0.82957  Biso   1.000  C
  H89      1.0000 0.10550  0.18360  0.34900  Biso   1.000  H
  H90      1.0000 0.10550  0.81640  0.84900  Biso   1.000  H
  H91      1.0000 0.60550  0.68360  0.34900  Biso   1.000  H
  H92      1.0000 0.60550  0.31640  0.84900  Biso   1.000  H
  C45      1.0000 0.14100  0.34730  0.32841  Biso   1.000  C
  C46      1.0000 0.14100  0.65270  0.82841  Biso   1.000  C
  C47      1.0000 0.64100  0.84730  0.32841  Biso   1.000  C
  C48      1.0000 0.64100  0.15270  0.82841  Biso   1.000  C
  H93      1.0000 0.10960  0.39090  0.34810  Biso   1.000  H
  H94      1.0000 0.10960  0.60910  0.84810  Biso   1.000  H
  H95      1.0000 0.60960  0.89090  0.34810  Biso   1.000  H
  H96      1.0000 0.60960  0.10910  0.84810  Biso   1.000  H
  C49      1.0000 0.23060  0.34510  0.27341  Biso   1.000  C
  C50      1.0000 0.23060  0.65490  0.77341  Biso   1.000  C
  C51      1.0000 0.73060  0.84510  0.27341  Biso   1.000  C
  C52      1.0000 0.73060  0.15490  0.77341  Biso   1.000  C
  H97      1.0000 0.26170  0.38720  0.25290  Biso   1.000  H
  H98      1.0000 0.26170  0.61280  0.75290  Biso   1.000  H
  H99      1.0000 0.76170  0.88720  0.25290  Biso   1.000  H
  H100     1.0000 0.76170  0.11280  0.75290  Biso   1.000  H
  C53      1.0000 0.23320  0.22130  0.27405  Biso   1.000  C
  C54      1.0000 0.23320  0.77870  0.77405  Biso   1.000  C
  C55      1.0000 0.73320  0.72130  0.27405  Biso   1.000  C
  C56      1.0000 0.73320  0.27870  0.77405  Biso   1.000  C
  H101     1.0000 0.26700  0.17990  0.25570  Biso   1.000  H
  H102     1.0000 0.26700  0.82010  0.75570  Biso   1.000  H
  H103     1.0000 0.76700  0.67990  0.25570  Biso   1.000  H
  H104     1.0000 0.76700  0.32010  0.75570  Biso   1.000  H
  C57      1.0000 0.18790  0.66960  0.18951  Biso   1.000  C
  C58      1.0000 0.18790  0.33040  0.68951  Biso   1.000  C
  C59      1.0000 0.68790  0.16960  0.18951  Biso   1.000  C
  C60      1.0000 0.68790  0.83040  0.68951  Biso   1.000  C
  H105     1.0000 0.22010  0.72670  0.20510  Biso   1.000  H
  H106     1.0000 0.22010  0.27330  0.70510  Biso   1.000  H
  H107     1.0000 0.72010  0.22670  0.20510  Biso   1.000  H
  H108     1.0000 0.72010  0.77330  0.70510  Biso   1.000  H
  C61      1.0000 0.17330  0.67180  0.13568  Biso   1.000  C
  C62      1.0000 0.17330  0.32820  0.63568  Biso   1.000  C
  C63      1.0000 0.67330  0.17180  0.13568  Biso   1.000  C
  C64      1.0000 0.67330  0.82820  0.63568  Biso   1.000  C
  H109     1.0000 0.19460  0.73040  0.11530  Biso   1.000  H
  H110     1.0000 0.19460  0.26960  0.61530  Biso   1.000  H
  H111     1.0000 0.69460  0.23040  0.11530  Biso   1.000  H
  H112     1.0000 0.69460  0.76960  0.61530  Biso   1.000  H
  C65      1.0000 0.12800  0.58880  0.11160  Biso   1.000  C
  C66      1.0000 0.12800  0.41120  0.61160  Biso   1.000  C
  C67      1.0000 0.62800  0.08880  0.11160  Biso   1.000  C
  C68      1.0000 0.62800  0.91120  0.61160  Biso   1.000  C
  C69      1.0000 0.09820  0.50690  0.14363  Biso   1.000  C
  C70      1.0000 0.09820  0.49310  0.64363  Biso   1.000  C
  C71      1.0000 0.59820  0.00690  0.14363  Biso   1.000  C
  C72      1.0000 0.59820  0.99310  0.64363  Biso   1.000  C
  H113     1.0000 0.06640  0.44830  0.12890  Biso   1.000  H
  H114     1.0000 0.06640  0.55170  0.62890  Biso   1.000  H
  H115     1.0000 0.56640  0.94830  0.12890  Biso   1.000  H
  H116     1.0000 0.56640  0.05170  0.62890  Biso   1.000  H
  C73      1.0000 0.11490  0.51080  0.19750  Biso   1.000  C
  C74      1.0000 0.11490  0.48920  0.69750  Biso   1.000  C
  C75      1.0000 0.61490  0.01080  0.19750  Biso   1.000  C
  C76      1.0000 0.61490  0.98920  0.69750  Biso   1.000  C
  H117     1.0000 0.09400  0.45350  0.21870  Biso   1.000  H
  H118     1.0000 0.09400  0.54650  0.71870  Biso   1.000  H
  H119     1.0000 0.59400  0.95350  0.21870  Biso   1.000  H
  H120     1.0000 0.59400  0.04650  0.71870  Biso   1.000  H
  C77      1.0000 0.11090  0.58890  0.05361  Biso   1.000  C
  C78      1.0000 0.11090  0.41110  0.55361  Biso   1.000  C
  C79      1.0000 0.61090  0.08890  0.05361  Biso   1.000  C
  C80      1.0000 0.61090  0.91110  0.55361  Biso   1.000  C
  C81      1.0000 0.14860  0.65580  0.02042  Biso   1.000  C
  C82      1.0000 0.14860  0.34420  0.52042  Biso   1.000  C
  C83      1.0000 0.64860  0.15580  0.02042  Biso   1.000  C
  C84      1.0000 0.64860  0.84420  0.52042  Biso   1.000  C
  H121     1.0000 0.18660  0.70420  0.03430  Biso   1.000  H
  H122     1.0000 0.18660  0.29580  0.53430  Biso   1.000  H
  H123     1.0000 0.68660  0.20420  0.03430  Biso   1.000  H
  H124     1.0000 0.68660  0.79580  0.53430  Biso   1.000  H
  C85      1.0000 0.13090  0.65220  0.96634  Biso   1.000  C
  C86      1.0000 0.13090  0.34780  0.46634  Biso   1.000  C
  C87      1.0000 0.63090  0.15220  0.96634  Biso   1.000  C
  C88      1.0000 0.63090  0.84780  0.46634  Biso   1.000  C
  H125     1.0000 0.15800  0.69890  0.94450  Biso   1.000  H
  H126     1.0000 0.15800  0.30110  0.44450  Biso   1.000  H
  H127     1.0000 0.65800  0.19890  0.94450  Biso   1.000  H
  H128     1.0000 0.65800  0.80110  0.44450  Biso   1.000  H
  C89      1.0000 0.04220  0.52180  0.97579  Biso   1.000  C
  C90      1.0000 0.04220  0.47820  0.47579  Biso   1.000  C
  C91      1.0000 0.54220  0.02180  0.97579  Biso   1.000  C
  C92      1.0000 0.54220  0.97820  0.47579  Biso   1.000  C
  H129     1.0000 0.00500  0.47320  0.96080  Biso   1.000  H
  H130     1.0000 0.00500  0.52680  0.46080  Biso   1.000  H
  H131     1.0000 0.50500  0.97320  0.96080  Biso   1.000  H
  H132     1.0000 0.50500  0.02680  0.46080  Biso   1.000  H
  C93      1.0000 0.05580  0.52040  0.02983  Biso   1.000  C
  C94      1.0000 0.05580  0.47960  0.52983  Biso   1.000  C
  C95      1.0000 0.55580  0.02040  0.02983  Biso   1.000  C
  C96      1.0000 0.55580  0.97960  0.52983  Biso   1.000  C
  H133     1.0000 0.02770  0.47300  0.05070  Biso   1.000  H
  H134     1.0000 0.02770  0.52700  0.55070  Biso   1.000  H
  H135     1.0000 0.52770  0.97300  0.05070  Biso   1.000  H
  H136     1.0000 0.52770  0.02700  0.55070  Biso   1.000  H
  C97      1.0000 0.26760  0.53080  0.39802  Biso   1.000  C
  C98      1.0000 0.26760  0.46920  0.89802  Biso   1.000  C
  C99      1.0000 0.76760  0.03080  0.39802  Biso   1.000  C
  C100     1.0000 0.76760  0.96920  0.89802  Biso   1.000  C
  H137     1.0000 0.29400  0.48610  0.37500  Biso   1.000  H
  H138     1.0000 0.29400  0.51390  0.87500  Biso   1.000  H
  H139     1.0000 0.79400  0.98610  0.37500  Biso   1.000  H
  H140     1.0000 0.79400  0.01390  0.87500  Biso   1.000  H
  C101     1.0000 0.28800  0.52900  0.45095  Biso   1.000  C
  C102     1.0000 0.28800  0.47100  0.95095  Biso   1.000  C
  C103     1.0000 0.78800  0.02900  0.45095  Biso   1.000  C
  C104     1.0000 0.78800  0.97100  0.95095  Biso   1.000  C
  H141     1.0000 0.32800  0.48380  0.46360  Biso   1.000  H
  H142     1.0000 0.32800  0.51620  0.96360  Biso   1.000  H
  H143     1.0000 0.82800  0.98380  0.46360  Biso   1.000  H
  H144     1.0000 0.82800  0.01620  0.96360  Biso   1.000  H
  C105     1.0000 0.25090  0.59260  0.48594  Biso   1.000  C
  C106     1.0000 0.25090  0.40740  0.98594  Biso   1.000  C
  C107     1.0000 0.75090  0.09260  0.48594  Biso   1.000  C
  C108     1.0000 0.75090  0.90740  0.98594  Biso   1.000  C
  C109     1.0000 0.19320  0.65900  0.46421  Biso   1.000  C
  C110     1.0000 0.19320  0.34100  0.96421  Biso   1.000  C
  C111     1.0000 0.69320  0.15900  0.46421  Biso   1.000  C
  C112     1.0000 0.69320  0.84100  0.96421  Biso   1.000  C
  H145     1.0000 0.16620  0.70530  0.48630  Biso   1.000  H
  H146     1.0000 0.16620  0.29470  0.98630  Biso   1.000  H
  H147     1.0000 0.66620  0.20530  0.48630  Biso   1.000  H
  H148     1.0000 0.66620  0.79470  0.98630  Biso   1.000  H
  C113     1.0000 0.17550  0.65710  0.41106  Biso   1.000  C
  C114     1.0000 0.17550  0.34290  0.91106  Biso   1.000  C
  C115     1.0000 0.67550  0.15710  0.41106  Biso   1.000  C
  C116     1.0000 0.67550  0.84290  0.91106  Biso   1.000  C
  H149     1.0000 0.13620  0.70260  0.39730  Biso   1.000  H
  H150     1.0000 0.13620  0.29740  0.89730  Biso   1.000  H
  H151     1.0000 0.63620  0.20260  0.39730  Biso   1.000  H
  H152     1.0000 0.63620  0.79740  0.89730  Biso   1.000  H
  C117     1.0000 0.26970  0.58760  0.54314  Biso   1.000  C
  C118     1.0000 0.26970  0.41240  0.04314  Biso   1.000  C
  C119     1.0000 0.76970  0.08760  0.54314  Biso   1.000  C
  C120     1.0000 0.76970  0.91240  0.04314  Biso   1.000  C
  C121     1.0000 0.30560  0.49010  0.56566  Biso   1.000  C
  C122     1.0000 0.30560  0.50990  0.06566  Biso   1.000  C
  C123     1.0000 0.80560  0.99010  0.56566  Biso   1.000  C
  C124     1.0000 0.80560  0.00990  0.06566  Biso   1.000  C
  H153     1.0000 0.31910  0.42550  0.54460  Biso   1.000  H
  H154     1.0000 0.31910  0.57450  0.04460  Biso   1.000  H
  H155     1.0000 0.81910  0.92550  0.54460  Biso   1.000  H
  H156     1.0000 0.81910  0.07450  0.04460  Biso   1.000  H
  C125     1.0000 0.32140  0.48890  0.61986  Biso   1.000  C
  C126     1.0000 0.32140  0.51110  0.11986  Biso   1.000  C
  C127     1.0000 0.82140  0.98890  0.61986  Biso   1.000  C
  C128     1.0000 0.82140  0.01110  0.11986  Biso   1.000  C
  H157     1.0000 0.34560  0.42150  0.63490  Biso   1.000  H
  H158     1.0000 0.34560  0.57850  0.13490  Biso   1.000  H
  H159     1.0000 0.84560  0.92150  0.63490  Biso   1.000  H
  H160     1.0000 0.84560  0.07850  0.13490  Biso   1.000  H
  C129     1.0000 0.27210  0.66990  0.62970  Biso   1.000  C
  C130     1.0000 0.27210  0.33010  0.12970  Biso   1.000  C
  C131     1.0000 0.77210  0.16990  0.62970  Biso   1.000  C
  C132     1.0000 0.77210  0.83010  0.12970  Biso   1.000  C
  H161     1.0000 0.26120  0.73420  0.65190  Biso   1.000  H
  H162     1.0000 0.26120  0.26580  0.15190  Biso   1.000  H
  H163     1.0000 0.76120  0.23420  0.65190  Biso   1.000  H
  H164     1.0000 0.76120  0.76580  0.15190  Biso   1.000  H
  C133     1.0000 0.25260  0.68050  0.57616  Biso   1.000  C
  C134     1.0000 0.25260  0.31950  0.07616  Biso   1.000  C
  C135     1.0000 0.75260  0.18050  0.57616  Biso   1.000  C
  C136     1.0000 0.75260  0.81950  0.07616  Biso   1.000  C
  H165     1.0000 0.22820  0.74920  0.56250  Biso   1.000  H
  H166     1.0000 0.22820  0.25080  0.06250  Biso   1.000  H
  H167     1.0000 0.72820  0.24920  0.56250  Biso   1.000  H
  H168     1.0000 0.72820  0.75080  0.06250  Biso   1.000  H
  N25      1.0000 0.00400  0.21780  0.68133  Biso   1.000  N
  N26      1.0000 0.00400  0.78220  0.18133  Biso   1.000  N
  N27      1.0000 0.50400  0.71780  0.68133  Biso   1.000  N
  N28      1.0000 0.50400  0.28220  0.18133  Biso   1.000  N
  N29      1.0000 0.88240  0.27170  0.41070  Biso   1.000  N
  N30      1.0000 0.88240  0.72830  0.91070  Biso   1.000  N
  N31      1.0000 0.38240  0.77170  0.41070  Biso   1.000  N
  N32      1.0000 0.38240  0.22830  0.91070  Biso   1.000  N
  C137     1.0000 0.02250  0.14450  0.64580  Biso   1.000  C
  C138     1.0000 0.02250  0.85550  0.14580  Biso   1.000  C
  C139     1.0000 0.52250  0.64450  0.64580  Biso   1.000  C
  C140     1.0000 0.52250  0.35550  0.14580  Biso   1.000  C
  H169     1.0000 0.05380  0.08180  0.65700  Biso   1.000  H
  H170     1.0000 0.05380  0.91820  0.15700  Biso   1.000  H
  H171     1.0000 0.55380  0.58180  0.65700  Biso   1.000  H
  H172     1.0000 0.55380  0.41820  0.15700  Biso   1.000  H
  C141     1.0000 0.00020  0.14960  0.59220  Biso   1.000  C
  C142     1.0000 0.00020  0.85040  0.09220  Biso   1.000  C
  C143     1.0000 0.50020  0.64960  0.59220  Biso   1.000  C
  C144     1.0000 0.50020  0.35040  0.09220  Biso   1.000  C
  H173     1.0000 0.01630  0.09210  0.56860  Biso   1.000  H
  H174     1.0000 0.01630  0.90790  0.06860  Biso   1.000  H
  H175     1.0000 0.51630  0.59210  0.56860  Biso   1.000  H
  H176     1.0000 0.51630  0.40790  0.06860  Biso   1.000  H
  C145     1.0000 0.95480  0.23860  0.57422  Biso   1.000  C
  C146     1.0000 0.95480  0.76140  0.07422  Biso   1.000  C
  C147     1.0000 0.45480  0.73860  0.57422  Biso   1.000  C
  C148     1.0000 0.45480  0.26140  0.07422  Biso   1.000  C
  C149     1.0000 0.93500  0.31810  0.61170  Biso   1.000  C
  C150     1.0000 0.93500  0.68190  0.11170  Biso   1.000  C
  C151     1.0000 0.43500  0.81810  0.61170  Biso   1.000  C
  C152     1.0000 0.43500  0.18190  0.11170  Biso   1.000  C
  H177     1.0000 0.90350  0.38160  0.60210  Biso   1.000  H
  H178     1.0000 0.90350  0.61840  0.10210  Biso   1.000  H
  H179     1.0000 0.40350  0.88160  0.60210  Biso   1.000  H
  H180     1.0000 0.40350  0.11840  0.10210  Biso   1.000  H
  C153     1.0000 0.96160  0.30390  0.66310  Biso   1.000  C
  C154     1.0000 0.96160  0.69610  0.16310  Biso   1.000  C
  C155     1.0000 0.46160  0.80390  0.66310  Biso   1.000  C
  C156     1.0000 0.46160  0.19610  0.16310  Biso   1.000  C
  H181     1.0000 0.94820  0.36140  0.68770  Biso   1.000  H
  H182     1.0000 0.94820  0.63860  0.18770  Biso   1.000  H
  H183     1.0000 0.44820  0.86140  0.68770  Biso   1.000  H
  H184     1.0000 0.44820  0.13860  0.18770  Biso   1.000  H
  C157     1.0000 0.92930  0.24990  0.51794  Biso   1.000  C
  C158     1.0000 0.92930  0.75010  0.01794  Biso   1.000  C
  C159     1.0000 0.42930  0.74990  0.51794  Biso   1.000  C
  C160     1.0000 0.42930  0.25010  0.01794  Biso   1.000  C
  C161     1.0000 0.95990  0.18300  0.47910  Biso   1.000  C
  C162     1.0000 0.95990  0.81700  0.97910  Biso   1.000  C
  C163     1.0000 0.45990  0.68300  0.47910  Biso   1.000  C
  C164     1.0000 0.45990  0.31700  0.97910  Biso   1.000  C
  H185     1.0000 0.99690  0.12810  0.48790  Biso   1.000  H
  H186     1.0000 0.99690  0.87190  0.98790  Biso   1.000  H
  H187     1.0000 0.49690  0.62810  0.48790  Biso   1.000  H
  H188     1.0000 0.49690  0.37190  0.98790  Biso   1.000  H
  C165     1.0000 0.93400  0.20060  0.42780  Biso   1.000  C
  C166     1.0000 0.93400  0.79940  0.92780  Biso   1.000  C
  C167     1.0000 0.43400  0.70060  0.42780  Biso   1.000  C
  C168     1.0000 0.43400  0.29940  0.92780  Biso   1.000  C
  H189     1.0000 0.95600  0.15650  0.40200  Biso   1.000  H
  H190     1.0000 0.95600  0.84350  0.90200  Biso   1.000  H
  H191     1.0000 0.45600  0.65650  0.40200  Biso   1.000  H
  H192     1.0000 0.45600  0.34350  0.90200  Biso   1.000  H
  C169     1.0000 0.85280  0.33370  0.44790  Biso   1.000  C
  C170     1.0000 0.85280  0.66630  0.94790  Biso   1.000  C
  C171     1.0000 0.35280  0.83370  0.44790  Biso   1.000  C
  C172     1.0000 0.35280  0.16630  0.94790  Biso   1.000  C
  H193     1.0000 0.81470  0.38540  0.43750  Biso   1.000  H
  H194     1.0000 0.81470  0.61460  0.93750  Biso   1.000  H
  H195     1.0000 0.31470  0.88540  0.43750  Biso   1.000  H
  H196     1.0000 0.31470  0.11460  0.93750  Biso   1.000  H
  C173     1.0000 0.87470  0.32630  0.50060  Biso   1.000  C
  C174     1.0000 0.87470  0.67370  0.00060  Biso   1.000  C
  C175     1.0000 0.37470  0.82630  0.50060  Biso   1.000  C
  C176     1.0000 0.37470  0.17370  0.00060  Biso   1.000  C
  H197     1.0000 0.85240  0.37370  0.52510  Biso   1.000  H
  H198     1.0000 0.85240  0.62630  0.02510  Biso   1.000  H
  H199     1.0000 0.35240  0.87370  0.52510  Biso   1.000  H
  H200     1.0000 0.35240  0.12630  0.02510  Biso   1.000  H
  N33      1.0000 0.02630  0.77470  0.67190  Biso   1.000  N
  N34      1.0000 0.02630  0.22530  0.17190  Biso   1.000  N
  N35      1.0000 0.52630  0.27470  0.67190  Biso   1.000  N
  N36      1.0000 0.52630  0.72530  0.17190  Biso   1.000  N
  N37      1.0000 0.10400  0.98250  0.42670  Biso   1.000  N
  N38      1.0000 0.10400  0.01750  0.92670  Biso   1.000  N
  N39      1.0000 0.60400  0.48250  0.42670  Biso   1.000  N
  N40      1.0000 0.60400  0.51750  0.92670  Biso   1.000  N
  N41      1.0000 0.02960  0.95180  0.40230  Biso   1.000  N
  N42      1.0000 0.02960  0.04820  0.90230  Biso   1.000  N
  N43      1.0000 0.52960  0.45180  0.40230  Biso   1.000  N
  N44      1.0000 0.52960  0.54820  0.90230  Biso   1.000  N
  C177     1.0000 0.97940  0.75850  0.63180  Biso   1.000  C
  C178     1.0000 0.97940  0.24150  0.13180  Biso   1.000  C
  C179     1.0000 0.47940  0.25850  0.63180  Biso   1.000  C
  C180     1.0000 0.47940  0.74150  0.13180  Biso   1.000  C
  H201     1.0000 0.93610  0.72210  0.63840  Biso   1.000  H
  H202     1.0000 0.93610  0.27790  0.13840  Biso   1.000  H
  H203     1.0000 0.43610  0.22210  0.63840  Biso   1.000  H
  H204     1.0000 0.43610  0.77790  0.13840  Biso   1.000  H
  C181     1.0000 0.98870  0.79000  0.58200  Biso   1.000  C
  C182     1.0000 0.98870  0.21000  0.08200  Biso   1.000  C
  C183     1.0000 0.48870  0.29000  0.58200  Biso   1.000  C
  C184     1.0000 0.48870  0.71000  0.08200  Biso   1.000  C
  H205     1.0000 0.95230  0.77520  0.55520  Biso   1.000  H
  H206     1.0000 0.95230  0.22480  0.05520  Biso   1.000  H
  H207     1.0000 0.45230  0.27520  0.55520  Biso   1.000  H
  H208     1.0000 0.45230  0.72480  0.05520  Biso   1.000  H
  C185     1.0000 0.05080  0.84400  0.56926  Biso   1.000  C
  C186     1.0000 0.05080  0.15600  0.06926  Biso   1.000  C
  C187     1.0000 0.55080  0.34400  0.56926  Biso   1.000  C
  C188     1.0000 0.55080  0.65600  0.06926  Biso   1.000  C
  C189     1.0000 0.10230  0.85780  0.61170  Biso   1.000  C
  C190     1.0000 0.10230  0.14220  0.11170  Biso   1.000  C
  C191     1.0000 0.60230  0.35780  0.61170  Biso   1.000  C
  C192     1.0000 0.60230  0.64220  0.11170  Biso   1.000  C
  H209     1.0000 0.14680  0.89150  0.60650  Biso   1.000  H
  H210     1.0000 0.14680  0.10850  0.10650  Biso   1.000  H
  H211     1.0000 0.64680  0.39150  0.60650  Biso   1.000  H
  H212     1.0000 0.64680  0.60850  0.10650  Biso   1.000  H
  C193     1.0000 0.08650  0.82120  0.66130  Biso   1.000  C
  C194     1.0000 0.08650  0.17880  0.16130  Biso   1.000  C
  C195     1.0000 0.58650  0.32120  0.66130  Biso   1.000  C
  C196     1.0000 0.58650  0.67880  0.16130  Biso   1.000  C
  H213     1.0000 0.12170  0.83060  0.68950  Biso   1.000  H
  H214     1.0000 0.12170  0.16940  0.18950  Biso   1.000  H
  H215     1.0000 0.62170  0.33060  0.68950  Biso   1.000  H
  H216     1.0000 0.62170  0.66940  0.18950  Biso   1.000  H
  C197     1.0000 0.07280  0.88550  0.52010  Biso   1.000  C
  C198     1.0000 0.07280  0.11450  0.02010  Biso   1.000  C
  C199     1.0000 0.57280  0.38550  0.52010  Biso   1.000  C
  C200     1.0000 0.57280  0.61450  0.02010  Biso   1.000  C
  C201     1.0000 0.03270  0.85560  0.47390  Biso   1.000  C
  C202     1.0000 0.03270  0.14440  0.97390  Biso   1.000  C
  C203     1.0000 0.53270  0.35560  0.47390  Biso   1.000  C
  C204     1.0000 0.53270  0.64440  0.97390  Biso   1.000  C
  H217     1.0000 0.99400  0.80270  0.47480  Biso   1.000  H
  H218     1.0000 0.99400  0.19730  0.97480  Biso   1.000  H
  H219     1.0000 0.49400  0.30270  0.47480  Biso   1.000  H
  H220     1.0000 0.49400  0.69730  0.97480  Biso   1.000  H
  C205     1.0000 0.04970  0.90310  0.42740  Biso   1.000  C
  C206     1.0000 0.04970  0.09690  0.92740  Biso   1.000  C
  C207     1.0000 0.54970  0.40310  0.42740  Biso   1.000  C
  C208     1.0000 0.54970  0.59690  0.92740  Biso   1.000  C
  H221     1.0000 0.02370  0.88100  0.39560  Biso   1.000  H
  H222     1.0000 0.02370  0.11900  0.89560  Biso   1.000  H
  H223     1.0000 0.52370  0.38100  0.39560  Biso   1.000  H
  H224     1.0000 0.52370  0.61900  0.89560  Biso   1.000  H
  C209     1.0000 0.14250  0.00630  0.46540  Biso   1.000  C
  C210     1.0000 0.14250  0.99370  0.96540  Biso   1.000  C
  C211     1.0000 0.64250  0.50630  0.46540  Biso   1.000  C
  C212     1.0000 0.64250  0.49370  0.96540  Biso   1.000  C
  H225     1.0000 0.18190  0.05680  0.46210  Biso   1.000  H
  H226     1.0000 0.18190  0.94320  0.96210  Biso   1.000  H
  H227     1.0000 0.68190  0.55680  0.46210  Biso   1.000  H
  H228     1.0000 0.68190  0.44320  0.96210  Biso   1.000  H
  C213     1.0000 0.13010  0.96080  0.51480  Biso   1.000  C
  C214     1.0000 0.13010  0.03920  0.01480  Biso   1.000  C
  C215     1.0000 0.63010  0.46080  0.51480  Biso   1.000  C
  C216     1.0000 0.63010  0.53920  0.01480  Biso   1.000  C
  H229     1.0000 0.16070  0.98120  0.54470  Biso   1.000  H
  H230     1.0000 0.16070  0.01880  0.04470  Biso   1.000  H
  H231     1.0000 0.66070  0.48120  0.54470  Biso   1.000  H
  H232     1.0000 0.66070  0.51880  0.04470  Biso   1.000  H
  C217     1.0000 0.03840  0.88180  0.50920  Biso   1.000  C
  C218     1.0000 0.03840  0.11820  0.00920  Biso   1.000  C
  C219     1.0000 0.53840  0.38180  0.50920  Biso   1.000  C
  C220     1.0000 0.53840  0.61820  0.00920  Biso   1.000  C
  C221     1.0000 0.97940  0.86160  0.47490  Biso   1.000  C
  C222     1.0000 0.97940  0.13840  0.97490  Biso   1.000  C
  C223     1.0000 0.47940  0.36160  0.47490  Biso   1.000  C
  C224     1.0000 0.47940  0.63840  0.97490  Biso   1.000  C
  H233     1.0000 0.93940  0.82370  0.48740  Biso   1.000  H
  H234     1.0000 0.93940  0.17630  0.98740  Biso   1.000  H
  H235     1.0000 0.43940  0.32370  0.48740  Biso   1.000  H
  H236     1.0000 0.43940  0.67630  0.98740  Biso   1.000  H
  C225     1.0000 0.97780  0.89640  0.42220  Biso   1.000  C
  C226     1.0000 0.97780  0.10360  0.92220  Biso   1.000  C
  C227     1.0000 0.47780  0.39640  0.42220  Biso   1.000  C
  C228     1.0000 0.47780  0.60360  0.92220  Biso   1.000  C
  H237     1.0000 0.93690  0.87880  0.39980  Biso   1.000  H
  H238     1.0000 0.93690  0.12120  0.89980  Biso   1.000  H
  H239     1.0000 0.43690  0.37880  0.39980  Biso   1.000  H
  H240     1.0000 0.43690  0.62120  0.89980  Biso   1.000  H
  C229     1.0000 0.08280  0.96000  0.42760  Biso   1.000  C
  C230     1.0000 0.08280  0.04000  0.92760  Biso   1.000  C
  C231     1.0000 0.58280  0.46000  0.42760  Biso   1.000  C
  C232     1.0000 0.58280  0.54000  0.92760  Biso   1.000  C
  H241     1.0000 0.12230  0.98320  0.40960  Biso   1.000  H
  H242     1.0000 0.12230  0.01680  0.90960  Biso   1.000  H
  H243     1.0000 0.62230  0.48320  0.40960  Biso   1.000  H
  H244     1.0000 0.62230  0.51680  0.90960  Biso   1.000  H
  C233     1.0000 0.09640  0.93870  0.48680  Biso   1.000  C
  C234     1.0000 0.09640  0.06130  0.98680  Biso   1.000  C
  C235     1.0000 0.59640  0.43870  0.48680  Biso   1.000  C
  C236     1.0000 0.59640  0.56130  0.98680  Biso   1.000  C
  H245     1.0000 0.13870  0.96070  0.50660  Biso   1.000  H
  H246     1.0000 0.13870  0.03930  0.00660  Biso   1.000  H
  H247     1.0000 0.63870  0.46070  0.50660  Biso   1.000  H
  H248     1.0000 0.63870  0.53930  0.00660  Biso   1.000  H
  Cl1      1.0000 0.78512  0.53237  0.66383  Biso   1.000  Cl
  Cl2      1.0000 0.78512  0.46763  0.16383  Biso   1.000  Cl
  Cl3      1.0000 0.28512  0.03237  0.66383  Biso   1.000  Cl
  Cl4      1.0000 0.28512  0.96763  0.16383  Biso   1.000  Cl
  O9       1.0000 0.81200  0.64990  0.65640  Biso   1.000  O
  O10      1.0000 0.81200  0.35010  0.15640  Biso   1.000  O
  O11      1.0000 0.31200  0.14990  0.65640  Biso   1.000  O
  O12      1.0000 0.31200  0.85010  0.15640  Biso   1.000  O
  O13      1.0000 0.82880  0.45550  0.70060  Biso   1.000  O
  O14      1.0000 0.82880  0.54450  0.20060  Biso   1.000  O
  O15      1.0000 0.32880  0.95550  0.70060  Biso   1.000  O
  O16      1.0000 0.32880  0.04450  0.20060  Biso   1.000  O
  O17      1.0000 0.71610  0.54330  0.68190  Biso   1.000  O
  O18      1.0000 0.71610  0.45670  0.18190  Biso   1.000  O
  O19      1.0000 0.21610  0.04330  0.68190  Biso   1.000  O
  O20      1.0000 0.21610  0.95670  0.18190  Biso   1.000  O
  O21      1.0000 0.77980  0.46950  0.61500  Biso   1.000  O
  O22      1.0000 0.77980  0.53050  0.11500  Biso   1.000  O
  O23      1.0000 0.27980  0.96950  0.61500  Biso   1.000  O
  O24      1.0000 0.27980  0.03050  0.11500  Biso   1.000  O
  Cl5      1.0000 0.82060  0.54140  0.68380  Biso   1.000  Cl
  Cl6      1.0000 0.82060  0.45860  0.18380  Biso   1.000  Cl
  Cl7      1.0000 0.32060  0.04140  0.68380  Biso   1.000  Cl
  Cl8      1.0000 0.32060  0.95860  0.18380  Biso   1.000  Cl
  O25      1.0000 0.83210  0.46900  0.70390  Biso   1.000  O
  O26      1.0000 0.83210  0.53100  0.20390  Biso   1.000  O
  O27      1.0000 0.33210  0.96900  0.70390  Biso   1.000  O
  O28      1.0000 0.33210  0.03100  0.20390  Biso   1.000  O
  O29      1.0000 0.73500  0.50800  0.68000  Biso   1.000  O
  O30      1.0000 0.73500  0.49200  0.18000  Biso   1.000  O
  O31      1.0000 0.23500  0.00800  0.68000  Biso   1.000  O
  O32      1.0000 0.23500  0.99200  0.18000  Biso   1.000  O
  O33      1.0000 0.81200  0.63400  0.71120  Biso   1.000  O
  O34      1.0000 0.81200  0.36600  0.21120  Biso   1.000  O
  O35      1.0000 0.31200  0.13400  0.71120  Biso   1.000  O
  O36      1.0000 0.31200  0.86600  0.21120  Biso   1.000  O
  O37      1.0000 0.84540  0.54500  0.63270  Biso   1.000  O
  O38      1.0000 0.84540  0.45500  0.13270  Biso   1.000  O
  O39      1.0000 0.34540  0.04500  0.63270  Biso   1.000  O
  O40      1.0000 0.34540  0.95500  0.13270  Biso   1.000  O
  Cl9      1.0000 0.84380  0.70940  0.44356  Biso   1.000  Cl
  Cl10     1.0000 0.84380  0.29060  0.94356  Biso   1.000  Cl
  Cl11     1.0000 0.34380  0.20940  0.44356  Biso   1.000  Cl
  Cl12     1.0000 0.34380  0.79060  0.94356  Biso   1.000  Cl
  O41      1.0000 0.82520  0.75430  0.48960  Biso   1.000  O
  O42      1.0000 0.82520  0.24570  0.98960  Biso   1.000  O
  O43      1.0000 0.32520  0.25430  0.48960  Biso   1.000  O
  O44      1.0000 0.32520  0.74570  0.98960  Biso   1.000  O
  O45      1.0000 0.79520  0.64250  0.41230  Biso   1.000  O
  O46      1.0000 0.79520  0.35750  0.91230  Biso   1.000  O
  O47      1.0000 0.29520  0.14250  0.41230  Biso   1.000  O
  O48      1.0000 0.29520  0.85750  0.91230  Biso   1.000  O
  O49      1.0000 0.87020  0.80130  0.41350  Biso   1.000  O
  O50      1.0000 0.87020  0.19870  0.91350  Biso   1.000  O
  O51      1.0000 0.37020  0.30130  0.41350  Biso   1.000  O
  O52      1.0000 0.37020  0.69870  0.91350  Biso   1.000  O
  O53      1.0000 0.89670  0.63040  0.46530  Biso   1.000  O
  O54      1.0000 0.89670  0.36960  0.96530  Biso   1.000  O
  O55      1.0000 0.39670  0.13040  0.46530  Biso   1.000  O
  O56      1.0000 0.39670  0.86960  0.96530  Biso   1.000  O
  Cl13     1.0000 0.81660  0.67610  0.44141  Biso   1.000  Cl
  Cl14     1.0000 0.81660  0.32390  0.94141  Biso   1.000  Cl
  Cl15     1.0000 0.31660  0.17610  0.44141  Biso   1.000  Cl
  Cl16     1.0000 0.31660  0.82390  0.94141  Biso   1.000  Cl
  O57      1.0000 0.75620  0.59820  0.43860  Biso   1.000  O
  O58      1.0000 0.75620  0.40180  0.93860  Biso   1.000  O
  O59      1.0000 0.25620  0.09820  0.43860  Biso   1.000  O
  O60      1.0000 0.25620  0.90180  0.93860  Biso   1.000  O
  O61      1.0000 0.80710  0.75760  0.39960  Biso   1.000  O
  O62      1.0000 0.80710  0.24240  0.89960  Biso   1.000  O
  O63      1.0000 0.30710  0.25760  0.39960  Biso   1.000  O
  O64      1.0000 0.30710  0.74240  0.89960  Biso   1.000  O
  O65      1.0000 0.80660  0.74030  0.48600  Biso   1.000  O
  O66      1.0000 0.80660  0.25970  0.98600  Biso   1.000  O
  O67      1.0000 0.30660  0.24030  0.48600  Biso   1.000  O
  O68      1.0000 0.30660  0.75970  0.98600  Biso   1.000  O
  O69      1.0000 0.87590  0.60650  0.43210  Biso   1.000  O
  O70      1.0000 0.87590  0.39350  0.93210  Biso   1.000  O
  O71      1.0000 0.37590  0.10650  0.43210  Biso   1.000  O
  O72      1.0000 0.37590  0.89350  0.93210  Biso   1.000  O
