data_image0
_cell_length_a       9.9625
_cell_length_b       14.0145
_cell_length_c       11.3376
_cell_angle_alpha    90
_cell_angle_beta     97.602
_cell_angle_gamma    90

_symmetry_space_group_name_H-M    "P 1"
_symmetry_int_tables_number       1

loop_
  _symmetry_equiv_pos_as_xyz
  'x, y, z'

loop_
  _atom_site_label
  _atom_site_occupancy
  _atom_site_fract_x
  _atom_site_fract_y
  _atom_site_fract_z
  _atom_site_thermal_displace_type
  _atom_site_B_iso_or_equiv
  _atom_site_type_symbol
  Cu1      1.0000 0.62979  0.30982  0.58404  Biso   1.000  Cu
  Cu2      1.0000 0.87021  0.80982  0.91596  Biso   1.000  Cu
  Cu3      1.0000 0.37021  0.69018  0.41596  Biso   1.000  Cu
  Cu4      1.0000 0.12979  0.19018  0.08404  Biso   1.000  Cu
  Na1      1.0000 0.74790  0.15630  0.78110  Biso   1.000  Na
  Na2      1.0000 0.75210  0.65630  0.71890  Biso   1.000  Na
  Na3      1.0000 0.25210  0.84370  0.21890  Biso   1.000  Na
  Na4      1.0000 0.24790  0.34370  0.28110  Biso   1.000  Na
  Na5      1.0000 0.84320  0.47470  0.52589  Biso   1.000  Na
  Na6      1.0000 0.65680  0.97470  0.97411  Biso   1.000  Na
  Na7      1.0000 0.15680  0.52530  0.47411  Biso   1.000  Na
  Na8      1.0000 0.34320  0.02530  0.02589  Biso   1.000  Na
  O1       1.0000 0.69319  0.14333  0.97858  Biso   1.000  O
  O2       1.0000 0.80681  0.64333  0.52142  Biso   1.000  O
  O3       1.0000 0.30681  0.85667  0.02142  Biso   1.000  O
  O4       1.0000 0.19319  0.35667  0.47858  Biso   1.000  O
  O5       1.0000 0.94525  0.49504  0.35076  Biso   1.000  O
  O6       1.0000 0.55475  0.99504  0.14924  Biso   1.000  O
  O7       1.0000 0.05475  0.50496  0.64924  Biso   1.000  O
  O8       1.0000 0.44525  0.00496  0.85076  Biso   1.000  O
  O9       1.0000 0.91637  0.30969  0.53285  Biso   1.000  O
  O10      1.0000 0.58363  0.80969  0.96715  Biso   1.000  O
  O11      1.0000 0.08363  0.69031  0.46715  Biso   1.000  O
  O12      1.0000 0.41637  0.19031  0.03285  Biso   1.000  O
  O13      1.0000 0.74826  0.20532  0.54116  Biso   1.000  O
  O14      1.0000 0.75174  0.70532  0.95884  Biso   1.000  O
  O15      1.0000 0.25174  0.79468  0.45884  Biso   1.000  O
  O16      1.0000 0.24826  0.29468  0.04116  Biso   1.000  O
  O17      1.0000 0.75407  0.48535  0.71032  Biso   1.000  O
  O18      1.0000 0.74593  0.98535  0.78968  Biso   1.000  O
  O19      1.0000 0.24593  0.51465  0.28968  Biso   1.000  O
  O20      1.0000 0.25407  0.01465  0.21032  Biso   1.000  O
  O21      1.0000 0.71298  0.33388  0.74973  Biso   1.000  O
  O22      1.0000 0.78702  0.83388  0.75027  Biso   1.000  O
  O23      1.0000 0.28702  0.66612  0.25027  Biso   1.000  O
  O24      1.0000 0.21298  0.16612  0.24973  Biso   1.000  O
  O25      1.0000 0.63107  0.40883  0.46384  Biso   1.000  O
  O26      1.0000 0.86893  0.90883  0.03616  Biso   1.000  O
  O27      1.0000 0.36893  0.59117  0.53616  Biso   1.000  O
  O28      1.0000 0.13107  0.09117  0.96384  Biso   1.000  O
  O29      1.0000 0.48033  0.33742  0.32996  Biso   1.000  O
  O30      1.0000 0.01967  0.83742  0.17004  Biso   1.000  O
  O31      1.0000 0.51967  0.66258  0.67004  Biso   1.000  O
  O32      1.0000 0.98033  0.16258  0.82996  Biso   1.000  O
  O33      1.0000 0.43975  0.27975  0.60135  Biso   1.000  O
  O34      1.0000 0.06025  0.77975  0.89865  Biso   1.000  O
  O35      1.0000 0.56025  0.72025  0.39865  Biso   1.000  O
  O36      1.0000 0.93975  0.22025  0.10135  Biso   1.000  O
  O37      1.0000 0.51953  0.15852  0.71535  Biso   1.000  O
  O38      1.0000 0.98047  0.65852  0.78465  Biso   1.000  O
  O39      1.0000 0.48047  0.84148  0.28465  Biso   1.000  O
  O40      1.0000 0.01953  0.34148  0.21535  Biso   1.000  O
  C1       1.0000 0.86739  0.22910  0.51831  Biso   1.000  C
  C2       1.0000 0.63261  0.72910  0.98169  Biso   1.000  C
  C3       1.0000 0.13261  0.77090  0.48169  Biso   1.000  C
  C4       1.0000 0.36739  0.27090  0.01831  Biso   1.000  C
  C5       1.0000 0.94723  0.15036  0.47001  Biso   1.000  C
  C6       1.0000 0.55277  0.65036  0.02999  Biso   1.000  C
  C7       1.0000 0.05277  0.84964  0.52999  Biso   1.000  C
  C8       1.0000 0.44723  0.34964  0.97001  Biso   1.000  C
  H1       1.0000 0.88560  0.10850  0.41910  Biso   1.000  H
  H2       1.0000 0.61440  0.60850  0.08090  Biso   1.000  H
  H3       1.0000 0.11440  0.89150  0.58090  Biso   1.000  H
  H4       1.0000 0.38560  0.39150  0.91910  Biso   1.000  H
  H5       1.0000 0.99440  0.11330  0.53620  Biso   1.000  H
  H6       1.0000 0.50560  0.61330  0.96380  Biso   1.000  H
  H7       1.0000 0.00560  0.88670  0.46380  Biso   1.000  H
  H8       1.0000 0.49440  0.38670  0.03620  Biso   1.000  H
  H9       1.0000 0.01360  0.17800  0.42340  Biso   1.000  H
  H10      1.0000 0.48640  0.67800  0.07660  Biso   1.000  H
  H11      1.0000 0.98640  0.82200  0.57660  Biso   1.000  H
  H12      1.0000 0.51360  0.32200  0.92340  Biso   1.000  H
  C9       1.0000 0.75449  0.41799  0.78056  Biso   1.000  C
  C10      1.0000 0.74551  0.91799  0.71944  Biso   1.000  C
  C11      1.0000 0.24551  0.58201  0.21944  Biso   1.000  C
  C12      1.0000 0.25449  0.08201  0.28056  Biso   1.000  C
  C13      1.0000 0.80233  0.43330  0.91107  Biso   1.000  C
  C14      1.0000 0.69767  0.93330  0.58893  Biso   1.000  C
  C15      1.0000 0.19767  0.56670  0.08893  Biso   1.000  C
  C16      1.0000 0.30233  0.06670  0.41107  Biso   1.000  C
  H13      1.0000 0.86990  0.48450  0.92040  Biso   1.000  H
  H14      1.0000 0.63010  0.98450  0.57960  Biso   1.000  H
  H15      1.0000 0.13010  0.51550  0.07960  Biso   1.000  H
  H16      1.0000 0.36990  0.01550  0.42040  Biso   1.000  H
  H17      1.0000 0.84290  0.37430  0.94570  Biso   1.000  H
  H18      1.0000 0.65710  0.87430  0.55430  Biso   1.000  H
  H19      1.0000 0.15710  0.62570  0.05430  Biso   1.000  H
  H20      1.0000 0.34290  0.12570  0.44570  Biso   1.000  H
  H21      1.0000 0.72520  0.45110  0.95190  Biso   1.000  H
  H22      1.0000 0.77480  0.95110  0.54810  Biso   1.000  H
  H23      1.0000 0.27480  0.54890  0.04810  Biso   1.000  H
  H24      1.0000 0.22520  0.04890  0.45190  Biso   1.000  H
  C17      1.0000 0.55643  0.40478  0.36274  Biso   1.000  C
  C18      1.0000 0.94357  0.90478  0.13726  Biso   1.000  C
  C19      1.0000 0.44357  0.59522  0.63726  Biso   1.000  C
  C20      1.0000 0.05643  0.09522  0.86274  Biso   1.000  C
  C21      1.0000 0.56903  0.48937  0.28313  Biso   1.000  C
  C22      1.0000 0.93097  0.98937  0.21687  Biso   1.000  C
  C23      1.0000 0.43097  0.51063  0.71687  Biso   1.000  C
  C24      1.0000 0.06903  0.01063  0.78313  Biso   1.000  C
  H25      1.0000 0.51280  0.47920  0.20650  Biso   1.000  H
  H26      1.0000 0.98720  0.97920  0.29350  Biso   1.000  H
  H27      1.0000 0.48720  0.52080  0.79350  Biso   1.000  H
  H28      1.0000 0.01280  0.02080  0.70650  Biso   1.000  H
  H29      1.0000 0.66380  0.49700  0.27030  Biso   1.000  H
  H30      1.0000 0.83620  0.99700  0.22970  Biso   1.000  H
  H31      1.0000 0.33620  0.50300  0.72970  Biso   1.000  H
  H32      1.0000 0.16380  0.00300  0.77030  Biso   1.000  H
  H33      1.0000 0.53870  0.54700  0.32080  Biso   1.000  H
  H34      1.0000 0.96130  0.04700  0.17920  Biso   1.000  H
  H35      1.0000 0.46130  0.45300  0.67920  Biso   1.000  H
  H36      1.0000 0.03870  0.95300  0.82080  Biso   1.000  H
  C25      1.0000 0.42670  0.21166  0.67322  Biso   1.000  C
  C26      1.0000 0.07330  0.71166  0.82678  Biso   1.000  C
  C27      1.0000 0.57330  0.78834  0.32678  Biso   1.000  C
  C28      1.0000 0.92670  0.28834  0.17322  Biso   1.000  C
  C29      1.0000 0.28600  0.19667  0.70671  Biso   1.000  C
  C30      1.0000 0.21400  0.69667  0.79329  Biso   1.000  C
  C31      1.0000 0.71400  0.80333  0.29329  Biso   1.000  C
  C32      1.0000 0.78600  0.30333  0.20671  Biso   1.000  C
  H37      1.0000 0.24000  0.25840  0.70850  Biso   1.000  H
  H38      1.0000 0.26000  0.75840  0.79150  Biso   1.000  H
  H39      1.0000 0.76000  0.74160  0.29150  Biso   1.000  H
  H40      1.0000 0.74000  0.24160  0.20850  Biso   1.000  H
  H41      1.0000 0.29270  0.16690  0.78550  Biso   1.000  H
  H42      1.0000 0.20730  0.66690  0.71450  Biso   1.000  H
  H43      1.0000 0.70730  0.83310  0.21450  Biso   1.000  H
  H44      1.0000 0.79270  0.33310  0.28550  Biso   1.000  H
  H45      1.0000 0.23420  0.15510  0.64790  Biso   1.000  H
  H46      1.0000 0.26580  0.65510  0.85210  Biso   1.000  H
  H47      1.0000 0.76580  0.84490  0.35210  Biso   1.000  H
  H48      1.0000 0.73420  0.34490  0.14790  Biso   1.000  H
  H49      1.0000 0.75880  0.16660  0.02410  Biso   1.000  H
  H50      1.0000 0.74120  0.66660  0.47590  Biso   1.000  H
  H51      1.0000 0.24120  0.83340  0.97590  Biso   1.000  H
  H52      1.0000 0.25880  0.33340  0.52410  Biso   1.000  H
  H53      1.0000 0.62220  0.16450  0.00180  Biso   1.000  H
  H54      1.0000 0.87780  0.66450  0.49820  Biso   1.000  H
  H55      1.0000 0.37780  0.83550  0.99820  Biso   1.000  H
  H56      1.0000 0.12220  0.33550  0.50180  Biso   1.000  H
  H57      1.0000 0.93600  0.54150  0.30360  Biso   1.000  H
  H58      1.0000 0.56400  0.04150  0.19640  Biso   1.000  H
  H59      1.0000 0.06400  0.45850  0.69640  Biso   1.000  H
  H60      1.0000 0.43600  0.95850  0.80360  Biso   1.000  H
  H61      1.0000 0.96770  0.44840  0.31180  Biso   1.000  H
  H62      1.0000 0.53230  0.94840  0.18820  Biso   1.000  H
  H63      1.0000 0.03230  0.55160  0.68820  Biso   1.000  H
  H64      1.0000 0.46770  0.05160  0.81180  Biso   1.000  H
  O41      1.0000 0.91756  0.64184  0.17966  Biso   1.000  O
  O42      1.0000 0.58244  0.14184  0.32034  Biso   1.000  O
  O43      1.0000 0.08244  0.35816  0.82034  Biso   1.000  O
  O44      1.0000 0.41756  0.85816  0.67966  Biso   1.000  O
  H65      1.0000 0.96100  0.69320  0.18600  Biso   1.000  H
  H66      1.0000 0.53900  0.19320  0.31400  Biso   1.000  H
  H67      1.0000 0.03900  0.30680  0.81400  Biso   1.000  H
  H68      1.0000 0.46100  0.80680  0.68600  Biso   1.000  H
  H69      1.0000 0.87230  0.64480  0.11210  Biso   1.000  H
  H70      1.0000 0.62770  0.14480  0.38790  Biso   1.000  H
  H71      1.0000 0.12770  0.35520  0.88790  Biso   1.000  H
  H72      1.0000 0.37230  0.85520  0.61210  Biso   1.000  H
