data_image0
_cell_length_a       16.638
_cell_length_b       11.781
_cell_length_c       15.668
_cell_angle_alpha    90
_cell_angle_beta     90.11
_cell_angle_gamma    90

_symmetry_space_group_name_H-M    "P 1"
_symmetry_int_tables_number       1

loop_
  _symmetry_equiv_pos_as_xyz
  'x, y, z'

loop_
  _atom_site_label
  _atom_site_occupancy
  _atom_site_fract_x
  _atom_site_fract_y
  _atom_site_fract_z
  _atom_site_thermal_displace_type
  _atom_site_B_iso_or_equiv
  _atom_site_type_symbol
  Cu1      1.0000 0.45177  0.31698  0.82195  Biso   1.000  Cu
  Cu2      1.0000 0.54823  0.81698  0.67805  Biso   1.000  Cu
  Cu3      1.0000 0.54823  0.68302  0.17805  Biso   1.000  Cu
  Cu4      1.0000 0.45177  0.18302  0.32195  Biso   1.000  Cu
  C1       1.0000 0.46410  0.90470  0.91790  Biso   1.000  C
  C2       1.0000 0.53590  0.40470  0.58210  Biso   1.000  C
  C3       1.0000 0.53590  0.09530  0.08210  Biso   1.000  C
  C4       1.0000 0.46410  0.59530  0.41790  Biso   1.000  C
  H1       1.0000 0.40890  0.88260  0.92450  Biso   1.000  H
  H2       1.0000 0.59110  0.38260  0.57550  Biso   1.000  H
  H3       1.0000 0.59110  0.11740  0.07550  Biso   1.000  H
  H4       1.0000 0.40890  0.61740  0.42450  Biso   1.000  H
  H5       1.0000 0.46710  0.98510  0.90850  Biso   1.000  H
  H6       1.0000 0.53290  0.48510  0.59150  Biso   1.000  H
  H7       1.0000 0.53290  0.01490  0.09150  Biso   1.000  H
  H8       1.0000 0.46710  0.51490  0.40850  Biso   1.000  H
  H9       1.0000 0.49350  0.88550  0.96860  Biso   1.000  H
  H10      1.0000 0.50650  0.38550  0.53140  Biso   1.000  H
  H11      1.0000 0.50650  0.11450  0.03140  Biso   1.000  H
  H12      1.0000 0.49350  0.61450  0.46860  Biso   1.000  H
  Na1      1.0000 0.45647  0.07827  0.72685  Biso   1.000  Na
  Na2      1.0000 0.54353  0.57827  0.77315  Biso   1.000  Na
  Na3      1.0000 0.54353  0.92173  0.27315  Biso   1.000  Na
  Na4      1.0000 0.45647  0.42173  0.22685  Biso   1.000  Na
  C5       1.0000 0.61750  0.01020  0.63600  Biso   1.000  C
  C6       1.0000 0.38250  0.51020  0.86400  Biso   1.000  C
  C7       1.0000 0.38250  0.98980  0.36400  Biso   1.000  C
  C8       1.0000 0.61750  0.48980  0.13600  Biso   1.000  C
  O1       1.0000 0.58540  0.30210  0.92750  Biso   1.000  O
  O2       1.0000 0.41460  0.80210  0.57250  Biso   1.000  O
  O3       1.0000 0.41460  0.69790  0.07250  Biso   1.000  O
  O4       1.0000 0.58540  0.19790  0.42750  Biso   1.000  O
  Na5      1.0000 0.46875  0.36421  0.02186  Biso   1.000  Na
  Na6      1.0000 0.53125  0.86421  0.47814  Biso   1.000  Na
  Na7      1.0000 0.53125  0.63579  0.97814  Biso   1.000  Na
  Na8      1.0000 0.46875  0.13579  0.52186  Biso   1.000  Na
  O5       1.0000 0.55440  0.01050  0.59340  Biso   1.000  O
  O6       1.0000 0.44560  0.51050  0.90660  Biso   1.000  O
  O7       1.0000 0.44560  0.98950  0.40660  Biso   1.000  O
  O8       1.0000 0.55440  0.48950  0.09340  Biso   1.000  O
  C9       1.0000 0.49970  0.84360  0.84290  Biso   1.000  C
  C10      1.0000 0.50030  0.34360  0.65710  Biso   1.000  C
  C11      1.0000 0.50030  0.15640  0.15710  Biso   1.000  C
  C12      1.0000 0.49970  0.65640  0.34290  Biso   1.000  C
  O9       1.0000 0.53470  0.19790  0.82240  Biso   1.000  O
  O10      1.0000 0.46530  0.69790  0.67760  Biso   1.000  O
  O11      1.0000 0.46530  0.80210  0.17760  Biso   1.000  O
  O12      1.0000 0.53470  0.30210  0.32240  Biso   1.000  O
  O13      1.0000 0.40000  0.25290  0.92350  Biso   1.000  O
  O14      1.0000 0.60000  0.75290  0.57650  Biso   1.000  O
  O15      1.0000 0.60000  0.74710  0.07650  Biso   1.000  O
  O16      1.0000 0.40000  0.24710  0.42350  Biso   1.000  O
  O17      1.0000 0.35750  0.13250  0.82480  Biso   1.000  O
  O18      1.0000 0.64250  0.63250  0.67520  Biso   1.000  O
  O19      1.0000 0.64250  0.86750  0.17520  Biso   1.000  O
  O20      1.0000 0.35750  0.36750  0.32480  Biso   1.000  O
  O21      1.0000 0.63630  0.92940  0.68540  Biso   1.000  O
  O22      1.0000 0.36370  0.42940  0.81460  Biso   1.000  O
  O23      1.0000 0.36370  0.07060  0.31460  Biso   1.000  O
  O24      1.0000 0.63630  0.57060  0.18540  Biso   1.000  O
  C13      1.0000 0.30310  0.11550  0.96600  Biso   1.000  C
  C14      1.0000 0.69690  0.61550  0.53400  Biso   1.000  C
  C15      1.0000 0.69690  0.88450  0.03400  Biso   1.000  C
  C16      1.0000 0.30310  0.38450  0.46600  Biso   1.000  C
  H13      1.0000 0.24800  0.13290  0.95370  Biso   1.000  H
  H14      1.0000 0.75200  0.63290  0.54630  Biso   1.000  H
  H15      1.0000 0.75200  0.86710  0.04630  Biso   1.000  H
  H16      1.0000 0.24800  0.36710  0.45370  Biso   1.000  H
  H17      1.0000 0.31720  0.14520  0.02110  Biso   1.000  H
  H18      1.0000 0.68280  0.64520  0.47890  Biso   1.000  H
  H19      1.0000 0.68280  0.85480  0.97890  Biso   1.000  H
  H20      1.0000 0.31720  0.35480  0.52110  Biso   1.000  H
  H21      1.0000 0.31050  0.03460  0.96580  Biso   1.000  H
  H22      1.0000 0.68950  0.53460  0.53420  Biso   1.000  H
  H23      1.0000 0.68950  0.96540  0.03420  Biso   1.000  H
  H24      1.0000 0.31050  0.46540  0.46580  Biso   1.000  H
  C17      1.0000 0.65950  0.13930  0.88080  Biso   1.000  C
  C18      1.0000 0.34050  0.63930  0.61920  Biso   1.000  C
  C19      1.0000 0.34050  0.86070  0.11920  Biso   1.000  C
  C20      1.0000 0.65950  0.36070  0.38080  Biso   1.000  C
  H25      1.0000 0.69330  0.15310  0.83240  Biso   1.000  H
  H26      1.0000 0.30670  0.65310  0.66760  Biso   1.000  H
  H27      1.0000 0.30670  0.84690  0.16760  Biso   1.000  H
  H28      1.0000 0.69330  0.34690  0.33240  Biso   1.000  H
  H29      1.0000 0.64050  0.06240  0.87920  Biso   1.000  H
  H30      1.0000 0.35950  0.56240  0.62080  Biso   1.000  H
  H31      1.0000 0.35950  0.93760  0.12080  Biso   1.000  H
  H32      1.0000 0.64050  0.43760  0.37920  Biso   1.000  H
  H33      1.0000 0.68970  0.15130  0.93230  Biso   1.000  H
  H34      1.0000 0.31030  0.65130  0.56770  Biso   1.000  H
  H35      1.0000 0.31030  0.84870  0.06770  Biso   1.000  H
  H36      1.0000 0.68970  0.34870  0.43230  Biso   1.000  H
  O25      1.0000 0.53010  0.74870  0.85220  Biso   1.000  O
  O26      1.0000 0.46990  0.24870  0.64780  Biso   1.000  O
  O27      1.0000 0.46990  0.25130  0.14780  Biso   1.000  O
  O28      1.0000 0.53010  0.75130  0.35220  Biso   1.000  O
  C21      1.0000 0.35630  0.16840  0.89890  Biso   1.000  C
  C22      1.0000 0.64370  0.66840  0.60110  Biso   1.000  C
  C23      1.0000 0.64370  0.83160  0.10110  Biso   1.000  C
  C24      1.0000 0.35630  0.33160  0.39890  Biso   1.000  C
  O29      1.0000 0.49530  0.89530  0.77070  Biso   1.000  O
  O30      1.0000 0.50470  0.39530  0.72930  Biso   1.000  O
  O31      1.0000 0.50470  0.10470  0.22930  Biso   1.000  O
  O32      1.0000 0.49530  0.60470  0.27070  Biso   1.000  O
  C25      1.0000 0.58870  0.21960  0.87860  Biso   1.000  C
  C26      1.0000 0.41130  0.71960  0.62140  Biso   1.000  C
  C27      1.0000 0.41130  0.78040  0.12140  Biso   1.000  C
  C28      1.0000 0.58870  0.28040  0.37860  Biso   1.000  C
  C29      1.0000 0.67360  0.11150  0.63160  Biso   1.000  C
  C30      1.0000 0.32640  0.61150  0.86840  Biso   1.000  C
  C31      1.0000 0.32640  0.88850  0.36840  Biso   1.000  C
  C32      1.0000 0.67360  0.38850  0.13160  Biso   1.000  C
  H37      1.0000 0.67650  0.13830  0.57380  Biso   1.000  H
  H38      1.0000 0.32350  0.63830  0.92620  Biso   1.000  H
  H39      1.0000 0.32350  0.86170  0.42620  Biso   1.000  H
  H40      1.0000 0.67650  0.36170  0.07380  Biso   1.000  H
  H41      1.0000 0.72630  0.08930  0.65050  Biso   1.000  H
  H42      1.0000 0.27370  0.58930  0.84950  Biso   1.000  H
  H43      1.0000 0.27370  0.91070  0.34950  Biso   1.000  H
  H44      1.0000 0.72630  0.41070  0.15050  Biso   1.000  H
  H45      1.0000 0.65370  0.17090  0.66770  Biso   1.000  H
  H46      1.0000 0.34630  0.67090  0.83230  Biso   1.000  H
  H47      1.0000 0.34630  0.82910  0.33230  Biso   1.000  H
  H48      1.0000 0.65370  0.32910  0.16770  Biso   1.000  H
  O33      1.0000 0.37490  0.03160  0.60730  Biso   1.000  O
  O34      1.0000 0.62510  0.53160  0.89270  Biso   1.000  O
  O35      1.0000 0.62510  0.96840  0.39270  Biso   1.000  O
  O36      1.0000 0.37490  0.46840  0.10730  Biso   1.000  O
  H49      1.0000 0.37700  0.97700  0.59700  Biso   1.000  H
  H50      1.0000 0.62300  0.47700  0.90300  Biso   1.000  H
  H51      1.0000 0.62300  0.02300  0.40300  Biso   1.000  H
  H52      1.0000 0.37700  0.52300  0.09700  Biso   1.000  H
  H53      1.0000 0.33000  0.05600  0.61800  Biso   1.000  H
  H54      1.0000 0.67000  0.55600  0.88200  Biso   1.000  H
  H55      1.0000 0.67000  0.94400  0.38200  Biso   1.000  H
  H56      1.0000 0.33000  0.44400  0.11800  Biso   1.000  H
  Na9      1.0000 0.04484  0.42123  0.72765  Biso   1.000  Na
  Na10     1.0000 0.95516  0.92123  0.77235  Biso   1.000  Na
  Na11     1.0000 0.95516  0.57877  0.27235  Biso   1.000  Na
  Na12     1.0000 0.04484  0.07877  0.22765  Biso   1.000  Na
  O37      1.0000 0.96550  0.30240  0.82220  Biso   1.000  O
  O38      1.0000 0.03450  0.80240  0.67780  Biso   1.000  O
  O39      1.0000 0.03450  0.69760  0.17780  Biso   1.000  O
  O40      1.0000 0.96550  0.19760  0.32220  Biso   1.000  O
  Cu5      1.0000 0.04822  0.18247  0.82188  Biso   1.000  Cu
  Cu6      1.0000 0.95178  0.68247  0.67812  Biso   1.000  Cu
  Cu7      1.0000 0.95178  0.81753  0.17812  Biso   1.000  Cu
  Cu8      1.0000 0.04822  0.31753  0.32188  Biso   1.000  Cu
  O41      1.0000 0.91510  0.19820  0.92660  Biso   1.000  O
  O42      1.0000 0.08490  0.69820  0.57340  Biso   1.000  O
  O43      1.0000 0.08490  0.80180  0.07340  Biso   1.000  O
  O44      1.0000 0.91510  0.30180  0.42660  Biso   1.000  O
  Na13     1.0000 0.03186  0.13579  0.02208  Biso   1.000  Na
  Na14     1.0000 0.96814  0.63579  0.47792  Biso   1.000  Na
  Na15     1.0000 0.96814  0.86421  0.97792  Biso   1.000  Na
  Na16     1.0000 0.03186  0.36421  0.52208  Biso   1.000  Na
  C33      1.0000 0.19680  0.38230  0.96860  Biso   1.000  C
  C34      1.0000 0.80320  0.88230  0.53140  Biso   1.000  C
  C35      1.0000 0.80320  0.61770  0.03140  Biso   1.000  C
  C36      1.0000 0.19680  0.11770  0.46860  Biso   1.000  C
  H57      1.0000 0.18240  0.35210  0.02340  Biso   1.000  H
  H58      1.0000 0.81760  0.85210  0.47660  Biso   1.000  H
  H59      1.0000 0.81760  0.64790  0.97660  Biso   1.000  H
  H60      1.0000 0.18240  0.14790  0.52340  Biso   1.000  H
  H61      1.0000 0.18970  0.46310  0.96880  Biso   1.000  H
  H62      1.0000 0.81030  0.96310  0.53120  Biso   1.000  H
  H63      1.0000 0.81030  0.53690  0.03120  Biso   1.000  H
  H64      1.0000 0.18970  0.03690  0.46880  Biso   1.000  H
  H65      1.0000 0.25200  0.36460  0.95680  Biso   1.000  H
  H66      1.0000 0.74800  0.86460  0.54320  Biso   1.000  H
  H67      1.0000 0.74800  0.63540  0.04320  Biso   1.000  H
  H68      1.0000 0.25200  0.13540  0.45680  Biso   1.000  H
  H69      1.0000 0.12200  0.55260  0.60000  Biso   1.000  H
  H70      1.0000 0.87800  0.05260  0.90000  Biso   1.000  H
  H71      1.0000 0.87800  0.44740  0.40000  Biso   1.000  H
  H72      1.0000 0.12200  0.94740  0.10000  Biso   1.000  H
  H73      1.0000 0.18300  0.44900  0.62000  Biso   1.000  H
  H74      1.0000 0.81700  0.94900  0.88000  Biso   1.000  H
  H75      1.0000 0.81700  0.55100  0.38000  Biso   1.000  H
  H76      1.0000 0.18300  0.05100  0.12000  Biso   1.000  H
  O45      1.0000 0.10060  0.24610  0.92320  Biso   1.000  O
  O46      1.0000 0.89940  0.74610  0.57680  Biso   1.000  O
  O47      1.0000 0.89940  0.75390  0.07680  Biso   1.000  O
  O48      1.0000 0.10060  0.25390  0.42320  Biso   1.000  O
  O49      1.0000 0.94610  0.48890  0.59330  Biso   1.000  O
  O50      1.0000 0.05390  0.98890  0.90670  Biso   1.000  O
  O51      1.0000 0.05390  0.51110  0.40670  Biso   1.000  O
  O52      1.0000 0.94610  0.01110  0.09330  Biso   1.000  O
  O53      1.0000 0.14330  0.36800  0.82660  Biso   1.000  O
  O54      1.0000 0.85670  0.86800  0.67340  Biso   1.000  O
  O55      1.0000 0.85670  0.63200  0.17340  Biso   1.000  O
  O56      1.0000 0.14330  0.13200  0.32660  Biso   1.000  O
  C37      1.0000 0.82730  0.38690  0.63160  Biso   1.000  C
  C38      1.0000 0.17270  0.88690  0.86840  Biso   1.000  C
  C39      1.0000 0.17270  0.61310  0.36840  Biso   1.000  C
  C40      1.0000 0.82730  0.11310  0.13160  Biso   1.000  C
  H77      1.0000 0.82030  0.36450  0.57320  Biso   1.000  H
  H78      1.0000 0.17970  0.86450  0.92680  Biso   1.000  H
  H79      1.0000 0.17970  0.63550  0.42680  Biso   1.000  H
  H80      1.0000 0.82030  0.13550  0.07320  Biso   1.000  H
  H81      1.0000 0.77620  0.40730  0.65540  Biso   1.000  H
  H82      1.0000 0.22380  0.90730  0.84460  Biso   1.000  H
  H83      1.0000 0.22380  0.59270  0.34460  Biso   1.000  H
  H84      1.0000 0.77620  0.09270  0.15540  Biso   1.000  H
  H85      1.0000 0.84990  0.32500  0.66350  Biso   1.000  H
  H86      1.0000 0.15010  0.82500  0.83650  Biso   1.000  H
  H87      1.0000 0.15010  0.67500  0.33650  Biso   1.000  H
  H88      1.0000 0.84990  0.17500  0.16350  Biso   1.000  H
  O57      1.0000 0.86390  0.56910  0.68590  Biso   1.000  O
  O58      1.0000 0.13610  0.06910  0.81410  Biso   1.000  O
  O59      1.0000 0.13610  0.43090  0.31410  Biso   1.000  O
  O60      1.0000 0.86390  0.93090  0.18590  Biso   1.000  O
  C41      1.0000 0.03680  0.59690  0.91830  Biso   1.000  C
  C42      1.0000 0.96320  0.09690  0.58170  Biso   1.000  C
  C43      1.0000 0.96320  0.40310  0.08170  Biso   1.000  C
  C44      1.0000 0.03680  0.90310  0.41830  Biso   1.000  C
  H89      1.0000 0.00890  0.61890  0.96920  Biso   1.000  H
  H90      1.0000 0.99110  0.11890  0.53080  Biso   1.000  H
  H91      1.0000 0.99110  0.38110  0.03080  Biso   1.000  H
  H92      1.0000 0.00890  0.88110  0.46920  Biso   1.000  H
  H93      1.0000 0.09250  0.61720  0.92320  Biso   1.000  H
  H94      1.0000 0.90750  0.11720  0.57680  Biso   1.000  H
  H95      1.0000 0.90750  0.38280  0.07680  Biso   1.000  H
  H96      1.0000 0.09250  0.88280  0.42320  Biso   1.000  H
  H97      1.0000 0.03220  0.51630  0.91050  Biso   1.000  H
  H98      1.0000 0.96780  0.01630  0.58950  Biso   1.000  H
  H99      1.0000 0.96780  0.48370  0.08950  Biso   1.000  H
  H100     1.0000 0.03220  0.98370  0.41050  Biso   1.000  H
  O61      1.0000 0.00540  0.60500  0.77100  Biso   1.000  O
  O62      1.0000 0.99460  0.10500  0.72900  Biso   1.000  O
  O63      1.0000 0.99460  0.39500  0.22900  Biso   1.000  O
  O64      1.0000 0.00540  0.89500  0.27100  Biso   1.000  O
  C45      1.0000 0.84090  0.36180  0.88000  Biso   1.000  C
  C46      1.0000 0.15910  0.86180  0.62000  Biso   1.000  C
  C47      1.0000 0.15910  0.63820  0.12000  Biso   1.000  C
  C48      1.0000 0.84090  0.13820  0.38000  Biso   1.000  C
  H101     1.0000 0.80620  0.34700  0.83230  Biso   1.000  H
  H102     1.0000 0.19380  0.84700  0.66770  Biso   1.000  H
  H103     1.0000 0.19380  0.65300  0.16770  Biso   1.000  H
  H104     1.0000 0.80620  0.15300  0.33230  Biso   1.000  H
  H105     1.0000 0.86000  0.43860  0.87710  Biso   1.000  H
  H106     1.0000 0.14000  0.93860  0.62290  Biso   1.000  H
  H107     1.0000 0.14000  0.56140  0.12290  Biso   1.000  H
  H108     1.0000 0.86000  0.06140  0.37710  Biso   1.000  H
  H109     1.0000 0.81160  0.35110  0.93210  Biso   1.000  H
  H110     1.0000 0.18840  0.85110  0.56790  Biso   1.000  H
  H111     1.0000 0.18840  0.64890  0.06790  Biso   1.000  H
  H112     1.0000 0.81160  0.14890  0.43210  Biso   1.000  H
  O65      1.0000 0.96940  0.75100  0.85180  Biso   1.000  O
  O66      1.0000 0.03060  0.25100  0.64820  Biso   1.000  O
  O67      1.0000 0.03060  0.24900  0.14820  Biso   1.000  O
  O68      1.0000 0.96940  0.74900  0.35180  Biso   1.000  O
  C49      1.0000 0.88340  0.48780  0.63600  Biso   1.000  C
  C50      1.0000 0.11660  0.98780  0.86400  Biso   1.000  C
  C51      1.0000 0.11660  0.51220  0.36400  Biso   1.000  C
  C52      1.0000 0.88340  0.01220  0.13600  Biso   1.000  C
  C53      1.0000 0.91230  0.28040  0.87770  Biso   1.000  C
  C54      1.0000 0.08770  0.78040  0.62230  Biso   1.000  C
  C55      1.0000 0.08770  0.71960  0.12230  Biso   1.000  C
  C56      1.0000 0.91230  0.21960  0.37770  Biso   1.000  C
  C57      1.0000 0.14390  0.33030  0.90070  Biso   1.000  C
  C58      1.0000 0.85610  0.83030  0.59930  Biso   1.000  C
  C59      1.0000 0.85610  0.66970  0.09930  Biso   1.000  C
  C60      1.0000 0.14390  0.16970  0.40070  Biso   1.000  C
  O69      1.0000 0.12590  0.46870  0.60730  Biso   1.000  O
  O70      1.0000 0.87410  0.96870  0.89270  Biso   1.000  O
  O71      1.0000 0.87410  0.53130  0.39270  Biso   1.000  O
  O72      1.0000 0.12590  0.03130  0.10730  Biso   1.000  O
  C61      1.0000 0.00060  0.65660  0.84300  Biso   1.000  C
  C62      1.0000 0.99940  0.15660  0.65700  Biso   1.000  C
  C63      1.0000 0.99940  0.34340  0.15700  Biso   1.000  C
  C64      1.0000 0.00060  0.84340  0.34300  Biso   1.000  C
  H113     1.0000 0.21500  0.10800  0.70600  Biso   1.000  H
  H114     1.0000 0.78500  0.60800  0.79400  Biso   1.000  H
  H115     1.0000 0.78500  0.89200  0.29400  Biso   1.000  H
  H116     1.0000 0.21500  0.39200  0.20600  Biso   1.000  H
  O73      1.0000 0.24270  0.12880  0.68210  Biso   1.000  O
  O74      1.0000 0.75730  0.62880  0.81790  Biso   1.000  O
  O75      1.0000 0.75730  0.87120  0.31790  Biso   1.000  O
  O76      1.0000 0.24270  0.37120  0.18210  Biso   1.000  O
  H117     1.0000 0.23100  0.17900  0.66900  Biso   1.000  H
  H118     1.0000 0.76900  0.67900  0.83100  Biso   1.000  H
  H119     1.0000 0.76900  0.82100  0.33100  Biso   1.000  H
  H120     1.0000 0.23100  0.32100  0.16900  Biso   1.000  H
  O77      1.0000 0.26020  0.37010  0.67780  Biso   1.000  O
  O78      1.0000 0.73980  0.87010  0.82220  Biso   1.000  O
  O79      1.0000 0.73980  0.62990  0.32220  Biso   1.000  O
  O80      1.0000 0.26020  0.12990  0.17780  Biso   1.000  O
  H121     1.0000 0.28100  0.39700  0.73400  Biso   1.000  H
  H122     1.0000 0.71900  0.89700  0.76600  Biso   1.000  H
  H123     1.0000 0.71900  0.60300  0.26600  Biso   1.000  H
  H124     1.0000 0.28100  0.10300  0.23400  Biso   1.000  H
