data_image0
_cell_length_a       10.219
_cell_length_b       10.441
_cell_length_c       16.094
_cell_angle_alpha    79.49
_cell_angle_beta     89.55
_cell_angle_gamma    73.32

_symmetry_space_group_name_H-M    "P 1"
_symmetry_int_tables_number       1

loop_
  _symmetry_equiv_pos_as_xyz
  'x, y, z'

loop_
  _atom_site_label
  _atom_site_occupancy
  _atom_site_fract_x
  _atom_site_fract_y
  _atom_site_fract_z
  _atom_site_thermal_displace_type
  _atom_site_B_iso_or_equiv
  _atom_site_type_symbol
  W1       1.0000 0.21283  0.13637  0.29411  Biso   1.000  W
  W2       1.0000 0.78717  0.86363  0.70589  Biso   1.000  W
  Cu1      1.0000 0.50000  0.00000  0.00000  Biso   1.000  Cu
  Cu2      1.0000 0.71706  0.11705  0.37457  Biso   1.000  Cu
  Cu3      1.0000 0.28294  0.88295  0.62543  Biso   1.000  Cu
  O1       1.0000 0.31470  0.01340  0.96320  Biso   1.000  O
  O2       1.0000 0.68530  0.98660  0.03680  Biso   1.000  O
  O3       1.0000 0.21260  0.80150  0.98960  Biso   1.000  O
  O4       1.0000 0.78740  0.19850  0.01040  Biso   1.000  O
  O5       1.0000 0.10990  0.24020  0.94720  Biso   1.000  O
  O6       1.0000 0.89010  0.75980  0.05280  Biso   1.000  O
  O7       1.0000 0.12360  0.71110  0.15320  Biso   1.000  O
  O8       1.0000 0.87640  0.28890  0.84680  Biso   1.000  O
  N1       1.0000 0.41790  0.04550  0.14080  Biso   1.000  N
  N2       1.0000 0.58210  0.95450  0.85920  Biso   1.000  N
  N3       1.0000 0.90390  0.13090  0.35110  Biso   1.000  N
  N4       1.0000 0.09610  0.86910  0.64890  Biso   1.000  N
  N5       1.0000 0.52330  0.12850  0.35420  Biso   1.000  N
  N6       1.0000 0.47670  0.87150  0.64580  Biso   1.000  N
  N7       1.0000 0.24610  0.97330  0.49250  Biso   1.000  N
  N8       1.0000 0.75390  0.02670  0.50750  Biso   1.000  N
  N9       1.0000 0.11740  0.37150  0.41360  Biso   1.000  N
  N10      1.0000 0.88260  0.62850  0.58640  Biso   1.000  N
  N11      1.0000 0.24940  0.42380  0.18500  Biso   1.000  N
  N12      1.0000 0.75060  0.57620  0.81500  Biso   1.000  N
  N13      1.0000 0.23280  0.81670  0.28680  Biso   1.000  N
  N14      1.0000 0.76720  0.18330  0.71320  Biso   1.000  N
  N15      1.0000 0.01490  0.18510  0.12450  Biso   1.000  N
  N16      1.0000 0.98510  0.81490  0.87550  Biso   1.000  N
  N17      1.0000 0.53400  0.79240  0.04180  Biso   1.000  N
  N18      1.0000 0.46600  0.20760  0.95820  Biso   1.000  N
  N19      1.0000 0.63800  0.26670  0.18300  Biso   1.000  N
  N20      1.0000 0.36200  0.73330  0.81700  Biso   1.000  N
  N21      1.0000 0.66440  0.31070  0.39860  Biso   1.000  N
  N22      1.0000 0.33560  0.68930  0.60140  Biso   1.000  N
  N23      1.0000 0.56100  0.81870  0.45300  Biso   1.000  N
  N24      1.0000 0.43900  0.18130  0.54700  Biso   1.000  N
  N25      1.0000 0.77400  0.93810  0.33330  Biso   1.000  N
  N26      1.0000 0.22600  0.06190  0.66670  Biso   1.000  N
  N27      1.0000 0.86710  0.46170  0.23360  Biso   1.000  N
  N28      1.0000 0.13290  0.53830  0.76640  Biso   1.000  N
  C1       1.0000 0.34880  0.07750  0.19490  Biso   1.000  C
  C2       1.0000 0.65120  0.92250  0.80510  Biso   1.000  C
  C3       1.0000 0.01010  0.13360  0.33110  Biso   1.000  C
  C4       1.0000 0.98990  0.86640  0.66890  Biso   1.000  C
  C5       1.0000 0.41420  0.13000  0.33720  Biso   1.000  C
  C6       1.0000 0.58580  0.87000  0.66280  Biso   1.000  C
  C7       1.0000 0.23780  0.02790  0.42380  Biso   1.000  C
  C8       1.0000 0.76220  0.97210  0.57620  Biso   1.000  C
  C9       1.0000 0.15280  0.29150  0.37150  Biso   1.000  C
  C10      1.0000 0.84720  0.70850  0.62850  Biso   1.000  C
  C11      1.0000 0.23510  0.32520  0.22140  Biso   1.000  C
  C12      1.0000 0.76490  0.67480  0.77860  Biso   1.000  C
  C13      1.0000 0.22480  0.92740  0.28950  Biso   1.000  C
  C14      1.0000 0.77520  0.07260  0.71050  Biso   1.000  C
  C15      1.0000 0.08280  0.17130  0.18300  Biso   1.000  C
  C16      1.0000 0.91720  0.82870  0.81700  Biso   1.000  C
  C17      1.0000 0.62420  0.69920  0.00830  Biso   1.000  C
  C18      1.0000 0.37580  0.30080  0.99170  Biso   1.000  C
  C19      1.0000 0.65190  0.56020  0.03990  Biso   1.000  C
  C20      1.0000 0.34810  0.43980  0.96010  Biso   1.000  C
  C21      1.0000 0.58380  0.51920  0.10840  Biso   1.000  C
  C22      1.0000 0.41620  0.48080  0.89160  Biso   1.000  C
  C23      1.0000 0.48670  0.61440  0.14220  Biso   1.000  C
  C24      1.0000 0.51330  0.38560  0.85780  Biso   1.000  C
  C25      1.0000 0.46410  0.75080  0.10740  Biso   1.000  C
  C26      1.0000 0.53590  0.24920  0.89260  Biso   1.000  C
  C27      1.0000 0.61460  0.37610  0.14770  Biso   1.000  C
  C28      1.0000 0.38540  0.62390  0.85230  Biso   1.000  C
  C29      1.0000 0.74710  0.34290  0.44880  Biso   1.000  C
  C30      1.0000 0.25290  0.65710  0.55120  Biso   1.000  C
  C31      1.0000 0.72340  0.47220  0.46590  Biso   1.000  C
  C32      1.0000 0.27660  0.52780  0.53410  Biso   1.000  C
  C33      1.0000 0.60930  0.57250  0.42820  Biso   1.000  C
  C34      1.0000 0.39070  0.42750  0.57180  Biso   1.000  C
  C35      1.0000 0.51990  0.54000  0.37600  Biso   1.000  C
  C36      1.0000 0.48010  0.46000  0.62400  Biso   1.000  C
  C37      1.0000 0.55200  0.40720  0.36280  Biso   1.000  C
  C38      1.0000 0.44800  0.59280  0.63720  Biso   1.000  C
  C39      1.0000 0.58200  0.70980  0.44220  Biso   1.000  C
  C40      1.0000 0.41800  0.29020  0.55780  Biso   1.000  C
  C41      1.0000 0.86320  0.82840  0.37840  Biso   1.000  C
  C42      1.0000 0.13680  0.17160  0.62160  Biso   1.000  C
  C43      1.0000 0.89790  0.70210  0.35460  Biso   1.000  C
  C44      1.0000 0.10210  0.29790  0.64540  Biso   1.000  C
  C45      1.0000 0.83470  0.69100  0.28080  Biso   1.000  C
  C46      1.0000 0.16530  0.30900  0.71920  Biso   1.000  C
  C47      1.0000 0.74300  0.80450  0.23370  Biso   1.000  C
  C48      1.0000 0.25700  0.19550  0.76630  Biso   1.000  C
  C49      1.0000 0.71650  0.92750  0.26150  Biso   1.000  C
  C50      1.0000 0.28350  0.07250  0.73850  Biso   1.000  C
  C51      1.0000 0.85880  0.56020  0.25610  Biso   1.000  C
  C52      1.0000 0.14120  0.43980  0.74390  Biso   1.000  C
  H1       1.0000 0.67180  0.72830  0.96100  Biso   1.000  H
  H2       1.0000 0.32820  0.27170  0.03900  Biso   1.000  H
  H3       1.0000 0.71660  0.49540  0.01440  Biso   1.000  H
  H4       1.0000 0.28340  0.50460  0.98560  Biso   1.000  H
  H5       1.0000 0.43620  0.58710  0.18850  Biso   1.000  H
  H6       1.0000 0.56380  0.41290  0.81150  Biso   1.000  H
  H7       1.0000 0.39720  0.81710  0.13050  Biso   1.000  H
  H8       1.0000 0.60280  0.18290  0.86950  Biso   1.000  H
  H9       1.0000 0.82630  0.27390  0.47420  Biso   1.000  H
  H10      1.0000 0.17370  0.72610  0.52580  Biso   1.000  H
  H11      1.0000 0.78420  0.49170  0.50290  Biso   1.000  H
  H12      1.0000 0.21580  0.50830  0.49710  Biso   1.000  H
  H13      1.0000 0.43960  0.60680  0.35040  Biso   1.000  H
  H14      1.0000 0.56040  0.39320  0.64960  Biso   1.000  H
  H15      1.0000 0.49240  0.38380  0.32720  Biso   1.000  H
  H16      1.0000 0.50760  0.61620  0.67280  Biso   1.000  H
  H17      1.0000 0.90460  0.83710  0.42890  Biso   1.000  H
  H18      1.0000 0.09540  0.16290  0.57110  Biso   1.000  H
  H19      1.0000 0.96260  0.62580  0.38750  Biso   1.000  H
  H20      1.0000 0.03740  0.37420  0.61250  Biso   1.000  H
  H21      1.0000 0.69890  0.79870  0.18340  Biso   1.000  H
  H22      1.0000 0.30110  0.20130  0.81660  Biso   1.000  H
  H23      1.0000 0.65570  0.00660  0.22840  Biso   1.000  H
  H24      1.0000 0.34430  0.99340  0.77160  Biso   1.000  H
  H25      1.0000 0.28200  0.94300  0.97800  Biso   1.000  H
  H26      1.0000 0.71800  0.05700  0.02200  Biso   1.000  H
  H27      1.0000 0.24300  0.08700  0.95200  Biso   1.000  H
  H28      1.0000 0.75700  0.91300  0.04800  Biso   1.000  H
  H29      1.0000 0.17000  0.81000  0.03700  Biso   1.000  H
  H30      1.0000 0.83000  0.19000  0.96300  Biso   1.000  H
  H31      1.0000 0.15000  0.83000  0.94400  Biso   1.000  H
  H32      1.0000 0.85000  0.17000  0.05600  Biso   1.000  H
  H33      1.0000 0.16600  0.73200  0.19600  Biso   1.000  H
  H34      1.0000 0.83400  0.26800  0.80400  Biso   1.000  H
  H35      1.0000 0.17000  0.62300  0.16800  Biso   1.000  H
  H36      1.0000 0.83000  0.37700  0.83200  Biso   1.000  H
