data_image0
_cell_length_a       10.103
_cell_length_b       12.361
_cell_length_c       12.7
_cell_angle_alpha    78.73
_cell_angle_beta     86.69
_cell_angle_gamma    86.98

_symmetry_space_group_name_H-M    "P 1"
_symmetry_int_tables_number       1

loop_
  _symmetry_equiv_pos_as_xyz
  'x, y, z'

loop_
  _atom_site_label
  _atom_site_occupancy
  _atom_site_fract_x
  _atom_site_fract_y
  _atom_site_fract_z
  _atom_site_thermal_displace_type
  _atom_site_B_iso_or_equiv
  _atom_site_type_symbol
  W1       1.0000 0.25943  0.21532  0.30609  Biso   1.000  W
  W2       1.0000 0.74057  0.78468  0.69391  Biso   1.000  W
  Cu1      1.0000 0.50000  0.50000  0.00000  Biso   1.000  Cu
  Cu2      1.0000 0.76790  0.11065  0.34695  Biso   1.000  Cu
  Cu3      1.0000 0.23210  0.88935  0.65305  Biso   1.000  Cu
  O1       1.0000 0.66020  0.34860  0.99630  Biso   1.000  O
  O2       1.0000 0.33980  0.65140  0.00370  Biso   1.000  O
  O3       1.0000 0.78040  0.30740  0.22520  Biso   1.000  O
  O4       1.0000 0.21960  0.69260  0.77480  Biso   1.000  O
  N1       1.0000 0.41000  0.40000  0.12090  Biso   1.000  N
  N2       1.0000 0.59000  0.60000  0.87910  Biso   1.000  N
  N3       1.0000 0.57560  0.14440  0.33930  Biso   1.000  N
  N4       1.0000 0.42440  0.85560  0.66070  Biso   1.000  N
  N5       1.0000 0.96580  0.10580  0.34130  Biso   1.000  N
  N6       1.0000 0.03420  0.89420  0.65870  Biso   1.000  N
  N7       1.0000 0.24810  0.05730  0.54780  Biso   1.000  N
  N8       1.0000 0.75190  0.94270  0.45220  Biso   1.000  N
  N9       1.0000 0.32760  0.96890  0.24770  Biso   1.000  N
  N10      1.0000 0.67240  0.03110  0.75230  Biso   1.000  N
  N11      1.0000 0.13150  0.23240  0.06990  Biso   1.000  N
  N12      1.0000 0.86850  0.76760  0.93010  Biso   1.000  N
  N13      1.0000 0.02580  0.40730  0.32040  Biso   1.000  N
  N14      1.0000 0.97420  0.59270  0.67960  Biso   1.000  N
  N15      1.0000 0.37990  0.38140  0.44810  Biso   1.000  N
  N16      1.0000 0.62010  0.61860  0.55190  Biso   1.000  N
  N17      1.0000 0.61700  0.54970  0.10690  Biso   1.000  N
  N18      1.0000 0.38300  0.45030  0.89310  Biso   1.000  N
  N19      1.0000 0.07880  0.61110  0.10540  Biso   1.000  N
  N20      1.0000 0.92120  0.38890  0.89460  Biso   1.000  N
  N21      1.0000 0.77480  0.19590  0.46910  Biso   1.000  N
  N22      1.0000 0.22520  0.80410  0.53090  Biso   1.000  N
  N23      1.0000 0.03600  0.15710  0.77620  Biso   1.000  N
  N24      1.0000 0.96400  0.84290  0.22380  Biso   1.000  N
  N25      1.0000 0.76660  0.05850  0.20570  Biso   1.000  N
  N26      1.0000 0.23340  0.94150  0.79430  Biso   1.000  N
  N27      1.0000 0.50890  0.81690  0.05760  Biso   1.000  N
  N28      1.0000 0.49110  0.18310  0.94240  Biso   1.000  N
  C1       1.0000 0.36050  0.33730  0.18710  Biso   1.000  C
  C2       1.0000 0.63950  0.66270  0.81290  Biso   1.000  C
  C3       1.0000 0.46640  0.16960  0.32780  Biso   1.000  C
  C4       1.0000 0.53360  0.83040  0.67220  Biso   1.000  C
  C5       1.0000 0.07010  0.13880  0.33120  Biso   1.000  C
  C6       1.0000 0.92990  0.86120  0.66880  Biso   1.000  C
  C7       1.0000 0.25210  0.11690  0.46640  Biso   1.000  C
  C8       1.0000 0.74790  0.88310  0.53360  Biso   1.000  C
  C9       1.0000 0.30240  0.05520  0.26630  Biso   1.000  C
  C10      1.0000 0.69760  0.94480  0.73370  Biso   1.000  C
  C11      1.0000 0.17670  0.22740  0.15110  Biso   1.000  C
  C12      1.0000 0.82330  0.77260  0.84890  Biso   1.000  C
  C13      1.0000 0.10840  0.34390  0.31460  Biso   1.000  C
  C14      1.0000 0.89160  0.65610  0.68540  Biso   1.000  C
  C15      1.0000 0.33620  0.32460  0.40010  Biso   1.000  C
  C16      1.0000 0.66380  0.67540  0.59990  Biso   1.000  C
  C17      1.0000 0.74620  0.56460  0.08370  Biso   1.000  C
  C18      1.0000 0.25380  0.43540  0.91630  Biso   1.000  C
  C19      1.0000 0.82930  0.59060  0.15640  Biso   1.000  C
  C20      1.0000 0.17070  0.40940  0.84360  Biso   1.000  C
  C21      1.0000 0.77840  0.60400  0.25710  Biso   1.000  C
  C22      1.0000 0.22160  0.39600  0.74290  Biso   1.000  C
  C23      1.0000 0.64520  0.59000  0.28050  Biso   1.000  C
  C24      1.0000 0.35480  0.41000  0.71950  Biso   1.000  C
  C25      1.0000 0.56800  0.56340  0.20350  Biso   1.000  C
  C26      1.0000 0.43200  0.43660  0.79650  Biso   1.000  C
  C27      1.0000 0.96900  0.60280  0.12750  Biso   1.000  C
  C28      1.0000 0.03100  0.39720  0.87250  Biso   1.000  C
  C29      1.0000 0.85770  0.16410  0.54790  Biso   1.000  C
  C30      1.0000 0.14230  0.83590  0.45210  Biso   1.000  C
  C31      1.0000 0.87400  0.22690  0.62550  Biso   1.000  C
  C32      1.0000 0.12600  0.77310  0.37450  Biso   1.000  C
  C33      1.0000 0.80470  0.32640  0.62060  Biso   1.000  C
  C34      1.0000 0.19530  0.67360  0.37940  Biso   1.000  C
  C35      1.0000 0.71820  0.35900  0.53920  Biso   1.000  C
  C36      1.0000 0.28180  0.64100  0.46080  Biso   1.000  C
  C37      1.0000 0.70480  0.29190  0.46560  Biso   1.000  C
  C38      1.0000 0.29520  0.70810  0.53440  Biso   1.000  C
  C39      1.0000 0.96530  0.18620  0.70970  Biso   1.000  C
  C40      1.0000 0.03470  0.81380  0.29030  Biso   1.000  C
  C41      1.0000 0.68060  0.98440  0.18980  Biso   1.000  C
  C42      1.0000 0.31940  0.01560  0.81020  Biso   1.000  C
  C43      1.0000 0.67710  0.95530  0.09000  Biso   1.000  C
  C44      1.0000 0.32290  0.04470  0.91000  Biso   1.000  C
  C45      1.0000 0.76380  0.00110  0.00650  Biso   1.000  C
  C46      1.0000 0.23620  0.99890  0.99350  Biso   1.000  C
  C47      1.0000 0.85040  0.07420  0.02540  Biso   1.000  C
  C48      1.0000 0.14960  0.92580  0.97460  Biso   1.000  C
  C49      1.0000 0.85140  0.10050  0.12500  Biso   1.000  C
  C50      1.0000 0.14860  0.89950  0.87500  Biso   1.000  C
  C51      1.0000 0.58270  0.87740  0.07430  Biso   1.000  C
  C52      1.0000 0.41730  0.12260  0.92570  Biso   1.000  C
  H1       1.0000 0.76800  0.55300  0.01700  Biso   1.000  H
  H2       1.0000 0.23200  0.44700  0.98300  Biso   1.000  H
  H3       1.0000 0.84900  0.61400  0.31100  Biso   1.000  H
  H4       1.0000 0.15100  0.38600  0.68900  Biso   1.000  H
  H5       1.0000 0.61000  0.59200  0.35500  Biso   1.000  H
  H6       1.0000 0.39000  0.40800  0.64500  Biso   1.000  H
  H7       1.0000 0.47400  0.55400  0.22000  Biso   1.000  H
  H8       1.0000 0.52600  0.44600  0.78000  Biso   1.000  H
  H9       1.0000 0.90600  0.09300  0.55100  Biso   1.000  H
  H10      1.0000 0.09400  0.90700  0.44900  Biso   1.000  H
  H11      1.0000 0.82600  0.37600  0.67300  Biso   1.000  H
  H12      1.0000 0.17400  0.62400  0.32700  Biso   1.000  H
  H13      1.0000 0.66500  0.42900  0.53200  Biso   1.000  H
  H14      1.0000 0.33500  0.57100  0.46800  Biso   1.000  H
  H15      1.0000 0.64600  0.30400  0.42200  Biso   1.000  H
  H16      1.0000 0.35400  0.69600  0.57800  Biso   1.000  H
  H17      1.0000 0.61800  0.95400  0.24200  Biso   1.000  H
  H18      1.0000 0.38200  0.04600  0.75800  Biso   1.000  H
  H19      1.0000 0.77200  0.98000  0.93800  Biso   1.000  H
  H20      1.0000 0.22800  0.02000  0.06200  Biso   1.000  H
  H21      1.0000 0.90700  0.10000  0.97700  Biso   1.000  H
  H22      1.0000 0.09300  0.90000  0.02300  Biso   1.000  H
  H23      1.0000 0.91900  0.14800  0.14200  Biso   1.000  H
  H24      1.0000 0.08100  0.85200  0.85800  Biso   1.000  H
  H25      1.0000 0.61500  0.29800  0.96000  Biso   1.000  H
  H26      1.0000 0.38500  0.70200  0.04000  Biso   1.000  H
  H27      1.0000 0.72300  0.34800  0.93300  Biso   1.000  H
  H28      1.0000 0.27700  0.65200  0.06700  Biso   1.000  H
  H29      1.0000 0.73500  0.31400  0.15500  Biso   1.000  H
  H30      1.0000 0.26500  0.68600  0.84500  Biso   1.000  H
  H31      1.0000 0.87500  0.32620  0.20820  Biso   1.000  H
  H32      1.0000 0.12500  0.67380  0.79180  Biso   1.000  H
  H33      1.0000 0.73500  0.36350  0.26450  Biso   1.000  H
  H34      1.0000 0.26500  0.63650  0.73550  Biso   1.000  H
