data_image0
_cell_length_a       13.0095
_cell_length_b       14.99
_cell_length_c       16.971
_cell_angle_alpha    90
_cell_angle_beta     90
_cell_angle_gamma    90

_symmetry_space_group_name_H-M    "P 1"
_symmetry_int_tables_number       1

loop_
  _symmetry_equiv_pos_as_xyz
  'x, y, z'

loop_
  _atom_site_label
  _atom_site_occupancy
  _atom_site_fract_x
  _atom_site_fract_y
  _atom_site_fract_z
  _atom_site_thermal_displace_type
  _atom_site_B_iso_or_equiv
  _atom_site_type_symbol
  Cu1      1.0000 0.20546  0.94816  0.90805  Biso   1.000  Cu
  Cu2      1.0000 0.29454  0.05184  0.40805  Biso   1.000  Cu
  Cu3      1.0000 0.79454  0.44816  0.59195  Biso   1.000  Cu
  Cu4      1.0000 0.70546  0.55184  0.09195  Biso   1.000  Cu
  Gd1      1.0000 0.41408  0.09640  0.91182  Biso   1.000  Gd
  Gd2      1.0000 0.08592  0.90360  0.41182  Biso   1.000  Gd
  Gd3      1.0000 0.58593  0.59640  0.58818  Biso   1.000  Gd
  Gd4      1.0000 0.91407  0.40360  0.08818  Biso   1.000  Gd
  Fe1      1.0000 0.83700  0.10053  0.90667  Biso   1.000  Fe
  Fe2      1.0000 0.66300  0.89947  0.40667  Biso   1.000  Fe
  Fe3      1.0000 0.16300  0.60053  0.59333  Biso   1.000  Fe
  Fe4      1.0000 0.33700  0.39947  0.09333  Biso   1.000  Fe
  N1       1.0000 0.13480  0.88610  0.82070  Biso   1.000  N
  N2       1.0000 0.36520  0.11390  0.32070  Biso   1.000  N
  N3       1.0000 0.86520  0.38610  0.67930  Biso   1.000  N
  N4       1.0000 0.63480  0.61390  0.17930  Biso   1.000  N
  N5       1.0000 0.12610  0.88980  0.99300  Biso   1.000  N
  N6       1.0000 0.37390  0.11020  0.49300  Biso   1.000  N
  N7       1.0000 0.87390  0.38980  0.50700  Biso   1.000  N
  N8       1.0000 0.62610  0.61020  0.00700  Biso   1.000  N
  N9       1.0000 0.60220  0.12660  0.91700  Biso   1.000  N
  N10      1.0000 0.89780  0.87340  0.41700  Biso   1.000  N
  N11      1.0000 0.39780  0.62660  0.58300  Biso   1.000  N
  N12      1.0000 0.10220  0.37340  0.08300  Biso   1.000  N
  N13      1.0000 0.81640  0.01470  0.07120  Biso   1.000  N
  N14      1.0000 0.68360  0.98530  0.57120  Biso   1.000  N
  N15      1.0000 0.18360  0.51470  0.42880  Biso   1.000  N
  N16      1.0000 0.31640  0.48530  0.92880  Biso   1.000  N
  N17      1.0000 0.39150  0.22510  0.00600  Biso   1.000  N
  N18      1.0000 0.10850  0.77490  0.50600  Biso   1.000  N
  N19      1.0000 0.60850  0.72510  0.49400  Biso   1.000  N
  N20      1.0000 0.89150  0.27490  0.99400  Biso   1.000  N
  N21      1.0000 0.07160  0.06750  0.89970  Biso   1.000  N
  N22      1.0000 0.42840  0.93250  0.39970  Biso   1.000  N
  N23      1.0000 0.92840  0.56750  0.60030  Biso   1.000  N
  N24      1.0000 0.57160  0.43250  0.10030  Biso   1.000  N
  N25      1.0000 0.84390  0.17250  0.73690  Biso   1.000  N
  N26      1.0000 0.65610  0.82750  0.23690  Biso   1.000  N
  N27      1.0000 0.15610  0.67250  0.76310  Biso   1.000  N
  N28      1.0000 0.34390  0.32750  0.26310  Biso   1.000  N
  N29      1.0000 0.78370  0.92320  0.82290  Biso   1.000  N
  N30      1.0000 0.71630  0.07680  0.32290  Biso   1.000  N
  N31      1.0000 0.21630  0.42320  0.67710  Biso   1.000  N
  N32      1.0000 0.28370  0.57680  0.17710  Biso   1.000  N
  O1       1.0000 0.30660  0.00080  0.83520  Biso   1.000  O
  O2       1.0000 0.19340  0.99920  0.33520  Biso   1.000  O
  O3       1.0000 0.69340  0.50080  0.66480  Biso   1.000  O
  O4       1.0000 0.80660  0.49920  0.16480  Biso   1.000  O
  O5       1.0000 0.29820  0.00700  0.98620  Biso   1.000  O
  O6       1.0000 0.20180  0.99300  0.48620  Biso   1.000  O
  O7       1.0000 0.70180  0.50700  0.51380  Biso   1.000  O
  O8       1.0000 0.79820  0.49300  0.01380  Biso   1.000  O
  O9       1.0000 0.47310  0.06490  0.77020  Biso   1.000  O
  O10      1.0000 0.02690  0.93510  0.27020  Biso   1.000  O
  O11      1.0000 0.52690  0.56490  0.72980  Biso   1.000  O
  O12      1.0000 0.97310  0.43510  0.22980  Biso   1.000  O
  O13      1.0000 0.46980  0.05800  0.05220  Biso   1.000  O
  O14      1.0000 0.03020  0.94200  0.55220  Biso   1.000  O
  O15      1.0000 0.53020  0.55800  0.44780  Biso   1.000  O
  O16      1.0000 0.96980  0.44200  0.94780  Biso   1.000  O
  C1       1.0000 0.02740  0.85340  0.83150  Biso   1.000  C
  C2       1.0000 0.47260  0.14660  0.33150  Biso   1.000  C
  C3       1.0000 0.97260  0.35340  0.66850  Biso   1.000  C
  C4       1.0000 0.52740  0.64660  0.16850  Biso   1.000  C
  H1       1.0000 0.00910  0.81460  0.78640  Biso   1.000  H
  H2       1.0000 0.49090  0.18540  0.28640  Biso   1.000  H
  H3       1.0000 0.99090  0.31460  0.71360  Biso   1.000  H
  H4       1.0000 0.50910  0.68540  0.21360  Biso   1.000  H
  H5       1.0000 0.98010  0.90510  0.83120  Biso   1.000  H
  H6       1.0000 0.51990  0.09490  0.33120  Biso   1.000  H
  H7       1.0000 0.01990  0.40510  0.66880  Biso   1.000  H
  H8       1.0000 0.48010  0.59490  0.16880  Biso   1.000  H
  C5       1.0000 0.01240  0.80200  0.90660  Biso   1.000  C
  C6       1.0000 0.48760  0.19800  0.40660  Biso   1.000  C
  C7       1.0000 0.98760  0.30200  0.59340  Biso   1.000  C
  C8       1.0000 0.51240  0.69800  0.09340  Biso   1.000  C
  H9       1.0000 0.06420  0.75380  0.90910  Biso   1.000  H
  H10      1.0000 0.43580  0.24620  0.40910  Biso   1.000  H
  H11      1.0000 0.93580  0.25380  0.59090  Biso   1.000  H
  H12      1.0000 0.56420  0.74620  0.09090  Biso   1.000  H
  H13      1.0000 0.94360  0.77370  0.90550  Biso   1.000  H
  H14      1.0000 0.55640  0.22630  0.40550  Biso   1.000  H
  H15      1.0000 0.05640  0.27370  0.59450  Biso   1.000  H
  H16      1.0000 0.44360  0.72630  0.09450  Biso   1.000  H
  C9       1.0000 0.02100  0.85800  0.97980  Biso   1.000  C
  C10      1.0000 0.47900  0.14200  0.47980  Biso   1.000  C
  C11      1.0000 0.97900  0.35800  0.52020  Biso   1.000  C
  C12      1.0000 0.52100  0.64200  0.02020  Biso   1.000  C
  H17      1.0000 0.97430  0.90990  0.97520  Biso   1.000  H
  H18      1.0000 0.52570  0.09010  0.47520  Biso   1.000  H
  H19      1.0000 0.02570  0.40990  0.52480  Biso   1.000  H
  H20      1.0000 0.47430  0.59010  0.02480  Biso   1.000  H
  H21      1.0000 0.99860  0.82230  0.02580  Biso   1.000  H
  H22      1.0000 0.50140  0.17770  0.52580  Biso   1.000  H
  H23      1.0000 0.00140  0.32230  0.47420  Biso   1.000  H
  H24      1.0000 0.49860  0.67770  0.97420  Biso   1.000  H
  C13      1.0000 0.16420  0.87390  0.06160  Biso   1.000  C
  C14      1.0000 0.33580  0.12610  0.56160  Biso   1.000  C
  C15      1.0000 0.83580  0.37390  0.43840  Biso   1.000  C
  C16      1.0000 0.66420  0.62610  0.93840  Biso   1.000  C
  H25      1.0000 0.12280  0.84020  0.09680  Biso   1.000  H
  H26      1.0000 0.37720  0.15980  0.59680  Biso   1.000  H
  H27      1.0000 0.87720  0.34020  0.40320  Biso   1.000  H
  H28      1.0000 0.62280  0.65980  0.90320  Biso   1.000  H
  C17      1.0000 0.26430  0.90230  0.09080  Biso   1.000  C
  C18      1.0000 0.23570  0.09770  0.59080  Biso   1.000  C
  C19      1.0000 0.73570  0.40230  0.40920  Biso   1.000  C
  C20      1.0000 0.76430  0.59770  0.90920  Biso   1.000  C
  C21      1.0000 0.29670  0.86380  0.16220  Biso   1.000  C
  C22      1.0000 0.20330  0.13620  0.66220  Biso   1.000  C
  C23      1.0000 0.70330  0.36380  0.33780  Biso   1.000  C
  C24      1.0000 0.79670  0.63620  0.83780  Biso   1.000  C
  H29      1.0000 0.25460  0.82080  0.18760  Biso   1.000  H
  H30      1.0000 0.24540  0.17920  0.68760  Biso   1.000  H
  H31      1.0000 0.74540  0.32080  0.31240  Biso   1.000  H
  H32      1.0000 0.75460  0.67920  0.81240  Biso   1.000  H
  C25      1.0000 0.38900  0.88780  0.19540  Biso   1.000  C
  C26      1.0000 0.11100  0.11220  0.69540  Biso   1.000  C
  C27      1.0000 0.61100  0.38780  0.30460  Biso   1.000  C
  C28      1.0000 0.88900  0.61220  0.80460  Biso   1.000  C
  H33      1.0000 0.41080  0.86090  0.24320  Biso   1.000  H
  H34      1.0000 0.08920  0.13910  0.74320  Biso   1.000  H
  H35      1.0000 0.58920  0.36090  0.25680  Biso   1.000  H
  H36      1.0000 0.91080  0.63910  0.75680  Biso   1.000  H
  C29      1.0000 0.45030  0.95130  0.15920  Biso   1.000  C
  C30      1.0000 0.04970  0.04870  0.65920  Biso   1.000  C
  C31      1.0000 0.54970  0.45130  0.34080  Biso   1.000  C
  C32      1.0000 0.95030  0.54870  0.84080  Biso   1.000  C
  H37      1.0000 0.51480  0.96720  0.18140  Biso   1.000  H
  H38      1.0000 0.98520  0.03280  0.68140  Biso   1.000  H
  H39      1.0000 0.48520  0.46720  0.31860  Biso   1.000  H
  H40      1.0000 0.01480  0.53280  0.81860  Biso   1.000  H
  C33      1.0000 0.41660  0.99170  0.08970  Biso   1.000  C
  C34      1.0000 0.08340  0.00830  0.58970  Biso   1.000  C
  C35      1.0000 0.58340  0.49170  0.41030  Biso   1.000  C
  C36      1.0000 0.91660  0.50830  0.91030  Biso   1.000  C
  C37      1.0000 0.32400  0.96770  0.05370  Biso   1.000  C
  C38      1.0000 0.17600  0.03230  0.55370  Biso   1.000  C
  C39      1.0000 0.67600  0.46770  0.44630  Biso   1.000  C
  C40      1.0000 0.82400  0.53230  0.94630  Biso   1.000  C
  C41      1.0000 0.33170  0.96830  0.76550  Biso   1.000  C
  C42      1.0000 0.16830  0.03170  0.26550  Biso   1.000  C
  C43      1.0000 0.66830  0.46830  0.73450  Biso   1.000  C
  C44      1.0000 0.83170  0.53170  0.23450  Biso   1.000  C
  C45      1.0000 0.42210  0.99840  0.72920  Biso   1.000  C
  C46      1.0000 0.07790  0.00160  0.22920  Biso   1.000  C
  C47      1.0000 0.57790  0.49840  0.77080  Biso   1.000  C
  C48      1.0000 0.92210  0.50160  0.27080  Biso   1.000  C
  C49      1.0000 0.45450  0.96600  0.65700  Biso   1.000  C
  C50      1.0000 0.04550  0.03400  0.15700  Biso   1.000  C
  C51      1.0000 0.54550  0.46600  0.84300  Biso   1.000  C
  C52      1.0000 0.95450  0.53400  0.34300  Biso   1.000  C
  H41      1.0000 0.51660  0.98730  0.63440  Biso   1.000  H
  H42      1.0000 0.98340  0.01270  0.13440  Biso   1.000  H
  H43      1.0000 0.48340  0.48730  0.86560  Biso   1.000  H
  H44      1.0000 0.01660  0.51270  0.36560  Biso   1.000  H
  C53      1.0000 0.39570  0.90180  0.61720  Biso   1.000  C
  C54      1.0000 0.10430  0.09820  0.11720  Biso   1.000  C
  C55      1.0000 0.60430  0.40180  0.88280  Biso   1.000  C
  C56      1.0000 0.89570  0.59820  0.38280  Biso   1.000  C
  H45      1.0000 0.41810  0.87830  0.56810  Biso   1.000  H
  H46      1.0000 0.08190  0.12170  0.06810  Biso   1.000  H
  H47      1.0000 0.58190  0.37830  0.93190  Biso   1.000  H
  H48      1.0000 0.91810  0.62170  0.43190  Biso   1.000  H
  C57      1.0000 0.30510  0.87350  0.65030  Biso   1.000  C
  C58      1.0000 0.19490  0.12650  0.15030  Biso   1.000  C
  C59      1.0000 0.69490  0.37350  0.84970  Biso   1.000  C
  C60      1.0000 0.80510  0.62650  0.34970  Biso   1.000  C
  H49      1.0000 0.26360  0.83180  0.62260  Biso   1.000  H
  H50      1.0000 0.23640  0.16820  0.12260  Biso   1.000  H
  H51      1.0000 0.73640  0.33180  0.87740  Biso   1.000  H
  H52      1.0000 0.76360  0.66820  0.37740  Biso   1.000  H
  C61      1.0000 0.27230  0.90480  0.72450  Biso   1.000  C
  C62      1.0000 0.22770  0.09520  0.22450  Biso   1.000  C
  C63      1.0000 0.72770  0.40480  0.77550  Biso   1.000  C
  C64      1.0000 0.77230  0.59520  0.27550  Biso   1.000  C
  C65      1.0000 0.17370  0.87430  0.75310  Biso   1.000  C
  C66      1.0000 0.32630  0.12570  0.25310  Biso   1.000  C
  C67      1.0000 0.82630  0.37430  0.74690  Biso   1.000  C
  C68      1.0000 0.67370  0.62570  0.24690  Biso   1.000  C
  H53      1.0000 0.13310  0.84140  0.71670  Biso   1.000  H
  H54      1.0000 0.36690  0.15860  0.21670  Biso   1.000  H
  H55      1.0000 0.86690  0.34140  0.78330  Biso   1.000  H
  H56      1.0000 0.63310  0.65860  0.28330  Biso   1.000  H
  C69      1.0000 0.55470  0.09800  0.09420  Biso   1.000  C
  C70      1.0000 0.94530  0.90200  0.59420  Biso   1.000  C
  C71      1.0000 0.44530  0.59800  0.40580  Biso   1.000  C
  C72      1.0000 0.05470  0.40200  0.90580  Biso   1.000  C
  H57      1.0000 0.61160  0.05530  0.09730  Biso   1.000  H
  H58      1.0000 0.88840  0.94470  0.59730  Biso   1.000  H
  H59      1.0000 0.38840  0.55530  0.40270  Biso   1.000  H
  H60      1.0000 0.11160  0.44470  0.90270  Biso   1.000  H
  H61      1.0000 0.53260  0.11410  0.14750  Biso   1.000  H
  H62      1.0000 0.96740  0.88590  0.64750  Biso   1.000  H
  H63      1.0000 0.46740  0.61410  0.35250  Biso   1.000  H
  H64      1.0000 0.03260  0.38590  0.85250  Biso   1.000  H
  H65      1.0000 0.57760  0.15170  0.06620  Biso   1.000  H
  H66      1.0000 0.92240  0.84830  0.56620  Biso   1.000  H
  H67      1.0000 0.42240  0.65170  0.43380  Biso   1.000  H
  H68      1.0000 0.07760  0.34830  0.93380  Biso   1.000  H
  C73      1.0000 0.56450  0.09950  0.73270  Biso   1.000  C
  C74      1.0000 0.93550  0.90050  0.23270  Biso   1.000  C
  C75      1.0000 0.43550  0.59950  0.76730  Biso   1.000  C
  C76      1.0000 0.06450  0.40050  0.26730  Biso   1.000  C
  H69      1.0000 0.54680  0.12270  0.68040  Biso   1.000  H
  H70      1.0000 0.95320  0.87730  0.18040  Biso   1.000  H
  H71      1.0000 0.45320  0.62270  0.81960  Biso   1.000  H
  H72      1.0000 0.04680  0.37730  0.31960  Biso   1.000  H
  H73      1.0000 0.61530  0.05170  0.72740  Biso   1.000  H
  H74      1.0000 0.88470  0.94830  0.22740  Biso   1.000  H
  H75      1.0000 0.38470  0.55170  0.77260  Biso   1.000  H
  H76      1.0000 0.11530  0.44830  0.27260  Biso   1.000  H
  H77      1.0000 0.59320  0.14770  0.76490  Biso   1.000  H
  H78      1.0000 0.90680  0.85230  0.26490  Biso   1.000  H
  H79      1.0000 0.40680  0.64770  0.73510  Biso   1.000  H
  H80      1.0000 0.09320  0.35230  0.23510  Biso   1.000  H
  C77      1.0000 0.68970  0.12040  0.91300  Biso   1.000  C
  C78      1.0000 0.81030  0.87960  0.41300  Biso   1.000  C
  C79      1.0000 0.31030  0.62040  0.58700  Biso   1.000  C
  C80      1.0000 0.18970  0.37960  0.08700  Biso   1.000  C
  C81      1.0000 0.82650  0.04630  0.00910  Biso   1.000  C
  C82      1.0000 0.67350  0.95370  0.50910  Biso   1.000  C
  C83      1.0000 0.17350  0.54630  0.49090  Biso   1.000  C
  C84      1.0000 0.32650  0.45370  0.99090  Biso   1.000  C
  C85      1.0000 0.36990  0.28840  0.04130  Biso   1.000  C
  C86      1.0000 0.13010  0.71160  0.54130  Biso   1.000  C
  C87      1.0000 0.63010  0.78840  0.45870  Biso   1.000  C
  C88      1.0000 0.86990  0.21160  0.95870  Biso   1.000  C
  C89      1.0000 0.98500  0.08100  0.90250  Biso   1.000  C
  C90      1.0000 0.51500  0.91900  0.40250  Biso   1.000  C
  C91      1.0000 0.01500  0.58100  0.59750  Biso   1.000  C
  C92      1.0000 0.48500  0.41900  0.09750  Biso   1.000  C
  C93      1.0000 0.84190  0.14950  0.80110  Biso   1.000  C
  C94      1.0000 0.65810  0.85050  0.30110  Biso   1.000  C
  C95      1.0000 0.15810  0.64950  0.69890  Biso   1.000  C
  C96      1.0000 0.34190  0.35050  0.19890  Biso   1.000  C
  C97      1.0000 0.80520  0.98800  0.85460  Biso   1.000  C
  C98      1.0000 0.69480  0.01200  0.35460  Biso   1.000  C
  C99      1.0000 0.19480  0.48800  0.64540  Biso   1.000  C
  C100     1.0000 0.30520  0.51200  0.14540  Biso   1.000  C
  O17      1.0000 0.44910  0.23640  0.83700  Biso   1.000  O
  O18      1.0000 0.05090  0.76360  0.33700  Biso   1.000  O
  O19      1.0000 0.55090  0.73640  0.66300  Biso   1.000  O
  O20      1.0000 0.94910  0.26360  0.16300  Biso   1.000  O
  O21      1.0000 0.49010  0.94890  0.91180  Biso   1.000  O
  O22      1.0000 0.00990  0.05110  0.41180  Biso   1.000  O
  O23      1.0000 0.50990  0.44890  0.58820  Biso   1.000  O
  O24      1.0000 0.99010  0.55110  0.08820  Biso   1.000  O
  O25      1.0000 0.25370  0.17090  0.88020  Biso   1.000  O
  O26      1.0000 0.24630  0.82910  0.38020  Biso   1.000  O
  O27      1.0000 0.74630  0.67090  0.61980  Biso   1.000  O
  O28      1.0000 0.75370  0.32910  0.11980  Biso   1.000  O
  O29      1.0000 0.77780  0.15950  0.18140  Biso   1.000  O
  O30      1.0000 0.72220  0.84050  0.68140  Biso   1.000  O
  O31      1.0000 0.22220  0.65950  0.31860  Biso   1.000  O
  O32      1.0000 0.27780  0.34050  0.81860  Biso   1.000  O
  O33      1.0000 0.75360  0.16180  0.59120  Biso   1.000  O
  O34      1.0000 0.74640  0.83820  0.09120  Biso   1.000  O
  O35      1.0000 0.24640  0.66180  0.90880  Biso   1.000  O
  O36      1.0000 0.25360  0.33820  0.40880  Biso   1.000  O
  O37      1.0000 0.65040  0.84100  0.94330  Biso   1.000  O
  O38      1.0000 0.84960  0.15900  0.44330  Biso   1.000  O
  O39      1.0000 0.34960  0.34100  0.55670  Biso   1.000  O
  O40      1.0000 0.15040  0.65900  0.05670  Biso   1.000  O
  O41      1.0000 0.64440  0.30830  0.59520  Biso   1.000  O
  O42      1.0000 0.85560  0.69170  0.09520  Biso   1.000  O
  O43      1.0000 0.35560  0.80830  0.90480  Biso   1.000  O
  O44      1.0000 0.14440  0.19170  0.40480  Biso   1.000  O
