data_image0
_cell_length_a       12.945
_cell_length_b       15.01
_cell_length_c       16.955
_cell_angle_alpha    90
_cell_angle_beta     90
_cell_angle_gamma    90

_symmetry_space_group_name_H-M    "P 1"
_symmetry_int_tables_number       1

loop_
  _symmetry_equiv_pos_as_xyz
  'x, y, z'

loop_
  _atom_site_label
  _atom_site_occupancy
  _atom_site_fract_x
  _atom_site_fract_y
  _atom_site_fract_z
  _atom_site_thermal_displace_type
  _atom_site_B_iso_or_equiv
  _atom_site_type_symbol
  Gd1      1.0000 0.91310  0.59810  0.91270  Biso   1.000  Gd
  Gd2      1.0000 0.58690  0.40190  0.41270  Biso   1.000  Gd
  Gd3      1.0000 0.08690  0.09810  0.58730  Biso   1.000  Gd
  Gd4      1.0000 0.41310  0.90190  0.08730  Biso   1.000  Gd
  Cu1      1.0000 0.70485  0.44838  0.90903  Biso   1.000  Cu
  Cu2      1.0000 0.79515  0.55162  0.40903  Biso   1.000  Cu
  Cu3      1.0000 0.29515  0.94838  0.59097  Biso   1.000  Cu
  Cu4      1.0000 0.20485  0.05162  0.09097  Biso   1.000  Cu
  Co1      1.0000 0.33530  0.60034  0.90844  Biso   1.000  Co
  Co2      1.0000 0.16470  0.39966  0.40844  Biso   1.000  Co
  Co3      1.0000 0.66470  0.10034  0.59156  Biso   1.000  Co
  Co4      1.0000 0.83530  0.89966  0.09156  Biso   1.000  Co
  N1       1.0000 0.62580  0.39070  0.99390  Biso   1.000  N
  N2       1.0000 0.87420  0.60930  0.49390  Biso   1.000  N
  N3       1.0000 0.37420  0.89070  0.50610  Biso   1.000  N
  N4       1.0000 0.12580  0.10930  0.00610  Biso   1.000  N
  N5       1.0000 0.63310  0.38590  0.82200  Biso   1.000  N
  N6       1.0000 0.86690  0.61410  0.32200  Biso   1.000  N
  N7       1.0000 0.36690  0.88590  0.67800  Biso   1.000  N
  N8       1.0000 0.13310  0.11410  0.17800  Biso   1.000  N
  N9       1.0000 0.10270  0.62820  0.91750  Biso   1.000  N
  N10      1.0000 0.39730  0.37180  0.41750  Biso   1.000  N
  N11      1.0000 0.89730  0.12820  0.58250  Biso   1.000  N
  N12      1.0000 0.60270  0.87180  0.08250  Biso   1.000  N
  N13      1.0000 0.28340  0.42490  0.82470  Biso   1.000  N
  N14      1.0000 0.21660  0.57510  0.32470  Biso   1.000  N
  N15      1.0000 0.71660  0.92490  0.67530  Biso   1.000  N
  N16      1.0000 0.78340  0.07510  0.17530  Biso   1.000  N
  N17      1.0000 0.34380  0.67290  0.74120  Biso   1.000  N
  N18      1.0000 0.15620  0.32710  0.24120  Biso   1.000  N
  N19      1.0000 0.65620  0.17290  0.75880  Biso   1.000  N
  N20      1.0000 0.84380  0.82710  0.25880  Biso   1.000  N
  N21      1.0000 0.56780  0.56710  0.90100  Biso   1.000  N
  N22      1.0000 0.93220  0.43290  0.40100  Biso   1.000  N
  N23      1.0000 0.43220  0.06710  0.59900  Biso   1.000  N
  N24      1.0000 0.06780  0.93290  0.09900  Biso   1.000  N
  N25      1.0000 0.88830  0.72680  0.00710  Biso   1.000  N
  N26      1.0000 0.61170  0.27320  0.50710  Biso   1.000  N
  N27      1.0000 0.11170  0.22680  0.49290  Biso   1.000  N
  N28      1.0000 0.38830  0.77320  0.99290  Biso   1.000  N
  N29      1.0000 0.31530  0.51700  0.06990  Biso   1.000  N
  N30      1.0000 0.18470  0.48300  0.56990  Biso   1.000  N
  N31      1.0000 0.68470  0.01700  0.43010  Biso   1.000  N
  N32      1.0000 0.81530  0.98300  0.93010  Biso   1.000  N
  O1       1.0000 0.79700  0.50750  0.98650  Biso   1.000  O
  O2       1.0000 0.70300  0.49250  0.48650  Biso   1.000  O
  O3       1.0000 0.20300  0.00750  0.51350  Biso   1.000  O
  O4       1.0000 0.29700  0.99250  0.01350  Biso   1.000  O
  O5       1.0000 0.80490  0.50300  0.83670  Biso   1.000  O
  O6       1.0000 0.69510  0.49700  0.33670  Biso   1.000  O
  O7       1.0000 0.19510  0.00300  0.66330  Biso   1.000  O
  O8       1.0000 0.30490  0.99700  0.16330  Biso   1.000  O
  O9       1.0000 0.96900  0.56050  0.05360  Biso   1.000  O
  O10      1.0000 0.53100  0.43950  0.55360  Biso   1.000  O
  O11      1.0000 0.03100  0.06050  0.44640  Biso   1.000  O
  O12      1.0000 0.46900  0.93950  0.94640  Biso   1.000  O
  O13      1.0000 0.97280  0.56630  0.77150  Biso   1.000  O
  O14      1.0000 0.52720  0.43370  0.27150  Biso   1.000  O
  O15      1.0000 0.02720  0.06630  0.72850  Biso   1.000  O
  O16      1.0000 0.47280  0.93370  0.22850  Biso   1.000  O
  O17      1.0000 0.99020  0.45140  0.91280  Biso   1.000  O
  O18      1.0000 0.50980  0.54860  0.41280  Biso   1.000  O
  O19      1.0000 0.00980  0.95140  0.58720  Biso   1.000  O
  O20      1.0000 0.49020  0.04860  0.08720  Biso   1.000  O
  C1       1.0000 0.52040  0.35820  0.98120  Biso   1.000  C
  C2       1.0000 0.97960  0.64180  0.48120  Biso   1.000  C
  C3       1.0000 0.47960  0.85820  0.51880  Biso   1.000  C
  C4       1.0000 0.02040  0.14180  0.01880  Biso   1.000  C
  H1       1.0000 0.47290  0.40960  0.97640  Biso   1.000  H
  H2       1.0000 0.02710  0.59040  0.47640  Biso   1.000  H
  H3       1.0000 0.52710  0.90960  0.52360  Biso   1.000  H
  H4       1.0000 0.97290  0.09040  0.02360  Biso   1.000  H
  H5       1.0000 0.49850  0.32250  0.02740  Biso   1.000  H
  H6       1.0000 0.00150  0.67750  0.52740  Biso   1.000  H
  H7       1.0000 0.50150  0.82250  0.47260  Biso   1.000  H
  H8       1.0000 0.99850  0.17750  0.97260  Biso   1.000  H
  C5       1.0000 0.51280  0.30180  0.90780  Biso   1.000  C
  C6       1.0000 0.98720  0.69820  0.40780  Biso   1.000  C
  C7       1.0000 0.48720  0.80180  0.59220  Biso   1.000  C
  C8       1.0000 0.01280  0.19820  0.09220  Biso   1.000  C
  H9       1.0000 0.56550  0.25410  0.91070  Biso   1.000  H
  H10      1.0000 0.93450  0.74590  0.41070  Biso   1.000  H
  H11      1.0000 0.43450  0.75410  0.58930  Biso   1.000  H
  H12      1.0000 0.06550  0.24590  0.08930  Biso   1.000  H
  H13      1.0000 0.44410  0.27280  0.90670  Biso   1.000  H
  H14      1.0000 0.05590  0.72720  0.40670  Biso   1.000  H
  H15      1.0000 0.55590  0.77280  0.59330  Biso   1.000  H
  H16      1.0000 0.94410  0.22720  0.09330  Biso   1.000  H
  C9       1.0000 0.52750  0.35210  0.83210  Biso   1.000  C
  C10      1.0000 0.97250  0.64790  0.33210  Biso   1.000  C
  C11      1.0000 0.47250  0.85210  0.66790  Biso   1.000  C
  C12      1.0000 0.02750  0.14790  0.16790  Biso   1.000  C
  H17      1.0000 0.51050  0.31240  0.78730  Biso   1.000  H
  H18      1.0000 0.98950  0.68760  0.28730  Biso   1.000  H
  H19      1.0000 0.48950  0.81240  0.71270  Biso   1.000  H
  H20      1.0000 0.01050  0.18760  0.21270  Biso   1.000  H
  H21      1.0000 0.47870  0.40290  0.83090  Biso   1.000  H
  H22      1.0000 0.02130  0.59710  0.33090  Biso   1.000  H
  H23      1.0000 0.52130  0.90290  0.66910  Biso   1.000  H
  H24      1.0000 0.97870  0.09710  0.16910  Biso   1.000  H
  C13      1.0000 0.67300  0.37470  0.75440  Biso   1.000  C
  C14      1.0000 0.82700  0.62530  0.25440  Biso   1.000  C
  C15      1.0000 0.32700  0.87470  0.74560  Biso   1.000  C
  C16      1.0000 0.17300  0.12530  0.24560  Biso   1.000  C
  H25      1.0000 0.63230  0.34240  0.71760  Biso   1.000  H
  H26      1.0000 0.86770  0.65760  0.21760  Biso   1.000  H
  H27      1.0000 0.36770  0.84240  0.78240  Biso   1.000  H
  H28      1.0000 0.13230  0.15760  0.28240  Biso   1.000  H
  C17      1.0000 0.77280  0.40500  0.72600  Biso   1.000  C
  C18      1.0000 0.72720  0.59500  0.22600  Biso   1.000  C
  C19      1.0000 0.22720  0.90500  0.77400  Biso   1.000  C
  C20      1.0000 0.27280  0.09500  0.27400  Biso   1.000  C
  C21      1.0000 0.80690  0.37210  0.65140  Biso   1.000  C
  C22      1.0000 0.69310  0.62790  0.15140  Biso   1.000  C
  C23      1.0000 0.19310  0.87210  0.84860  Biso   1.000  C
  C24      1.0000 0.30690  0.12790  0.34860  Biso   1.000  C
  H29      1.0000 0.76670  0.32920  0.62410  Biso   1.000  H
  H30      1.0000 0.73330  0.67080  0.12410  Biso   1.000  H
  H31      1.0000 0.23330  0.82920  0.87590  Biso   1.000  H
  H32      1.0000 0.26670  0.17080  0.37590  Biso   1.000  H
  C25      1.0000 0.89720  0.40210  0.61880  Biso   1.000  C
  C26      1.0000 0.60280  0.59790  0.11880  Biso   1.000  C
  C27      1.0000 0.10280  0.90210  0.88120  Biso   1.000  C
  C28      1.0000 0.39720  0.09790  0.38120  Biso   1.000  C
  H33      1.0000 0.92020  0.37850  0.56990  Biso   1.000  H
  H34      1.0000 0.57980  0.62150  0.06990  Biso   1.000  H
  H35      1.0000 0.07980  0.87850  0.93010  Biso   1.000  H
  H36      1.0000 0.42020  0.12150  0.43010  Biso   1.000  H
  C29      1.0000 0.95610  0.46780  0.65750  Biso   1.000  C
  C30      1.0000 0.54390  0.53220  0.15750  Biso   1.000  C
  C31      1.0000 0.04390  0.96780  0.84250  Biso   1.000  C
  C32      1.0000 0.45610  0.03220  0.34250  Biso   1.000  C
  H37      1.0000 0.01770  0.48970  0.63410  Biso   1.000  H
  H38      1.0000 0.48230  0.51030  0.13410  Biso   1.000  H
  H39      1.0000 0.98230  0.98970  0.86590  Biso   1.000  H
  H40      1.0000 0.51770  0.01030  0.36590  Biso   1.000  H
  C33      1.0000 0.92320  0.50030  0.73020  Biso   1.000  C
  C34      1.0000 0.57680  0.49970  0.23020  Biso   1.000  C
  C35      1.0000 0.07680  0.00030  0.76980  Biso   1.000  C
  C36      1.0000 0.42320  0.99970  0.26980  Biso   1.000  C
  C37      1.0000 0.83190  0.46860  0.76640  Biso   1.000  C
  C38      1.0000 0.66810  0.53140  0.26640  Biso   1.000  C
  C39      1.0000 0.16810  0.96860  0.73360  Biso   1.000  C
  C40      1.0000 0.33190  0.03140  0.23360  Biso   1.000  C
  C41      1.0000 0.82490  0.46760  0.05460  Biso   1.000  C
  C42      1.0000 0.67510  0.53240  0.55460  Biso   1.000  C
  C43      1.0000 0.17510  0.96760  0.44540  Biso   1.000  C
  C44      1.0000 0.32490  0.03240  0.94540  Biso   1.000  C
  C45      1.0000 0.91650  0.49250  0.09140  Biso   1.000  C
  C46      1.0000 0.58350  0.50750  0.59140  Biso   1.000  C
  C47      1.0000 0.08350  0.99250  0.40860  Biso   1.000  C
  C48      1.0000 0.41650  0.00750  0.90860  Biso   1.000  C
  C49      1.0000 0.95110  0.45190  0.16010  Biso   1.000  C
  C50      1.0000 0.54890  0.54810  0.66010  Biso   1.000  C
  C51      1.0000 0.04890  0.95190  0.33990  Biso   1.000  C
  C52      1.0000 0.45110  0.04810  0.83990  Biso   1.000  C
  H41      1.0000 0.01620  0.46760  0.18200  Biso   1.000  H
  H42      1.0000 0.48380  0.53240  0.68200  Biso   1.000  H
  H43      1.0000 0.98380  0.96760  0.31800  Biso   1.000  H
  H44      1.0000 0.51620  0.03240  0.81800  Biso   1.000  H
  C53      1.0000 0.89040  0.38900  0.19570  Biso   1.000  C
  C54      1.0000 0.60960  0.61100  0.69570  Biso   1.000  C
  C55      1.0000 0.10960  0.88900  0.30430  Biso   1.000  C
  C56      1.0000 0.39040  0.11100  0.80430  Biso   1.000  C
  H45      1.0000 0.91260  0.36190  0.24340  Biso   1.000  H
  H46      1.0000 0.58740  0.63810  0.74340  Biso   1.000  H
  H47      1.0000 0.08740  0.86190  0.25660  Biso   1.000  H
  H48      1.0000 0.41260  0.13810  0.75660  Biso   1.000  H
  C57      1.0000 0.79780  0.36500  0.16290  Biso   1.000  C
  C58      1.0000 0.70220  0.63500  0.66290  Biso   1.000  C
  C59      1.0000 0.20220  0.86500  0.33710  Biso   1.000  C
  C60      1.0000 0.29780  0.13500  0.83710  Biso   1.000  C
  H49      1.0000 0.75560  0.32200  0.18850  Biso   1.000  H
  H50      1.0000 0.74440  0.67800  0.68850  Biso   1.000  H
  H51      1.0000 0.24440  0.82200  0.31150  Biso   1.000  H
  H52      1.0000 0.25560  0.17800  0.81150  Biso   1.000  H
  C61      1.0000 0.76480  0.40280  0.09230  Biso   1.000  C
  C62      1.0000 0.73520  0.59720  0.59230  Biso   1.000  C
  C63      1.0000 0.23520  0.90280  0.40770  Biso   1.000  C
  C64      1.0000 0.26480  0.09720  0.90770  Biso   1.000  C
  C65      1.0000 0.66380  0.37380  0.06250  Biso   1.000  C
  C66      1.0000 0.83620  0.62620  0.56250  Biso   1.000  C
  C67      1.0000 0.33620  0.87380  0.43750  Biso   1.000  C
  C68      1.0000 0.16380  0.12620  0.93750  Biso   1.000  C
  H53      1.0000 0.62240  0.33920  0.09710  Biso   1.000  H
  H54      1.0000 0.87760  0.66080  0.59710  Biso   1.000  H
  H55      1.0000 0.37760  0.83920  0.40290  Biso   1.000  H
  H56      1.0000 0.12240  0.16080  0.90290  Biso   1.000  H
  C69      1.0000 0.05400  0.59950  0.09550  Biso   1.000  C
  C70      1.0000 0.44600  0.40050  0.59550  Biso   1.000  C
  C71      1.0000 0.94600  0.09950  0.40450  Biso   1.000  C
  C72      1.0000 0.55400  0.90050  0.90450  Biso   1.000  C
  H57      1.0000 0.03390  0.61030  0.15040  Biso   1.000  H
  H58      1.0000 0.46610  0.38970  0.65040  Biso   1.000  H
  H59      1.0000 0.96610  0.11030  0.34960  Biso   1.000  H
  H60      1.0000 0.53390  0.88970  0.84960  Biso   1.000  H
  H61      1.0000 0.07310  0.65610  0.07050  Biso   1.000  H
  H62      1.0000 0.42690  0.34390  0.57050  Biso   1.000  H
  H63      1.0000 0.92690  0.15610  0.42950  Biso   1.000  H
  H64      1.0000 0.57310  0.84390  0.92950  Biso   1.000  H
  H65      1.0000 0.11320  0.55880  0.09410  Biso   1.000  H
  H66      1.0000 0.38680  0.44120  0.59410  Biso   1.000  H
  H67      1.0000 0.88680  0.05880  0.40590  Biso   1.000  H
  H68      1.0000 0.61320  0.94120  0.90590  Biso   1.000  H
  C73      1.0000 0.06630  0.59960  0.73340  Biso   1.000  C
  C74      1.0000 0.43370  0.40040  0.23340  Biso   1.000  C
  C75      1.0000 0.93370  0.09960  0.76660  Biso   1.000  C
  C76      1.0000 0.56630  0.90040  0.26660  Biso   1.000  C
  H69      1.0000 0.11650  0.55100  0.72840  Biso   1.000  H
  H70      1.0000 0.38350  0.44900  0.22840  Biso   1.000  H
  H71      1.0000 0.88350  0.05100  0.77160  Biso   1.000  H
  H72      1.0000 0.61650  0.94900  0.27160  Biso   1.000  H
  H73      1.0000 0.09610  0.64760  0.76520  Biso   1.000  H
  H74      1.0000 0.40390  0.35240  0.26520  Biso   1.000  H
  H75      1.0000 0.90390  0.14760  0.73480  Biso   1.000  H
  H76      1.0000 0.59610  0.85240  0.23480  Biso   1.000  H
  H77      1.0000 0.04900  0.62240  0.68080  Biso   1.000  H
  H78      1.0000 0.45100  0.37760  0.18080  Biso   1.000  H
  H79      1.0000 0.95100  0.12240  0.81920  Biso   1.000  H
  H80      1.0000 0.54900  0.87760  0.31920  Biso   1.000  H
  C77      1.0000 0.19060  0.62180  0.91370  Biso   1.000  C
  C78      1.0000 0.30940  0.37820  0.41370  Biso   1.000  C
  C79      1.0000 0.80940  0.12180  0.58630  Biso   1.000  C
  C80      1.0000 0.69060  0.87820  0.08630  Biso   1.000  C
  C81      1.0000 0.30400  0.49070  0.85730  Biso   1.000  C
  C82      1.0000 0.19600  0.50930  0.35730  Biso   1.000  C
  C83      1.0000 0.69600  0.99070  0.64270  Biso   1.000  C
  C84      1.0000 0.80400  0.00930  0.14270  Biso   1.000  C
  C85      1.0000 0.33970  0.64940  0.80590  Biso   1.000  C
  C86      1.0000 0.16030  0.35060  0.30590  Biso   1.000  C
  C87      1.0000 0.66030  0.14940  0.69410  Biso   1.000  C
  C88      1.0000 0.83970  0.85060  0.19410  Biso   1.000  C
  C89      1.0000 0.48180  0.58200  0.90470  Biso   1.000  C
  C90      1.0000 0.01820  0.41800  0.40470  Biso   1.000  C
  C91      1.0000 0.51820  0.08200  0.59530  Biso   1.000  C
  C92      1.0000 0.98180  0.91800  0.09530  Biso   1.000  C
  C93      1.0000 0.86620  0.79080  0.04230  Biso   1.000  C
  C94      1.0000 0.63380  0.20920  0.54230  Biso   1.000  C
  C95      1.0000 0.13380  0.29080  0.45770  Biso   1.000  C
  C96      1.0000 0.36620  0.70920  0.95770  Biso   1.000  C
  C97      1.0000 0.32520  0.54770  0.00900  Biso   1.000  C
  C98      1.0000 0.17480  0.45230  0.50900  Biso   1.000  C
  C99      1.0000 0.67480  0.04770  0.49100  Biso   1.000  C
  C100     1.0000 0.82520  0.95230  0.99100  Biso   1.000  C
  O21      1.0000 0.75020  0.67120  0.88030  Biso   1.000  O
  O22      1.0000 0.74980  0.32880  0.38030  Biso   1.000  O
  O23      1.0000 0.24980  0.17120  0.61970  Biso   1.000  O
  O24      1.0000 0.25020  0.82880  0.11970  Biso   1.000  O
  O25      1.0000 0.94730  0.73750  0.83790  Biso   1.000  O
  O26      1.0000 0.55270  0.26250  0.33790  Biso   1.000  O
  O27      1.0000 0.05270  0.23750  0.66210  Biso   1.000  O
  O28      1.0000 0.44730  0.76250  0.16210  Biso   1.000  O
  O29      1.0000 0.27530  0.65880  0.18180  Biso   1.000  O
  O30      1.0000 0.22470  0.34120  0.68180  Biso   1.000  O
  O31      1.0000 0.72470  0.15880  0.31820  Biso   1.000  O
  O32      1.0000 0.77530  0.84120  0.81820  Biso   1.000  O
  O33      1.0000 0.25520  0.66080  0.59370  Biso   1.000  O
  O34      1.0000 0.24480  0.33920  0.09370  Biso   1.000  O
  O35      1.0000 0.74480  0.16080  0.90630  Biso   1.000  O
  O36      1.0000 0.75520  0.83920  0.40630  Biso   1.000  O
  O37      1.0000 0.15130  0.34060  0.94530  Biso   1.000  O
  O38      1.0000 0.34870  0.65940  0.44530  Biso   1.000  O
  O39      1.0000 0.84870  0.84060  0.55470  Biso   1.000  O
  O40      1.0000 0.65130  0.15940  0.05470  Biso   1.000  O
  O41      1.0000 0.85290  0.31340  0.91590  Biso   1.000  O
  O42      1.0000 0.64710  0.68660  0.41590  Biso   1.000  O
  O43      1.0000 0.14710  0.81340  0.58410  Biso   1.000  O
  O44      1.0000 0.35290  0.18660  0.08410  Biso   1.000  O
