data_image0
_cell_length_a       9.876
_cell_length_b       16.066
_cell_length_c       11.256
_cell_angle_alpha    90
_cell_angle_beta     114.771
_cell_angle_gamma    90

_symmetry_space_group_name_H-M    "P 1"
_symmetry_int_tables_number       1

loop_
  _symmetry_equiv_pos_as_xyz
  'x, y, z'

loop_
  _atom_site_label
  _atom_site_occupancy
  _atom_site_fract_x
  _atom_site_fract_y
  _atom_site_fract_z
  _atom_site_thermal_displace_type
  _atom_site_B_iso_or_equiv
  _atom_site_type_symbol
  Cu1      1.0000 0.06396  0.21467  0.20752  Biso   1.000  Cu
  Cu2      1.0000 0.93604  0.71467  0.29248  Biso   1.000  Cu
  Cu3      1.0000 0.93604  0.78533  0.79248  Biso   1.000  Cu
  Cu4      1.0000 0.06396  0.28533  0.70752  Biso   1.000  Cu
  N1       1.0000 0.94730  0.20230  0.02260  Biso   1.000  N
  N2       1.0000 0.05270  0.70230  0.47740  Biso   1.000  N
  N3       1.0000 0.05270  0.79770  0.97740  Biso   1.000  N
  N4       1.0000 0.94730  0.29770  0.52260  Biso   1.000  N
  N5       1.0000 0.00720  0.14470  0.96590  Biso   1.000  N
  N6       1.0000 0.99280  0.64470  0.53410  Biso   1.000  N
  N7       1.0000 0.99280  0.85530  0.03410  Biso   1.000  N
  N8       1.0000 0.00720  0.35530  0.46590  Biso   1.000  N
  N9       1.0000 0.16410  0.20510  0.39480  Biso   1.000  N
  N10      1.0000 0.83590  0.70510  0.10520  Biso   1.000  N
  N11      1.0000 0.83590  0.79490  0.60520  Biso   1.000  N
  N12      1.0000 0.16410  0.29490  0.89480  Biso   1.000  N
  O1       1.0000 0.93320  0.30140  0.21650  Biso   1.000  O
  O2       1.0000 0.06680  0.80140  0.28350  Biso   1.000  O
  O3       1.0000 0.06680  0.69860  0.78350  Biso   1.000  O
  O4       1.0000 0.93320  0.19860  0.71650  Biso   1.000  O
  O5       1.0000 0.16370  0.11380  0.17200  Biso   1.000  O
  O6       1.0000 0.83630  0.61380  0.32800  Biso   1.000  O
  O7       1.0000 0.83630  0.88620  0.82800  Biso   1.000  O
  O8       1.0000 0.16370  0.38620  0.67200  Biso   1.000  O
  S1       1.0000 0.26780  0.18230  0.66190  Biso   1.000  S
  S2       1.0000 0.73220  0.68230  0.83810  Biso   1.000  S
  S3       1.0000 0.73220  0.81770  0.33810  Biso   1.000  S
  S4       1.0000 0.26780  0.31770  0.16190  Biso   1.000  S
  C1       1.0000 0.74210  0.28960  0.99760  Biso   1.000  C
  C2       1.0000 0.25790  0.78960  0.50240  Biso   1.000  C
  C3       1.0000 0.25790  0.71040  0.00240  Biso   1.000  C
  C4       1.0000 0.74210  0.21040  0.49760  Biso   1.000  C
  C5       1.0000 0.80250  0.32110  0.12460  Biso   1.000  C
  C6       1.0000 0.19750  0.82110  0.37540  Biso   1.000  C
  C7       1.0000 0.19750  0.67890  0.87540  Biso   1.000  C
  C8       1.0000 0.80250  0.17890  0.62460  Biso   1.000  C
  C9       1.0000 0.71690  0.38240  0.15370  Biso   1.000  C
  C10      1.0000 0.28310  0.88240  0.34630  Biso   1.000  C
  C11      1.0000 0.28310  0.61760  0.84630  Biso   1.000  C
  C12      1.0000 0.71690  0.11760  0.65370  Biso   1.000  C
  H1       1.0000 0.75770  0.40970  0.23390  Biso   1.000  H
  H2       1.0000 0.24230  0.90970  0.26610  Biso   1.000  H
  H3       1.0000 0.24230  0.59030  0.76610  Biso   1.000  H
  H4       1.0000 0.75770  0.09030  0.73390  Biso   1.000  H
  C13      1.0000 0.57640  0.40160  0.06620  Biso   1.000  C
  C14      1.0000 0.42360  0.90160  0.43380  Biso   1.000  C
  C15      1.0000 0.42360  0.59840  0.93380  Biso   1.000  C
  C16      1.0000 0.57640  0.09840  0.56620  Biso   1.000  C
  H5       1.0000 0.52070  0.43910  0.09050  Biso   1.000  H
  H6       1.0000 0.47930  0.93910  0.40950  Biso   1.000  H
  H7       1.0000 0.47930  0.56090  0.90950  Biso   1.000  H
  H8       1.0000 0.52070  0.06090  0.59050  Biso   1.000  H
  C17      1.0000 0.51400  0.36730  0.94300  Biso   1.000  C
  C18      1.0000 0.48600  0.86730  0.55700  Biso   1.000  C
  C19      1.0000 0.48600  0.63270  0.05700  Biso   1.000  C
  C20      1.0000 0.51400  0.13270  0.44300  Biso   1.000  C
  H9       1.0000 0.41740  0.38090  0.88440  Biso   1.000  H
  H10      1.0000 0.58260  0.88090  0.61560  Biso   1.000  H
  H11      1.0000 0.58260  0.61910  0.11560  Biso   1.000  H
  H12      1.0000 0.41740  0.11910  0.38440  Biso   1.000  H
  C21      1.0000 0.59690  0.31350  0.90980  Biso   1.000  C
  C22      1.0000 0.40310  0.81350  0.59020  Biso   1.000  C
  C23      1.0000 0.40310  0.68650  0.09020  Biso   1.000  C
  C24      1.0000 0.59690  0.18650  0.40980  Biso   1.000  C
  H13      1.0000 0.55690  0.29130  0.82580  Biso   1.000  H
  H14      1.0000 0.44310  0.79130  0.67420  Biso   1.000  H
  H15      1.0000 0.44310  0.70870  0.17420  Biso   1.000  H
  H16      1.0000 0.55690  0.20870  0.32580  Biso   1.000  H
  C25      1.0000 0.81840  0.23210  0.95270  Biso   1.000  C
  C26      1.0000 0.18160  0.73210  0.54730  Biso   1.000  C
  C27      1.0000 0.18160  0.76790  0.04730  Biso   1.000  C
  C28      1.0000 0.81840  0.26790  0.45270  Biso   1.000  C
  H17      1.0000 0.77140  0.21480  0.86600  Biso   1.000  H
  H18      1.0000 0.22860  0.71480  0.63400  Biso   1.000  H
  H19      1.0000 0.22860  0.78520  0.13400  Biso   1.000  H
  H20      1.0000 0.77140  0.28520  0.36600  Biso   1.000  H
  C29      1.0000 0.12380  0.10330  0.05300  Biso   1.000  C
  C30      1.0000 0.87620  0.60330  0.44700  Biso   1.000  C
  C31      1.0000 0.87620  0.89670  0.94700  Biso   1.000  C
  C32      1.0000 0.12380  0.39670  0.55300  Biso   1.000  C
  C33      1.0000 0.19680  0.04050  0.00050  Biso   1.000  C
  C34      1.0000 0.80320  0.54050  0.49950  Biso   1.000  C
  C35      1.0000 0.80320  0.95950  0.99950  Biso   1.000  C
  C36      1.0000 0.19680  0.45950  0.50050  Biso   1.000  C
  C37      1.0000 0.14050  0.02190  0.86810  Biso   1.000  C
  C38      1.0000 0.85950  0.52190  0.63190  Biso   1.000  C
  C39      1.0000 0.85950  0.97810  0.13190  Biso   1.000  C
  C40      1.0000 0.14050  0.47810  0.36810  Biso   1.000  C
  H21      1.0000 0.05710  0.05020  0.80960  Biso   1.000  H
  H22      1.0000 0.94290  0.55020  0.69040  Biso   1.000  H
  H23      1.0000 0.94290  0.94980  0.19040  Biso   1.000  H
  H24      1.0000 0.05710  0.44980  0.30960  Biso   1.000  H
  C41      1.0000 0.20560  0.96300  0.82290  Biso   1.000  C
  C42      1.0000 0.79440  0.46300  0.67710  Biso   1.000  C
  C43      1.0000 0.79440  0.03700  0.17710  Biso   1.000  C
  C44      1.0000 0.20560  0.53700  0.32290  Biso   1.000  C
  C45      1.0000 0.32800  0.92100  0.90940  Biso   1.000  C
  C46      1.0000 0.67200  0.42100  0.59060  Biso   1.000  C
  C47      1.0000 0.67200  0.07900  0.09060  Biso   1.000  C
  C48      1.0000 0.32800  0.57900  0.40940  Biso   1.000  C
  H25      1.0000 0.37330  0.88040  0.87960  Biso   1.000  H
  H26      1.0000 0.62670  0.38040  0.62040  Biso   1.000  H
  H27      1.0000 0.62670  0.11960  0.12040  Biso   1.000  H
  H28      1.0000 0.37330  0.61960  0.37960  Biso   1.000  H
  C49      1.0000 0.38240  0.93910  0.03870  Biso   1.000  C
  C50      1.0000 0.61760  0.43910  0.46130  Biso   1.000  C
  C51      1.0000 0.61760  0.06090  0.96130  Biso   1.000  C
  C52      1.0000 0.38240  0.56090  0.53870  Biso   1.000  C
  H29      1.0000 0.46460  0.90970  0.09670  Biso   1.000  H
  H30      1.0000 0.53540  0.40970  0.40330  Biso   1.000  H
  H31      1.0000 0.53540  0.09030  0.90330  Biso   1.000  H
  H32      1.0000 0.46460  0.59030  0.59670  Biso   1.000  H
  C53      1.0000 0.32010  0.99970  0.08760  Biso   1.000  C
  C54      1.0000 0.67990  0.49970  0.41240  Biso   1.000  C
  C55      1.0000 0.67990  0.00030  0.91240  Biso   1.000  C
  C56      1.0000 0.32010  0.50030  0.58760  Biso   1.000  C
  H33      1.0000 0.36040  0.01220  0.17650  Biso   1.000  H
  H34      1.0000 0.63960  0.51220  0.32350  Biso   1.000  H
  H35      1.0000 0.63960  0.98780  0.82350  Biso   1.000  H
  H36      1.0000 0.36040  0.48780  0.67650  Biso   1.000  H
  C57      1.0000 0.14600  0.94790  0.67730  Biso   1.000  C
  C58      1.0000 0.85400  0.44790  0.82270  Biso   1.000  C
  C59      1.0000 0.85400  0.05210  0.32270  Biso   1.000  C
  C60      1.0000 0.14600  0.55210  0.17730  Biso   1.000  C
  H37      1.0000 0.05360  0.97690  0.63330  Biso   1.000  H
  H38      1.0000 0.94640  0.47690  0.86670  Biso   1.000  H
  H39      1.0000 0.94640  0.02310  0.36670  Biso   1.000  H
  H40      1.0000 0.05360  0.52310  0.13330  Biso   1.000  H
  H41      1.0000 0.13050  0.88930  0.66000  Biso   1.000  H
  H42      1.0000 0.86950  0.38930  0.84000  Biso   1.000  H
  H43      1.0000 0.86950  0.11070  0.34000  Biso   1.000  H
  H44      1.0000 0.13050  0.61070  0.16000  Biso   1.000  H
  H45      1.0000 0.21720  0.96770  0.64610  Biso   1.000  H
  H46      1.0000 0.78280  0.46770  0.85390  Biso   1.000  H
  H47      1.0000 0.78280  0.03230  0.35390  Biso   1.000  H
  H48      1.0000 0.21720  0.53230  0.14610  Biso   1.000  H
  C61      1.0000 0.20840  0.19510  0.50670  Biso   1.000  C
  C62      1.0000 0.79160  0.69510  0.99330  Biso   1.000  C
  C63      1.0000 0.79160  0.80490  0.49330  Biso   1.000  C
  C64      1.0000 0.20840  0.30490  0.00670  Biso   1.000  C
  H49      1.0000 0.99500  0.16100  0.88600  Biso   1.000  H
  H50      1.0000 0.00500  0.66100  0.61400  Biso   1.000  H
  H51      1.0000 0.00500  0.83900  0.11400  Biso   1.000  H
  H52      1.0000 0.99500  0.33900  0.38600  Biso   1.000  H
