data_image0
_cell_length_a       13.692
_cell_length_b       12.039
_cell_length_c       16.888
_cell_angle_alpha    90
_cell_angle_beta     90.01
_cell_angle_gamma    90

_symmetry_space_group_name_H-M    "P 1"
_symmetry_int_tables_number       1

loop_
  _symmetry_equiv_pos_as_xyz
  'x, y, z'

loop_
  _atom_site_label
  _atom_site_occupancy
  _atom_site_fract_x
  _atom_site_fract_y
  _atom_site_fract_z
  _atom_site_thermal_displace_type
  _atom_site_B_iso_or_equiv
  _atom_site_type_symbol
  Cu1      1.0000 0.91804  0.72356  0.23325  Biso   1.000  Cu
  Cu2      1.0000 0.58196  0.22356  0.26675  Biso   1.000  Cu
  Cu3      1.0000 0.08196  0.27644  0.76675  Biso   1.000  Cu
  Cu4      1.0000 0.41804  0.77644  0.73325  Biso   1.000  Cu
  Cu5      1.0000 0.47073  0.68886  0.25020  Biso   1.000  Cu
  Cu6      1.0000 0.02927  0.18886  0.24980  Biso   1.000  Cu
  Cu7      1.0000 0.52927  0.31114  0.74980  Biso   1.000  Cu
  Cu8      1.0000 0.97073  0.81114  0.75020  Biso   1.000  Cu
  O1       1.0000 0.01319  0.68780  0.15109  Biso   1.000  O
  O2       1.0000 0.48681  0.18780  0.34891  Biso   1.000  O
  O3       1.0000 0.98681  0.31220  0.84891  Biso   1.000  O
  O4       1.0000 0.51319  0.81220  0.65109  Biso   1.000  O
  O5       1.0000 0.09910  0.83510  0.18241  Biso   1.000  O
  O6       1.0000 0.40090  0.33510  0.31759  Biso   1.000  O
  O7       1.0000 0.90090  0.16490  0.81759  Biso   1.000  O
  O8       1.0000 0.59910  0.66490  0.68241  Biso   1.000  O
  C1       1.0000 0.08460  0.75250  0.14250  Biso   1.000  C
  C2       1.0000 0.41540  0.25250  0.35750  Biso   1.000  C
  C3       1.0000 0.91540  0.24750  0.85750  Biso   1.000  C
  C4       1.0000 0.58460  0.74750  0.64250  Biso   1.000  C
  O9       1.0000 0.06000  0.80360  0.83887  Biso   1.000  O
  O10      1.0000 0.44000  0.30360  0.66113  Biso   1.000  O
  O11      1.0000 0.94000  0.19640  0.16113  Biso   1.000  O
  O12      1.0000 0.56000  0.69640  0.33887  Biso   1.000  O
  O13      1.0000 0.13040  0.64630  0.80389  Biso   1.000  O
  O14      1.0000 0.36960  0.14630  0.69611  Biso   1.000  O
  O15      1.0000 0.86960  0.35370  0.19611  Biso   1.000  O
  O16      1.0000 0.63040  0.85370  0.30389  Biso   1.000  O
  C5       1.0000 0.11520  0.72220  0.85110  Biso   1.000  C
  C6       1.0000 0.38480  0.22220  0.64890  Biso   1.000  C
  C7       1.0000 0.88480  0.27780  0.14890  Biso   1.000  C
  C8       1.0000 0.61520  0.77780  0.35110  Biso   1.000  C
  C9       1.0000 0.16450  0.71890  0.93049  Biso   1.000  C
  C10      1.0000 0.33550  0.21890  0.56951  Biso   1.000  C
  C11      1.0000 0.83550  0.28110  0.06951  Biso   1.000  C
  C12      1.0000 0.66450  0.78110  0.43049  Biso   1.000  C
  C13      1.0000 0.11030  0.73910  0.99750  Biso   1.000  C
  C14      1.0000 0.38970  0.23910  0.50250  Biso   1.000  C
  C15      1.0000 0.88970  0.26090  0.00250  Biso   1.000  C
  C16      1.0000 0.61030  0.76090  0.49750  Biso   1.000  C
  H1       1.0000 0.04570  0.76170  0.99220  Biso   1.000  H
  H2       1.0000 0.45430  0.26170  0.50780  Biso   1.000  H
  H3       1.0000 0.95430  0.23830  0.00780  Biso   1.000  H
  H4       1.0000 0.54570  0.73830  0.49220  Biso   1.000  H
  C17      1.0000 0.14930  0.72670  0.07288  Biso   1.000  C
  C18      1.0000 0.35070  0.22670  0.42712  Biso   1.000  C
  C19      1.0000 0.85070  0.27330  0.92712  Biso   1.000  C
  C20      1.0000 0.64930  0.77330  0.57288  Biso   1.000  C
  O17      1.0000 0.38106  0.70240  0.16307  Biso   1.000  O
  O18      1.0000 0.11894  0.20240  0.33693  Biso   1.000  O
  O19      1.0000 0.61894  0.29760  0.83693  Biso   1.000  O
  O20      1.0000 0.88106  0.79760  0.66307  Biso   1.000  O
  O21      1.0000 0.24120  0.64620  0.21563  Biso   1.000  O
  O22      1.0000 0.25880  0.14620  0.28437  Biso   1.000  O
  O23      1.0000 0.75880  0.35380  0.78437  Biso   1.000  O
  O24      1.0000 0.74120  0.85380  0.71563  Biso   1.000  O
  C21      1.0000 0.30090  0.67420  0.01307  Biso   1.000  C
  C22      1.0000 0.19910  0.17420  0.48693  Biso   1.000  C
  C23      1.0000 0.69910  0.32580  0.98693  Biso   1.000  C
  C24      1.0000 0.80090  0.82580  0.51307  Biso   1.000  C
  H5       1.0000 0.36560  0.65180  0.01830  Biso   1.000  H
  H6       1.0000 0.13440  0.15180  0.48170  Biso   1.000  H
  H7       1.0000 0.63440  0.34820  0.98170  Biso   1.000  H
  H8       1.0000 0.86560  0.84820  0.51830  Biso   1.000  H
  C25      1.0000 0.26150  0.68670  0.93823  Biso   1.000  C
  C26      1.0000 0.23850  0.18670  0.56177  Biso   1.000  C
  C27      1.0000 0.73850  0.31330  0.06177  Biso   1.000  C
  C28      1.0000 0.76150  0.81330  0.43823  Biso   1.000  C
  N1       1.0000 0.84750  0.82510  0.15856  Biso   1.000  N
  N2       1.0000 0.65250  0.32510  0.34144  Biso   1.000  N
  N3       1.0000 0.15250  0.17490  0.84144  Biso   1.000  N
  N4       1.0000 0.34750  0.67490  0.65856  Biso   1.000  N
  C29      1.0000 0.78650  0.85970  0.02880  Biso   1.000  C
  C30      1.0000 0.71350  0.35970  0.47120  Biso   1.000  C
  C31      1.0000 0.21350  0.14030  0.97120  Biso   1.000  C
  C32      1.0000 0.28650  0.64030  0.52880  Biso   1.000  C
  H9       1.0000 0.78270  0.83860  0.97590  Biso   1.000  H
  H10      1.0000 0.71730  0.33860  0.52410  Biso   1.000  H
  H11      1.0000 0.21730  0.16140  0.02410  Biso   1.000  H
  H12      1.0000 0.28270  0.66140  0.47590  Biso   1.000  H
  C33      1.0000 0.24580  0.69420  0.08057  Biso   1.000  C
  C34      1.0000 0.25420  0.19420  0.41943  Biso   1.000  C
  C35      1.0000 0.75420  0.30580  0.91943  Biso   1.000  C
  C36      1.0000 0.74580  0.80580  0.58057  Biso   1.000  C
  C37      1.0000 0.83870  0.79790  0.08190  Biso   1.000  C
  C38      1.0000 0.66130  0.29790  0.41810  Biso   1.000  C
  C39      1.0000 0.16130  0.20210  0.91810  Biso   1.000  C
  C40      1.0000 0.33870  0.70210  0.58190  Biso   1.000  C
  H13      1.0000 0.86970  0.73390  0.06400  Biso   1.000  H
  H14      1.0000 0.63030  0.23390  0.43600  Biso   1.000  H
  H15      1.0000 0.13030  0.26610  0.93600  Biso   1.000  H
  H16      1.0000 0.36970  0.76610  0.56400  Biso   1.000  H
  C41      1.0000 0.80450  0.91840  0.18290  Biso   1.000  C
  C42      1.0000 0.69550  0.41840  0.31710  Biso   1.000  C
  C43      1.0000 0.19550  0.08160  0.81710  Biso   1.000  C
  C44      1.0000 0.30450  0.58160  0.68290  Biso   1.000  C
  H17      1.0000 0.81120  0.93920  0.23560  Biso   1.000  H
  H18      1.0000 0.68880  0.43920  0.26440  Biso   1.000  H
  H19      1.0000 0.18880  0.06080  0.76440  Biso   1.000  H
  H20      1.0000 0.31120  0.56080  0.73560  Biso   1.000  H
  C45      1.0000 0.29170  0.67920  0.16060  Biso   1.000  C
  C46      1.0000 0.20830  0.17920  0.33940  Biso   1.000  C
  C47      1.0000 0.70830  0.32080  0.83940  Biso   1.000  C
  C48      1.0000 0.79170  0.82080  0.66060  Biso   1.000  C
  S1       1.0000 0.67305  0.04514  0.99540  Biso   1.000  S
  S2       1.0000 0.82695  0.54514  0.50460  Biso   1.000  S
  S3       1.0000 0.32695  0.95486  0.00460  Biso   1.000  S
  S4       1.0000 0.17305  0.45486  0.49540  Biso   1.000  S
  O25      1.0000 0.38669  0.59580  0.86751  Biso   1.000  O
  O26      1.0000 0.11331  0.09580  0.63249  Biso   1.000  O
  O27      1.0000 0.61331  0.40420  0.13249  Biso   1.000  O
  O28      1.0000 0.88669  0.90420  0.36751  Biso   1.000  O
  C49      1.0000 0.75100  0.98490  0.13340  Biso   1.000  C
  C50      1.0000 0.74900  0.48490  0.36660  Biso   1.000  C
  C51      1.0000 0.24900  0.01510  0.86660  Biso   1.000  C
  C52      1.0000 0.25100  0.51510  0.63340  Biso   1.000  C
  H21      1.0000 0.72270  0.04990  0.15230  Biso   1.000  H
  H22      1.0000 0.77730  0.54990  0.34770  Biso   1.000  H
  H23      1.0000 0.27730  0.95010  0.84770  Biso   1.000  H
  H24      1.0000 0.22270  0.45010  0.65230  Biso   1.000  H
  C53      1.0000 0.32840  0.67460  0.86879  Biso   1.000  C
  C54      1.0000 0.17160  0.17460  0.63121  Biso   1.000  C
  C55      1.0000 0.67160  0.32540  0.13121  Biso   1.000  C
  C56      1.0000 0.82840  0.82540  0.36879  Biso   1.000  C
  C57      1.0000 0.73960  0.95410  0.05530  Biso   1.000  C
  C58      1.0000 0.76040  0.45410  0.44470  Biso   1.000  C
  C59      1.0000 0.26040  0.04590  0.94470  Biso   1.000  C
  C60      1.0000 0.23960  0.54590  0.55530  Biso   1.000  C
  C61      1.0000 0.59090  0.85230  0.93320  Biso   1.000  C
  C62      1.0000 0.90910  0.35230  0.56680  Biso   1.000  C
  C63      1.0000 0.40910  0.14770  0.06680  Biso   1.000  C
  C64      1.0000 0.09090  0.64770  0.43320  Biso   1.000  C
  H25      1.0000 0.61330  0.81200  0.97660  Biso   1.000  H
  H26      1.0000 0.88670  0.31200  0.52340  Biso   1.000  H
  H27      1.0000 0.38670  0.18800  0.02340  Biso   1.000  H
  H28      1.0000 0.11330  0.68800  0.47660  Biso   1.000  H
  C65      1.0000 0.61090  0.96290  0.92650  Biso   1.000  C
  C66      1.0000 0.88910  0.46290  0.57350  Biso   1.000  C
  C67      1.0000 0.38910  0.03710  0.07350  Biso   1.000  C
  C68      1.0000 0.11090  0.53710  0.42650  Biso   1.000  C
  O29      1.0000 0.32352  0.75050  0.81753  Biso   1.000  O
  O30      1.0000 0.17648  0.25050  0.68247  Biso   1.000  O
  O31      1.0000 0.67648  0.24950  0.18247  Biso   1.000  O
  O32      1.0000 0.82352  0.74950  0.31753  Biso   1.000  O
  C69      1.0000 0.53750  0.80170  0.87530  Biso   1.000  C
  C70      1.0000 0.96250  0.30170  0.62470  Biso   1.000  C
  C71      1.0000 0.46250  0.19830  0.12470  Biso   1.000  C
  C72      1.0000 0.03750  0.69830  0.37530  Biso   1.000  C
  H29      1.0000 0.52570  0.72590  0.87990  Biso   1.000  H
  H30      1.0000 0.97430  0.22590  0.62010  Biso   1.000  H
  H31      1.0000 0.47430  0.27410  0.12010  Biso   1.000  H
  H32      1.0000 0.02570  0.77410  0.37990  Biso   1.000  H
  C73      1.0000 0.57400  0.01850  0.86200  Biso   1.000  C
  C74      1.0000 0.92600  0.51850  0.63800  Biso   1.000  C
  C75      1.0000 0.42600  0.98150  0.13800  Biso   1.000  C
  C76      1.0000 0.07400  0.48150  0.36200  Biso   1.000  C
  H33      1.0000 0.58570  0.09400  0.85550  Biso   1.000  H
  H34      1.0000 0.91430  0.59400  0.64450  Biso   1.000  H
  H35      1.0000 0.41430  0.90600  0.14450  Biso   1.000  H
  H36      1.0000 0.08570  0.40600  0.35550  Biso   1.000  H
  C77      1.0000 0.52020  0.96190  0.80790  Biso   1.000  C
  C78      1.0000 0.97980  0.46190  0.69210  Biso   1.000  C
  C79      1.0000 0.47980  0.03810  0.19210  Biso   1.000  C
  C80      1.0000 0.02020  0.53810  0.30790  Biso   1.000  C
  H37      1.0000 0.49490  0.00090  0.76490  Biso   1.000  H
  H38      1.0000 0.00510  0.50090  0.73510  Biso   1.000  H
  H39      1.0000 0.50510  0.99910  0.23510  Biso   1.000  H
  H40      1.0000 0.99490  0.49910  0.26490  Biso   1.000  H
  N5       1.0000 0.50170  0.85410  0.81300  Biso   1.000  N
  N6       1.0000 0.99830  0.35410  0.68700  Biso   1.000  N
  N7       1.0000 0.49830  0.14590  0.18700  Biso   1.000  N
  N8       1.0000 0.00170  0.64590  0.31300  Biso   1.000  N
  O33      1.0000 0.82700  0.57640  0.18862  Biso   1.000  O
  O34      1.0000 0.67300  0.07640  0.31138  Biso   1.000  O
  O35      1.0000 0.17300  0.42360  0.81138  Biso   1.000  O
  O36      1.0000 0.32700  0.92360  0.68862  Biso   1.000  O
  H41      1.0000 0.78260  0.57860  0.15890  Biso   1.000  H
  H42      1.0000 0.71740  0.07860  0.34110  Biso   1.000  H
  H43      1.0000 0.21740  0.42140  0.84110  Biso   1.000  H
  H44      1.0000 0.28260  0.92140  0.65890  Biso   1.000  H
  H45      1.0000 0.83920  0.50620  0.18160  Biso   1.000  H
  H46      1.0000 0.66080  0.00620  0.31840  Biso   1.000  H
  H47      1.0000 0.16080  0.49380  0.81840  Biso   1.000  H
  H48      1.0000 0.33920  0.99380  0.68160  Biso   1.000  H
  O37      1.0000 0.48680  0.51190  0.23304  Biso   1.000  O
  O38      1.0000 0.01320  0.01190  0.26696  Biso   1.000  O
  O39      1.0000 0.51320  0.48810  0.76696  Biso   1.000  O
  O40      1.0000 0.98680  0.98810  0.73304  Biso   1.000  O
  H49      1.0000 0.53170  0.48780  0.20420  Biso   1.000  H
  H50      1.0000 0.96830  0.98780  0.29580  Biso   1.000  H
  H51      1.0000 0.46830  0.51220  0.79580  Biso   1.000  H
  H52      1.0000 0.03170  0.01220  0.70420  Biso   1.000  H
  H53      1.0000 0.47100  0.46640  0.26900  Biso   1.000  H
  H54      1.0000 0.02900  0.96640  0.23100  Biso   1.000  H
  H55      1.0000 0.52900  0.53360  0.73100  Biso   1.000  H
  H56      1.0000 0.97100  0.03360  0.76900  Biso   1.000  H
  O41      1.0000 0.57380  0.74580  0.17228  Biso   1.000  O
  O42      1.0000 0.92620  0.24580  0.32772  Biso   1.000  O
  O43      1.0000 0.42620  0.25420  0.82772  Biso   1.000  O
  O44      1.0000 0.07380  0.75420  0.67228  Biso   1.000  O
  H57      1.0000 0.60010  0.77400  0.20560  Biso   1.000  H
  H58      1.0000 0.89990  0.27400  0.29440  Biso   1.000  H
  H59      1.0000 0.39990  0.22600  0.79440  Biso   1.000  H
  H60      1.0000 0.10010  0.72600  0.70560  Biso   1.000  H
  H61      1.0000 0.52660  0.73640  0.14760  Biso   1.000  H
  H62      1.0000 0.97340  0.23640  0.35240  Biso   1.000  H
  H63      1.0000 0.47340  0.26360  0.85240  Biso   1.000  H
  H64      1.0000 0.02660  0.76360  0.64760  Biso   1.000  H
  O45      1.0000 0.36620  0.67600  0.32920  Biso   1.000  O
  O46      1.0000 0.13380  0.17600  0.17080  Biso   1.000  O
  O47      1.0000 0.63380  0.32400  0.67080  Biso   1.000  O
  O48      1.0000 0.86620  0.82400  0.82920  Biso   1.000  O
  H65      1.0000 0.35310  0.73820  0.34950  Biso   1.000  H
  H66      1.0000 0.14690  0.23820  0.15050  Biso   1.000  H
  H67      1.0000 0.64690  0.26180  0.65050  Biso   1.000  H
  H68      1.0000 0.85310  0.76180  0.84950  Biso   1.000  H
  H69      1.0000 0.32370  0.64860  0.29980  Biso   1.000  H
  H70      1.0000 0.17630  0.14860  0.20020  Biso   1.000  H
  H71      1.0000 0.67630  0.35140  0.70020  Biso   1.000  H
  H72      1.0000 0.82370  0.85140  0.79980  Biso   1.000  H
  O49      1.0000 0.32930  0.39620  0.92490  Biso   1.000  O
  O50      1.0000 0.17070  0.89620  0.57510  Biso   1.000  O
  O51      1.0000 0.67070  0.60380  0.07510  Biso   1.000  O
  O52      1.0000 0.82930  0.10380  0.42490  Biso   1.000  O
  H73      1.0000 0.35100  0.46160  0.91810  Biso   1.000  H
  H74      1.0000 0.14900  0.96160  0.58190  Biso   1.000  H
  H75      1.0000 0.64900  0.53840  0.08190  Biso   1.000  H
  H76      1.0000 0.85100  0.03840  0.41810  Biso   1.000  H
  H77      1.0000 0.35970  0.34440  0.90150  Biso   1.000  H
  H78      1.0000 0.14030  0.84440  0.59850  Biso   1.000  H
  H79      1.0000 0.64030  0.65560  0.09850  Biso   1.000  H
  H80      1.0000 0.85970  0.15560  0.40150  Biso   1.000  H
  O53      1.0000 0.03170  0.48000  0.07630  Biso   1.000  O
  O54      1.0000 0.46830  0.98000  0.42370  Biso   1.000  O
  O55      1.0000 0.96830  0.52000  0.92370  Biso   1.000  O
  O56      1.0000 0.53170  0.02000  0.57630  Biso   1.000  O
  H81      1.0000 0.01920  0.53960  0.09930  Biso   1.000  H
  H82      1.0000 0.48080  0.03960  0.40070  Biso   1.000  H
  H83      1.0000 0.98080  0.46040  0.90070  Biso   1.000  H
  H84      1.0000 0.51920  0.96040  0.59930  Biso   1.000  H
  H85      1.0000 0.08780  0.45470  0.06920  Biso   1.000  H
  H86      1.0000 0.41220  0.95470  0.43080  Biso   1.000  H
  H87      1.0000 0.91220  0.54530  0.93080  Biso   1.000  H
  H88      1.0000 0.58780  0.04530  0.56920  Biso   1.000  H
  O57      1.0000 0.25150  0.90770  0.28030  Biso   1.000  O
  O58      1.0000 0.24850  0.40770  0.21970  Biso   1.000  O
  O59      1.0000 0.74850  0.09230  0.71970  Biso   1.000  O
  O60      1.0000 0.75150  0.59230  0.78030  Biso   1.000  O
  H89      1.0000 0.25600  0.98270  0.28340  Biso   1.000  H
  H90      1.0000 0.24400  0.48270  0.21660  Biso   1.000  H
  H91      1.0000 0.74400  0.01730  0.71660  Biso   1.000  H
  H92      1.0000 0.75600  0.51730  0.78340  Biso   1.000  H
  H93      1.0000 0.20950  0.87660  0.24500  Biso   1.000  H
  H94      1.0000 0.29050  0.37660  0.25500  Biso   1.000  H
  H95      1.0000 0.79050  0.12340  0.75500  Biso   1.000  H
  H96      1.0000 0.70950  0.62340  0.74500  Biso   1.000  H
  O61      1.0000 0.47720  0.51490  0.42800  Biso   1.000  O
  O62      1.0000 0.02280  0.01490  0.07200  Biso   1.000  O
  O63      1.0000 0.52280  0.48510  0.57200  Biso   1.000  O
  O64      1.0000 0.97720  0.98510  0.92800  Biso   1.000  O
  H97      1.0000 0.45470  0.45440  0.39170  Biso   1.000  H
  H98      1.0000 0.04530  0.95440  0.10830  Biso   1.000  H
  H99      1.0000 0.54530  0.54560  0.60830  Biso   1.000  H
  H100     1.0000 0.95470  0.04560  0.89170  Biso   1.000  H
  H101     1.0000 0.50850  0.57750  0.40180  Biso   1.000  H
  H102     1.0000 0.99150  0.07750  0.09820  Biso   1.000  H
  H103     1.0000 0.49150  0.42250  0.59820  Biso   1.000  H
  H104     1.0000 0.00850  0.92250  0.90180  Biso   1.000  H
  O65      1.0000 0.21540  0.38160  0.06350  Biso   1.000  O
  O66      1.0000 0.28460  0.88160  0.43650  Biso   1.000  O
  O67      1.0000 0.78460  0.61840  0.93650  Biso   1.000  O
  O68      1.0000 0.71540  0.11840  0.56350  Biso   1.000  O
  H105     1.0000 0.24680  0.39760  0.10050  Biso   1.000  H
  H106     1.0000 0.25320  0.89760  0.39950  Biso   1.000  H
  H107     1.0000 0.75320  0.60240  0.89950  Biso   1.000  H
  H108     1.0000 0.74680  0.10240  0.60050  Biso   1.000  H
  H109     1.0000 0.24190  0.40630  0.01890  Biso   1.000  H
  H110     1.0000 0.25810  0.90630  0.48110  Biso   1.000  H
  H111     1.0000 0.75810  0.59370  0.98110  Biso   1.000  H
  H112     1.0000 0.74190  0.09370  0.51890  Biso   1.000  H
