data_image0
_cell_length_a       8.2483
_cell_length_b       9.7341
_cell_length_c       20.871
_cell_angle_alpha    77.325
_cell_angle_beta     81.574
_cell_angle_gamma    81.341

_symmetry_space_group_name_H-M    "P 1"
_symmetry_int_tables_number       1

loop_
  _symmetry_equiv_pos_as_xyz
  'x, y, z'

loop_
  _atom_site_label
  _atom_site_occupancy
  _atom_site_fract_x
  _atom_site_fract_y
  _atom_site_fract_z
  _atom_site_thermal_displace_type
  _atom_site_B_iso_or_equiv
  _atom_site_type_symbol
  Ba1      1.0000 0.41775  0.13768  0.41205  Biso   1.000  Ba
  Ba2      1.0000 0.58225  0.86232  0.58795  Biso   1.000  Ba
  Cu1      1.0000 0.40577  0.76115  0.30851  Biso   1.000  Cu
  Cu2      1.0000 0.59423  0.23885  0.69149  Biso   1.000  Cu
  Cu3      1.0000 0.84929  0.73867  0.26547  Biso   1.000  Cu
  Cu4      1.0000 0.15071  0.26133  0.73453  Biso   1.000  Cu
  N1       1.0000 0.38580  0.62150  0.25970  Biso   1.000  N
  N2       1.0000 0.61420  0.37850  0.74030  Biso   1.000  N
  N3       1.0000 0.54050  0.61680  0.35830  Biso   1.000  N
  N4       1.0000 0.45950  0.38320  0.64170  Biso   1.000  N
  N5       1.0000 0.71430  0.88770  0.21200  Biso   1.000  N
  N6       1.0000 0.28570  0.11230  0.78800  Biso   1.000  N
  N7       1.0000 0.84970  0.87320  0.31700  Biso   1.000  N
  N8       1.0000 0.15030  0.12680  0.68300  Biso   1.000  N
  C1       1.0000 0.21020  0.89920  0.20730  Biso   1.000  C
  C2       1.0000 0.78980  0.10080  0.79270  Biso   1.000  C
  C3       1.0000 0.13560  0.03060  0.17160  Biso   1.000  C
  C4       1.0000 0.86440  0.96940  0.82840  Biso   1.000  C
  H1       1.0000 0.12900  0.11250  0.18840  Biso   1.000  H
  H2       1.0000 0.87100  0.88750  0.81160  Biso   1.000  H
  C5       1.0000 0.07530  0.03830  0.11470  Biso   1.000  C
  C6       1.0000 0.92470  0.96170  0.88530  Biso   1.000  C
  H3       1.0000 0.02780  0.12500  0.09240  Biso   1.000  H
  H4       1.0000 0.97220  0.87500  0.90760  Biso   1.000  H
  C7       1.0000 0.08350  0.91820  0.08930  Biso   1.000  C
  C8       1.0000 0.91650  0.08180  0.91070  Biso   1.000  C
  H5       1.0000 0.04140  0.92480  0.04960  Biso   1.000  H
  H6       1.0000 0.95860  0.07520  0.95040  Biso   1.000  H
  C9       1.0000 0.15120  0.79100  0.12070  Biso   1.000  C
  C10      1.0000 0.84880  0.20900  0.87930  Biso   1.000  C
  H7       1.0000 0.15420  0.71150  0.10250  Biso   1.000  H
  H8       1.0000 0.84580  0.28850  0.89750  Biso   1.000  H
  C11      1.0000 0.21890  0.77600  0.18180  Biso   1.000  C
  C12      1.0000 0.78110  0.22400  0.81820  Biso   1.000  C
  C13      1.0000 0.29290  0.63490  0.21280  Biso   1.000  C
  C14      1.0000 0.70710  0.36510  0.78720  Biso   1.000  C
  C15      1.0000 0.25130  0.50830  0.19040  Biso   1.000  C
  C16      1.0000 0.74870  0.49170  0.80960  Biso   1.000  C
  H9       1.0000 0.23990  0.43070  0.22820  Biso   1.000  H
  H10      1.0000 0.76010  0.56930  0.77180  Biso   1.000  H
  H11      1.0000 0.14610  0.53280  0.17260  Biso   1.000  H
  H12      1.0000 0.85390  0.46720  0.82740  Biso   1.000  H
  C17      1.0000 0.38150  0.45990  0.13830  Biso   1.000  C
  C18      1.0000 0.61850  0.54010  0.86170  Biso   1.000  C
  H13      1.0000 0.40030  0.53860  0.10250  Biso   1.000  H
  H14      1.0000 0.59970  0.46140  0.89750  Biso   1.000  H
  H15      1.0000 0.34440  0.38650  0.12210  Biso   1.000  H
  H16      1.0000 0.65560  0.61350  0.87790  Biso   1.000  H
  H17      1.0000 0.48240  0.42380  0.15740  Biso   1.000  H
  H18      1.0000 0.51760  0.57620  0.84260  Biso   1.000  H
  C19      1.0000 0.45830  0.48320  0.29070  Biso   1.000  C
  C20      1.0000 0.54170  0.51680  0.70930  Biso   1.000  C
  H19      1.0000 0.54480  0.44660  0.25980  Biso   1.000  H
  H20      1.0000 0.45520  0.55340  0.74020  Biso   1.000  H
  H21      1.0000 0.37470  0.41880  0.30200  Biso   1.000  H
  H22      1.0000 0.62530  0.58120  0.69800  Biso   1.000  H
  C21      1.0000 0.53070  0.48930  0.35320  Biso   1.000  C
  C22      1.0000 0.46930  0.51070  0.64680  Biso   1.000  C
  C23      1.0000 0.58000  0.64830  0.41810  Biso   1.000  C
  C24      1.0000 0.42000  0.35170  0.58190  Biso   1.000  C
  H23      1.0000 0.69830  0.63010  0.41980  Biso   1.000  H
  H24      1.0000 0.30170  0.36990  0.58020  Biso   1.000  H
  H25      1.0000 0.52650  0.58860  0.45640  Biso   1.000  H
  H26      1.0000 0.47350  0.41140  0.54360  Biso   1.000  H
  C25      1.0000 0.52060  0.80230  0.41870  Biso   1.000  C
  C26      1.0000 0.47940  0.19770  0.58130  Biso   1.000  C
  C27      1.0000 0.79490  0.62770  0.15800  Biso   1.000  C
  C28      1.0000 0.20510  0.37230  0.84200  Biso   1.000  C
  C29      1.0000 0.83500  0.51660  0.12350  Biso   1.000  C
  C30      1.0000 0.16500  0.48340  0.87650  Biso   1.000  C
  H27      1.0000 0.88240  0.42880  0.14490  Biso   1.000  H
  H28      1.0000 0.11760  0.57120  0.85510  Biso   1.000  H
  C31      1.0000 0.80580  0.53450  0.05920  Biso   1.000  C
  C32      1.0000 0.19420  0.46550  0.94080  Biso   1.000  C
  H29      1.0000 0.83810  0.46070  0.03650  Biso   1.000  H
  H30      1.0000 0.16190  0.53930  0.96350  Biso   1.000  H
  C33      1.0000 0.72820  0.66270  0.02780  Biso   1.000  C
  C34      1.0000 0.27180  0.33730  0.97220  Biso   1.000  C
  H31      1.0000 0.70800  0.67450  0.98410  Biso   1.000  H
  H32      1.0000 0.29200  0.32550  0.01590  Biso   1.000  H
  C35      1.0000 0.68200  0.77020  0.06030  Biso   1.000  C
  C36      1.0000 0.31800  0.22980  0.93970  Biso   1.000  C
  H33      1.0000 0.62860  0.85500  0.03860  Biso   1.000  H
  H34      1.0000 0.37140  0.14500  0.96140  Biso   1.000  H
  C37      1.0000 0.71230  0.75760  0.12650  Biso   1.000  C
  C38      1.0000 0.28770  0.24240  0.87350  Biso   1.000  C
  C39      1.0000 0.66420  0.88430  0.15590  Biso   1.000  C
  C40      1.0000 0.33580  0.11570  0.84410  Biso   1.000  C
  C41      1.0000 0.55650  0.00850  0.12090  Biso   1.000  C
  C42      1.0000 0.44350  0.99150  0.87910  Biso   1.000  C
  H35      1.0000 0.48560  0.05380  0.15370  Biso   1.000  H
  H36      1.0000 0.51440  0.94620  0.84630  Biso   1.000  H
  H37      1.0000 0.48610  0.97380  0.09620  Biso   1.000  H
  H38      1.0000 0.51390  0.02620  0.90380  Biso   1.000  H
  C43      1.0000 0.65380  0.11970  0.07340  Biso   1.000  C
  C44      1.0000 0.34620  0.88030  0.92660  Biso   1.000  C
  H39      1.0000 0.72270  0.15570  0.09750  Biso   1.000  H
  H40      1.0000 0.27730  0.84430  0.90250  Biso   1.000  H
  H41      1.0000 0.57820  0.19620  0.05310  Biso   1.000  H
  H42      1.0000 0.42180  0.80380  0.94690  Biso   1.000  H
  H43      1.0000 0.72140  0.07670  0.03980  Biso   1.000  H
  H44      1.0000 0.27860  0.92330  0.96020  Biso   1.000  H
  C45      1.0000 0.67720  0.01390  0.24320  Biso   1.000  C
  C46      1.0000 0.32280  0.98610  0.75680  Biso   1.000  C
  H45      1.0000 0.55850  0.03490  0.25290  Biso   1.000  H
  H46      1.0000 0.44150  0.96510  0.74710  Biso   1.000  H
  H47      1.0000 0.71700  0.09510  0.21230  Biso   1.000  H
  H48      1.0000 0.28300  0.90490  0.78770  Biso   1.000  H
  C47      1.0000 0.75470  0.99180  0.30540  Biso   1.000  C
  C48      1.0000 0.24530  0.00820  0.69460  Biso   1.000  C
  C49      1.0000 0.95030  0.83220  0.37150  Biso   1.000  C
  C50      1.0000 0.04970  0.16780  0.62850  Biso   1.000  C
  H49      1.0000 0.88180  0.83130  0.41350  Biso   1.000  H
  H50      1.0000 0.11820  0.16870  0.58650  Biso   1.000  H
  H51      1.0000 0.03080  0.89790  0.36700  Biso   1.000  H
  H52      1.0000 0.96920  0.10210  0.63300  Biso   1.000  H
  C51      1.0000 0.03550  0.68550  0.36740  Biso   1.000  C
  C52      1.0000 0.96450  0.31450  0.63260  Biso   1.000  C
  O1       1.0000 0.27320  0.90780  0.26120  Biso   1.000  O
  O2       1.0000 0.72680  0.09220  0.73880  Biso   1.000  O
  O3       1.0000 0.57670  0.37220  0.39180  Biso   1.000  O
  O4       1.0000 0.42330  0.62780  0.60820  Biso   1.000  O
  O5       1.0000 0.43710  0.87450  0.37240  Biso   1.000  O
  O6       1.0000 0.56290  0.12550  0.62760  Biso   1.000  O
  O7       1.0000 0.55090  0.85510  0.46320  Biso   1.000  O
  O8       1.0000 0.44910  0.14490  0.53680  Biso   1.000  O
  O9       1.0000 0.83390  0.60000  0.21860  Biso   1.000  O
  O10      1.0000 0.16610  0.40000  0.78140  Biso   1.000  O
  O11      1.0000 0.72100  0.08840  0.33860  Biso   1.000  O
  O12      1.0000 0.27900  0.91160  0.66140  Biso   1.000  O
  O13      1.0000 0.99790  0.61970  0.32630  Biso   1.000  O
  O14      1.0000 0.00210  0.38030  0.67370  Biso   1.000  O
  O15      1.0000 0.14360  0.63290  0.40550  Biso   1.000  O
  O16      1.0000 0.85640  0.36710  0.59450  Biso   1.000  O
  O17      1.0000 0.18980  0.98370  0.50370  Biso   1.000  O
  O18      1.0000 0.81020  0.01630  0.49630  Biso   1.000  O
  H53      1.0000 0.14560  0.93520  0.48340  Biso   1.000  H
  H54      1.0000 0.85440  0.06480  0.51660  Biso   1.000  H
  H55      1.0000 0.23920  0.92840  0.53430  Biso   1.000  H
  H56      1.0000 0.76080  0.07160  0.46570  Biso   1.000  H
  O19      1.0000 0.16410  0.33970  0.42900  Biso   1.000  O
  O20      1.0000 0.83590  0.66030  0.57100  Biso   1.000  O
  H57      1.0000 0.19950  0.42010  0.42080  Biso   1.000  H
  H58      1.0000 0.80050  0.57990  0.57920  Biso   1.000  H
  H59      1.0000 0.09350  0.34060  0.40300  Biso   1.000  H
  H60      1.0000 0.90650  0.65940  0.59700  Biso   1.000  H
  O21      1.0000 0.24260  0.15860  0.30840  Biso   1.000  O
  O22      1.0000 0.75740  0.84140  0.69160  Biso   1.000  O
  H61      1.0000 0.30700  0.13310  0.27630  Biso   1.000  H
  H62      1.0000 0.69300  0.86690  0.72370  Biso   1.000  H
  H63      1.0000 0.16650  0.10500  0.32000  Biso   1.000  H
  H64      1.0000 0.83350  0.89500  0.68000  Biso   1.000  H
  O23      1.0000 0.17380  0.70210  0.52550  Biso   1.000  O
  O24      1.0000 0.82620  0.29790  0.47450  Biso   1.000  O
  H65      1.0000 0.23980  0.64860  0.50360  Biso   1.000  H
  H66      1.0000 0.76020  0.35140  0.49640  Biso   1.000  H
  H67      1.0000 0.08180  0.72120  0.50970  Biso   1.000  H
  H68      1.0000 0.91820  0.27880  0.49030  Biso   1.000  H
  O25      1.0000 0.93940  0.30060  0.28250  Biso   1.000  O
  O26      1.0000 0.06060  0.69940  0.71750  Biso   1.000  O
  H69      1.0000 0.87770  0.37160  0.29370  Biso   1.000  H
  H70      1.0000 0.12230  0.62840  0.70630  Biso   1.000  H
  H71      1.0000 0.88010  0.24360  0.27440  Biso   1.000  H
  H72      1.0000 0.11990  0.75640  0.72560  Biso   1.000  H
