data_image0
_cell_length_a       13.1746
_cell_length_b       6.9293
_cell_length_c       10.3564
_cell_angle_alpha    90
_cell_angle_beta     107.699
_cell_angle_gamma    90

_symmetry_space_group_name_H-M    "P 1"
_symmetry_int_tables_number       1

loop_
  _symmetry_equiv_pos_as_xyz
  'x, y, z'

loop_
  _atom_site_label
  _atom_site_occupancy
  _atom_site_fract_x
  _atom_site_fract_y
  _atom_site_fract_z
  _atom_site_thermal_displace_type
  _atom_site_B_iso_or_equiv
  _atom_site_type_symbol
  Br1      1.0000 0.81059  0.50000  0.74467  Biso   1.000  Br
  Br2      1.0000 0.31059  0.00000  0.74467  Biso   1.000  Br
  Br3      1.0000 0.18941  0.50000  0.25533  Biso   1.000  Br
  Br4      1.0000 0.68941  0.00000  0.25533  Biso   1.000  Br
  Br5      1.0000 0.13548  0.50000  0.63201  Biso   1.000  Br
  Br6      1.0000 0.63548  0.00000  0.63201  Biso   1.000  Br
  Br7      1.0000 0.86452  0.50000  0.36799  Biso   1.000  Br
  Br8      1.0000 0.36452  0.00000  0.36799  Biso   1.000  Br
  Cu1      1.0000 0.95959  0.50000  0.66169  Biso   1.000  Cu
  Cu2      1.0000 0.45959  0.00000  0.66169  Biso   1.000  Cu
  Cu3      1.0000 0.04041  0.50000  0.33831  Biso   1.000  Cu
  Cu4      1.0000 0.54041  0.00000  0.33831  Biso   1.000  Cu
  N1       1.0000 0.96172  0.20300  0.67232  Biso   1.000  N
  N2       1.0000 0.46172  0.70300  0.67232  Biso   1.000  N
  N3       1.0000 0.96172  0.79700  0.67232  Biso   1.000  N
  N4       1.0000 0.46172  0.29700  0.67232  Biso   1.000  N
  N5       1.0000 0.03828  0.79700  0.32768  Biso   1.000  N
  N6       1.0000 0.53828  0.29700  0.32768  Biso   1.000  N
  N7       1.0000 0.03828  0.20300  0.32768  Biso   1.000  N
  N8       1.0000 0.53828  0.70300  0.32768  Biso   1.000  N
  C1       1.0000 0.14610  0.10040  0.00790  Biso   1.000  C
  C2       1.0000 0.64610  0.60040  0.00790  Biso   1.000  C
  C3       1.0000 0.14610  0.89960  0.00790  Biso   1.000  C
  C4       1.0000 0.64610  0.39960  0.00790  Biso   1.000  C
  C5       1.0000 0.85390  0.89960  0.99210  Biso   1.000  C
  C6       1.0000 0.35390  0.39960  0.99210  Biso   1.000  C
  C7       1.0000 0.85390  0.10040  0.99210  Biso   1.000  C
  C8       1.0000 0.35390  0.60040  0.99210  Biso   1.000  C
  H1       1.0000 0.18660  0.16680  0.08420  Biso   1.000  H
  H2       1.0000 0.68660  0.66680  0.08420  Biso   1.000  H
  H3       1.0000 0.18660  0.83320  0.08420  Biso   1.000  H
  H4       1.0000 0.68660  0.33320  0.08420  Biso   1.000  H
  H5       1.0000 0.81340  0.83320  0.91580  Biso   1.000  H
  H6       1.0000 0.31340  0.33320  0.91580  Biso   1.000  H
  H7       1.0000 0.81340  0.16680  0.91580  Biso   1.000  H
  H8       1.0000 0.31340  0.66680  0.91580  Biso   1.000  H
  C9       1.0000 0.02460  0.10220  0.78190  Biso   1.000  C
  C10      1.0000 0.52460  0.60220  0.78190  Biso   1.000  C
  C11      1.0000 0.02460  0.89780  0.78190  Biso   1.000  C
  C12      1.0000 0.52460  0.39780  0.78190  Biso   1.000  C
  C13      1.0000 0.97540  0.89780  0.21810  Biso   1.000  C
  C14      1.0000 0.47540  0.39780  0.21810  Biso   1.000  C
  C15      1.0000 0.97540  0.10220  0.21810  Biso   1.000  C
  C16      1.0000 0.47540  0.60220  0.21810  Biso   1.000  C
  C17      1.0000 0.08710  0.20080  0.89710  Biso   1.000  C
  C18      1.0000 0.58710  0.70080  0.89710  Biso   1.000  C
  C19      1.0000 0.08710  0.79920  0.89710  Biso   1.000  C
  C20      1.0000 0.58710  0.29920  0.89710  Biso   1.000  C
  C21      1.0000 0.91290  0.79920  0.10290  Biso   1.000  C
  C22      1.0000 0.41290  0.29920  0.10290  Biso   1.000  C
  C23      1.0000 0.91290  0.20080  0.10290  Biso   1.000  C
  C24      1.0000 0.41290  0.70080  0.10290  Biso   1.000  C
  H9       1.0000 0.08840  0.33500  0.89790  Biso   1.000  H
  H10      1.0000 0.58840  0.83500  0.89790  Biso   1.000  H
  H11      1.0000 0.08840  0.66500  0.89790  Biso   1.000  H
  H12      1.0000 0.58840  0.16500  0.89790  Biso   1.000  H
  H13      1.0000 0.91160  0.66500  0.10210  Biso   1.000  H
  H14      1.0000 0.41160  0.16500  0.10210  Biso   1.000  H
  H15      1.0000 0.91160  0.33500  0.10210  Biso   1.000  H
  H16      1.0000 0.41160  0.83500  0.10210  Biso   1.000  H
  C25      1.0000 0.89900  0.10180  0.57350  Biso   1.000  C
  C26      1.0000 0.39900  0.60180  0.57350  Biso   1.000  C
  C27      1.0000 0.89900  0.89820  0.57350  Biso   1.000  C
  C28      1.0000 0.39900  0.39820  0.57350  Biso   1.000  C
  C29      1.0000 0.10100  0.89820  0.42650  Biso   1.000  C
  C30      1.0000 0.60100  0.39820  0.42650  Biso   1.000  C
  C31      1.0000 0.10100  0.10180  0.42650  Biso   1.000  C
  C32      1.0000 0.60100  0.60180  0.42650  Biso   1.000  C
  H17      1.0000 0.85260  0.16640  0.50050  Biso   1.000  H
  H18      1.0000 0.35260  0.66640  0.50050  Biso   1.000  H
  H19      1.0000 0.85260  0.83360  0.50050  Biso   1.000  H
  H20      1.0000 0.35260  0.33360  0.50050  Biso   1.000  H
  H21      1.0000 0.14740  0.83360  0.49950  Biso   1.000  H
  H22      1.0000 0.64740  0.33360  0.49950  Biso   1.000  H
  H23      1.0000 0.14740  0.16640  0.49950  Biso   1.000  H
  H24      1.0000 0.64740  0.66640  0.49950  Biso   1.000  H
