data_image0
_cell_length_a       13.1018
_cell_length_b       6.9535
_cell_length_c       10.324
_cell_angle_alpha    90
_cell_angle_beta     107.547
_cell_angle_gamma    90

_symmetry_space_group_name_H-M    "P 1"
_symmetry_int_tables_number       1

loop_
  _symmetry_equiv_pos_as_xyz
  'x, y, z'

loop_
  _atom_site_label
  _atom_site_occupancy
  _atom_site_fract_x
  _atom_site_fract_y
  _atom_site_fract_z
  _atom_site_thermal_displace_type
  _atom_site_B_iso_or_equiv
  _atom_site_type_symbol
  Cu1      1.0000 0.04139  0.00000  0.83934  Biso   1.000  Cu
  Cu2      1.0000 0.95861  0.00000  0.16066  Biso   1.000  Cu
  Cu3      1.0000 0.54139  0.50000  0.83934  Biso   1.000  Cu
  Cu4      1.0000 0.45861  0.50000  0.16066  Biso   1.000  Cu
  Br1      1.0000 0.86347  0.00000  0.86830  Biso   1.000  Br
  Br2      1.0000 0.13653  0.00000  0.13170  Biso   1.000  Br
  Br3      1.0000 0.36347  0.50000  0.86830  Biso   1.000  Br
  Br4      1.0000 0.63653  0.50000  0.13170  Biso   1.000  Br
  Br5      1.0000 0.19013  0.00000  0.75275  Biso   1.000  Br
  Br6      1.0000 0.80987  0.00000  0.24725  Biso   1.000  Br
  Br7      1.0000 0.69013  0.50000  0.75275  Biso   1.000  Br
  Br8      1.0000 0.30987  0.50000  0.24725  Biso   1.000  Br
  N1       1.0000 0.03980  0.30030  0.83010  Biso   1.000  N
  N2       1.0000 0.96020  0.30030  0.16990  Biso   1.000  N
  N3       1.0000 0.53980  0.80030  0.83010  Biso   1.000  N
  N4       1.0000 0.46020  0.80030  0.16990  Biso   1.000  N
  N5       1.0000 0.96020  0.69970  0.16990  Biso   1.000  N
  N6       1.0000 0.03980  0.69970  0.83010  Biso   1.000  N
  N7       1.0000 0.46020  0.19970  0.16990  Biso   1.000  N
  N8       1.0000 0.53980  0.19970  0.83010  Biso   1.000  N
  C1       1.0000 0.10220  0.40210  0.92930  Biso   1.000  C
  C2       1.0000 0.89780  0.40210  0.07070  Biso   1.000  C
  C3       1.0000 0.60220  0.90210  0.92930  Biso   1.000  C
  C4       1.0000 0.39780  0.90210  0.07070  Biso   1.000  C
  C5       1.0000 0.89780  0.59790  0.07070  Biso   1.000  C
  C6       1.0000 0.10220  0.59790  0.92930  Biso   1.000  C
  C7       1.0000 0.39780  0.09790  0.07070  Biso   1.000  C
  C8       1.0000 0.60220  0.09790  0.92930  Biso   1.000  C
  H1       1.0000 0.14950  0.33660  0.00440  Biso   1.000  H
  H2       1.0000 0.85050  0.33660  0.99560  Biso   1.000  H
  H3       1.0000 0.64950  0.83660  0.00440  Biso   1.000  H
  H4       1.0000 0.35050  0.83660  0.99560  Biso   1.000  H
  H5       1.0000 0.85050  0.66340  0.99560  Biso   1.000  H
  H6       1.0000 0.14950  0.66340  0.00440  Biso   1.000  H
  H7       1.0000 0.35050  0.16340  0.99560  Biso   1.000  H
  H8       1.0000 0.64950  0.16340  0.00440  Biso   1.000  H
  C9       1.0000 0.97540  0.39810  0.71780  Biso   1.000  C
  C10      1.0000 0.02460  0.39810  0.28220  Biso   1.000  C
  C11      1.0000 0.47540  0.89810  0.71780  Biso   1.000  C
  C12      1.0000 0.52460  0.89810  0.28220  Biso   1.000  C
  C13      1.0000 0.02460  0.60190  0.28220  Biso   1.000  C
  C14      1.0000 0.97540  0.60190  0.71780  Biso   1.000  C
  C15      1.0000 0.52460  0.10190  0.28220  Biso   1.000  C
  C16      1.0000 0.47540  0.10190  0.71780  Biso   1.000  C
  C17      1.0000 0.91390  0.29670  0.60380  Biso   1.000  C
  C18      1.0000 0.08610  0.29670  0.39620  Biso   1.000  C
  C19      1.0000 0.41390  0.79670  0.60380  Biso   1.000  C
  C20      1.0000 0.58610  0.79670  0.39620  Biso   1.000  C
  C21      1.0000 0.08610  0.70330  0.39620  Biso   1.000  C
  C22      1.0000 0.91390  0.70330  0.60380  Biso   1.000  C
  C23      1.0000 0.58610  0.20330  0.39620  Biso   1.000  C
  C24      1.0000 0.41390  0.20330  0.60380  Biso   1.000  C
  H9       1.0000 0.91410  0.16000  0.60390  Biso   1.000  H
  H10      1.0000 0.08590  0.16000  0.39610  Biso   1.000  H
  H11      1.0000 0.41410  0.66000  0.60390  Biso   1.000  H
  H12      1.0000 0.58590  0.66000  0.39610  Biso   1.000  H
  H13      1.0000 0.08590  0.84000  0.39610  Biso   1.000  H
  H14      1.0000 0.91410  0.84000  0.60390  Biso   1.000  H
  H15      1.0000 0.58590  0.34000  0.39610  Biso   1.000  H
  H16      1.0000 0.41410  0.34000  0.60390  Biso   1.000  H
  C25      1.0000 0.85370  0.39500  0.49240  Biso   1.000  C
  C26      1.0000 0.14630  0.39500  0.50760  Biso   1.000  C
  C27      1.0000 0.35370  0.89500  0.49240  Biso   1.000  C
  C28      1.0000 0.64630  0.89500  0.50760  Biso   1.000  C
  C29      1.0000 0.14630  0.60500  0.50760  Biso   1.000  C
  C30      1.0000 0.85370  0.60500  0.49240  Biso   1.000  C
  C31      1.0000 0.64630  0.10500  0.50760  Biso   1.000  C
  C32      1.0000 0.35370  0.10500  0.49240  Biso   1.000  C
  H17      1.0000 0.81180  0.32670  0.41490  Biso   1.000  H
  H18      1.0000 0.18820  0.32670  0.58510  Biso   1.000  H
  H19      1.0000 0.31180  0.82670  0.41490  Biso   1.000  H
  H20      1.0000 0.68820  0.82670  0.58510  Biso   1.000  H
  H21      1.0000 0.18820  0.67330  0.58510  Biso   1.000  H
  H22      1.0000 0.81180  0.67330  0.41490  Biso   1.000  H
  H23      1.0000 0.68820  0.17330  0.58510  Biso   1.000  H
  H24      1.0000 0.31180  0.17330  0.41490  Biso   1.000  H
