data_image0
_cell_length_a       9.5088
_cell_length_b       18.4349
_cell_length_c       6.8155
_cell_angle_alpha    90
_cell_angle_beta     90.643
_cell_angle_gamma    90

_symmetry_space_group_name_H-M    "P 1"
_symmetry_int_tables_number       1

loop_
  _symmetry_equiv_pos_as_xyz
  'x, y, z'

loop_
  _atom_site_label
  _atom_site_occupancy
  _atom_site_fract_x
  _atom_site_fract_y
  _atom_site_fract_z
  _atom_site_thermal_displace_type
  _atom_site_B_iso_or_equiv
  _atom_site_type_symbol
  Cu1      1.0000 0.88840  0.68203  0.18121  Biso   1.000  Cu
  Cu2      1.0000 0.11160  0.18203  0.31879  Biso   1.000  Cu
  Cu3      1.0000 0.11160  0.31797  0.81879  Biso   1.000  Cu
  Cu4      1.0000 0.88840  0.81797  0.68121  Biso   1.000  Cu
  Cl1      1.0000 0.84485  0.79303  0.06736  Biso   1.000  Cl
  Cl2      1.0000 0.15515  0.29303  0.43264  Biso   1.000  Cl
  Cl3      1.0000 0.15515  0.20697  0.93264  Biso   1.000  Cl
  Cl4      1.0000 0.84485  0.70697  0.56736  Biso   1.000  Cl
  N1       1.0000 0.79820  0.54397  0.22540  Biso   1.000  N
  N2       1.0000 0.20180  0.04397  0.27460  Biso   1.000  N
  N3       1.0000 0.20180  0.45603  0.77460  Biso   1.000  N
  N4       1.0000 0.79820  0.95603  0.72540  Biso   1.000  N
  O1       1.0000 0.92258  0.57984  0.20760  Biso   1.000  O
  O2       1.0000 0.07742  0.07984  0.29240  Biso   1.000  O
  O3       1.0000 0.07742  0.42016  0.79240  Biso   1.000  O
  O4       1.0000 0.92258  0.92016  0.70760  Biso   1.000  O
  C1       1.0000 0.80230  0.47006  0.26000  Biso   1.000  C
  C2       1.0000 0.19770  0.97006  0.24000  Biso   1.000  C
  C3       1.0000 0.19770  0.52994  0.74000  Biso   1.000  C
  C4       1.0000 0.80230  0.02994  0.76000  Biso   1.000  C
  C5       1.0000 0.94330  0.43604  0.26750  Biso   1.000  C
  C6       1.0000 0.05670  0.93604  0.23250  Biso   1.000  C
  C7       1.0000 0.05670  0.56396  0.73250  Biso   1.000  C
  C8       1.0000 0.94330  0.06396  0.76750  Biso   1.000  C
  H1       1.0000 0.93100  0.38500  0.27600  Biso   1.000  H
  H2       1.0000 0.06900  0.88500  0.22400  Biso   1.000  H
  H3       1.0000 0.06900  0.61500  0.72400  Biso   1.000  H
  H4       1.0000 0.93100  0.11500  0.77600  Biso   1.000  H
  H5       1.0000 0.99000  0.44430  0.14100  Biso   1.000  H
  H6       1.0000 0.01000  0.94430  0.35900  Biso   1.000  H
  H7       1.0000 0.01000  0.55570  0.85900  Biso   1.000  H
  H8       1.0000 0.99000  0.05570  0.64100  Biso   1.000  H
  H9       1.0000 0.00200  0.45430  0.37800  Biso   1.000  H
  H10      1.0000 0.99800  0.95430  0.12200  Biso   1.000  H
  H11      1.0000 0.99800  0.54570  0.62200  Biso   1.000  H
  H12      1.0000 0.00200  0.04570  0.87800  Biso   1.000  H
  N5       1.0000 0.68862  0.43233  0.28250  Biso   1.000  N
  N6       1.0000 0.31138  0.93233  0.21750  Biso   1.000  N
  N7       1.0000 0.31138  0.56767  0.71750  Biso   1.000  N
  N8       1.0000 0.68862  0.06767  0.78250  Biso   1.000  N
  O5       1.0000 0.68808  0.65012  0.16970  Biso   1.000  O
  O6       1.0000 0.31192  0.15012  0.33030  Biso   1.000  O
  O7       1.0000 0.31192  0.34988  0.83030  Biso   1.000  O
  O8       1.0000 0.68808  0.84988  0.66970  Biso   1.000  O
  C9       1.0000 0.56080  0.46723  0.26570  Biso   1.000  C
  C10      1.0000 0.43920  0.96723  0.23430  Biso   1.000  C
  C11      1.0000 0.43920  0.53277  0.73430  Biso   1.000  C
  C12      1.0000 0.56080  0.03277  0.76570  Biso   1.000  C
  C13      1.0000 0.43720  0.42648  0.28910  Biso   1.000  C
  C14      1.0000 0.56280  0.92648  0.21090  Biso   1.000  C
  C15      1.0000 0.56280  0.57352  0.71090  Biso   1.000  C
  C16      1.0000 0.43720  0.07352  0.78910  Biso   1.000  C
  H13      1.0000 0.44600  0.37910  0.31900  Biso   1.000  H
  H14      1.0000 0.55400  0.87910  0.18100  Biso   1.000  H
  H15      1.0000 0.55400  0.62090  0.68100  Biso   1.000  H
  H16      1.0000 0.44600  0.12090  0.81900  Biso   1.000  H
  C17      1.0000 0.30880  0.45922  0.26880  Biso   1.000  C
  C18      1.0000 0.69120  0.95922  0.23120  Biso   1.000  C
  C19      1.0000 0.69120  0.54078  0.73120  Biso   1.000  C
  C20      1.0000 0.30880  0.04078  0.76880  Biso   1.000  C
  H17      1.0000 0.22700  0.43270  0.28200  Biso   1.000  H
  H18      1.0000 0.77300  0.93270  0.21800  Biso   1.000  H
  H19      1.0000 0.77300  0.56730  0.71800  Biso   1.000  H
  H20      1.0000 0.22700  0.06730  0.78200  Biso   1.000  H
  C21      1.0000 0.29760  0.53374  0.22560  Biso   1.000  C
  C22      1.0000 0.70240  0.03374  0.27440  Biso   1.000  C
  C23      1.0000 0.70240  0.46626  0.77440  Biso   1.000  C
  C24      1.0000 0.29760  0.96626  0.72560  Biso   1.000  C
  H21      1.0000 0.21300  0.55340  0.21800  Biso   1.000  H
  H22      1.0000 0.78700  0.05340  0.28200  Biso   1.000  H
  H23      1.0000 0.78700  0.44660  0.78200  Biso   1.000  H
  H24      1.0000 0.21300  0.94660  0.71800  Biso   1.000  H
  C25      1.0000 0.41690  0.57488  0.20380  Biso   1.000  C
  C26      1.0000 0.58310  0.07488  0.29620  Biso   1.000  C
  C27      1.0000 0.58310  0.42512  0.79620  Biso   1.000  C
  C28      1.0000 0.41690  0.92512  0.70380  Biso   1.000  C
  H25      1.0000 0.41000  0.62220  0.17200  Biso   1.000  H
  H26      1.0000 0.59000  0.12220  0.32800  Biso   1.000  H
  H27      1.0000 0.59000  0.37780  0.82800  Biso   1.000  H
  H28      1.0000 0.41000  0.87780  0.67200  Biso   1.000  H
  C29      1.0000 0.54990  0.54231  0.22390  Biso   1.000  C
  C30      1.0000 0.45010  0.04231  0.27610  Biso   1.000  C
  C31      1.0000 0.45010  0.45769  0.77610  Biso   1.000  C
  C32      1.0000 0.54990  0.95769  0.72390  Biso   1.000  C
  C33      1.0000 0.67770  0.58247  0.20360  Biso   1.000  C
  C34      1.0000 0.32230  0.08247  0.29640  Biso   1.000  C
  C35      1.0000 0.32230  0.41753  0.79640  Biso   1.000  C
  C36      1.0000 0.67770  0.91753  0.70360  Biso   1.000  C
  O9       1.0000 0.09403  0.69415  0.19040  Biso   1.000  O
  O10      1.0000 0.90597  0.19415  0.30960  Biso   1.000  O
  O11      1.0000 0.90597  0.30585  0.80960  Biso   1.000  O
  O12      1.0000 0.09403  0.80585  0.69040  Biso   1.000  O
  H29      1.0000 0.13800  0.69110  0.30000  Biso   1.000  H
  H30      1.0000 0.86200  0.19110  0.20000  Biso   1.000  H
  H31      1.0000 0.86200  0.30890  0.70000  Biso   1.000  H
  H32      1.0000 0.13800  0.80890  0.80000  Biso   1.000  H
  H33      1.0000 0.13100  0.72150  0.14500  Biso   1.000  H
  H34      1.0000 0.86900  0.22150  0.35500  Biso   1.000  H
  H35      1.0000 0.86900  0.27850  0.85500  Biso   1.000  H
  H36      1.0000 0.13100  0.77850  0.64500  Biso   1.000  H
  O13      1.0000 0.74388  0.29886  0.47740  Biso   1.000  O
  O14      1.0000 0.25612  0.79886  0.02260  Biso   1.000  O
  O15      1.0000 0.25612  0.70114  0.52260  Biso   1.000  O
  O16      1.0000 0.74388  0.20114  0.97740  Biso   1.000  O
  H37      1.0000 0.72400  0.33350  0.42300  Biso   1.000  H
  H38      1.0000 0.27600  0.83350  0.07700  Biso   1.000  H
  H39      1.0000 0.27600  0.66650  0.57700  Biso   1.000  H
  H40      1.0000 0.72400  0.16650  0.92300  Biso   1.000  H
  H41      1.0000 0.67800  0.28390  0.51600  Biso   1.000  H
  H42      1.0000 0.32200  0.78390  0.98400  Biso   1.000  H
  H43      1.0000 0.32200  0.71610  0.48400  Biso   1.000  H
  H44      1.0000 0.67800  0.21610  0.01600  Biso   1.000  H
  O17      1.0000 0.48618  0.25385  0.09310  Biso   1.000  O
  O18      1.0000 0.51382  0.75385  0.40690  Biso   1.000  O
  O19      1.0000 0.51382  0.74615  0.90690  Biso   1.000  O
  O20      1.0000 0.48618  0.24615  0.59310  Biso   1.000  O
  H45      1.0000 0.44500  0.27770  0.03000  Biso   1.000  H
  H46      1.0000 0.55500  0.77770  0.47000  Biso   1.000  H
  H47      1.0000 0.55500  0.72230  0.97000  Biso   1.000  H
  H48      1.0000 0.44500  0.22230  0.53000  Biso   1.000  H
  H49      1.0000 0.43600  0.23080  0.14200  Biso   1.000  H
  H50      1.0000 0.56400  0.73080  0.35800  Biso   1.000  H
  H51      1.0000 0.56400  0.76920  0.85800  Biso   1.000  H
  H52      1.0000 0.43600  0.26920  0.64200  Biso   1.000  H
