data_image0
_cell_length_a       10.377
_cell_length_b       10.689
_cell_length_c       11.026
_cell_angle_alpha    86.181
_cell_angle_beta     70.2643
_cell_angle_gamma    88.837

_symmetry_space_group_name_H-M    "P 1"
_symmetry_int_tables_number       1

loop_
  _symmetry_equiv_pos_as_xyz
  'x, y, z'

loop_
  _atom_site_label
  _atom_site_occupancy
  _atom_site_fract_x
  _atom_site_fract_y
  _atom_site_fract_z
  _atom_site_thermal_displace_type
  _atom_site_B_iso_or_equiv
  _atom_site_type_symbol
  Cu1      1.0000 0.94679  0.09301  0.23736  Biso   1.000  Cu
  Cu2      1.0000 0.05321  0.90699  0.76264  Biso   1.000  Cu
  O1       1.0000 0.76250  0.16030  0.24270  Biso   1.000  O
  O2       1.0000 0.23750  0.83970  0.75730  Biso   1.000  O
  O3       1.0000 0.91530  0.20610  0.05160  Biso   1.000  O
  O4       1.0000 0.08470  0.79390  0.94840  Biso   1.000  O
  O5       1.0000 0.83700  0.27710  0.85950  Biso   1.000  O
  O6       1.0000 0.16300  0.72290  0.14050  Biso   1.000  O
  O7       1.0000 0.89770  0.92340  0.21030  Biso   1.000  O
  O8       1.0000 0.10230  0.07660  0.78970  Biso   1.000  O
  O9       1.0000 0.85220  0.92530  0.42020  Biso   1.000  O
  O10      1.0000 0.14780  0.07470  0.57980  Biso   1.000  O
  O11      1.0000 0.72160  0.74050  0.56820  Biso   1.000  O
  O12      1.0000 0.27840  0.25950  0.43180  Biso   1.000  O
  N1       1.0000 0.97570  0.23880  0.32810  Biso   1.000  N
  N2       1.0000 0.02430  0.76120  0.67190  Biso   1.000  N
  N3       1.0000 0.14650  0.05690  0.16170  Biso   1.000  N
  N4       1.0000 0.85350  0.94310  0.83830  Biso   1.000  N
  C1       1.0000 0.79320  0.20730  0.12790  Biso   1.000  C
  C2       1.0000 0.20680  0.79270  0.87210  Biso   1.000  C
  C3       1.0000 0.68390  0.26040  0.08110  Biso   1.000  C
  C4       1.0000 0.31610  0.73960  0.91890  Biso   1.000  C
  C5       1.0000 0.71160  0.29170  0.94890  Biso   1.000  C
  C6       1.0000 0.28840  0.70830  0.05110  Biso   1.000  C
  C7       1.0000 0.60670  0.33380  0.90590  Biso   1.000  C
  C8       1.0000 0.39330  0.66620  0.09410  Biso   1.000  C
  C9       1.0000 0.47730  0.34990  0.99140  Biso   1.000  C
  C10      1.0000 0.52270  0.65010  0.00860  Biso   1.000  C
  C11      1.0000 0.44920  0.32190  0.12220  Biso   1.000  C
  C12      1.0000 0.55080  0.67810  0.87780  Biso   1.000  C
  C13      1.0000 0.55180  0.27710  0.16490  Biso   1.000  C
  C14      1.0000 0.44820  0.72290  0.83510  Biso   1.000  C
  C15      1.0000 0.85190  0.87040  0.32250  Biso   1.000  C
  C16      1.0000 0.14810  0.12960  0.67750  Biso   1.000  C
  C17      1.0000 0.79710  0.74070  0.33740  Biso   1.000  C
  C18      1.0000 0.20290  0.25930  0.66260  Biso   1.000  C
  C19      1.0000 0.73410  0.68310  0.46010  Biso   1.000  C
  C20      1.0000 0.26590  0.31690  0.53990  Biso   1.000  C
  C21      1.0000 0.67960  0.56220  0.47190  Biso   1.000  C
  C22      1.0000 0.32040  0.43780  0.52810  Biso   1.000  C
  C23      1.0000 0.69030  0.50060  0.36380  Biso   1.000  C
  C24      1.0000 0.30970  0.49940  0.63620  Biso   1.000  C
  C25      1.0000 0.75150  0.55640  0.24420  Biso   1.000  C
  C26      1.0000 0.24850  0.44360  0.75580  Biso   1.000  C
  C27      1.0000 0.80540  0.67580  0.22920  Biso   1.000  C
  C28      1.0000 0.19460  0.32420  0.77080  Biso   1.000  C
  C29      1.0000 0.92990  0.23360  0.45630  Biso   1.000  C
  C30      1.0000 0.07010  0.76640  0.54370  Biso   1.000  C
  C31      1.0000 0.93770  0.33280  0.52700  Biso   1.000  C
  C32      1.0000 0.06230  0.66720  0.47300  Biso   1.000  C
  C33      1.0000 0.99550  0.44540  0.46390  Biso   1.000  C
  C34      1.0000 0.00450  0.55460  0.53610  Biso   1.000  C
  C35      1.0000 0.04320  0.44970  0.33060  Biso   1.000  C
  C36      1.0000 0.95680  0.55030  0.66940  Biso   1.000  C
  C37      1.0000 0.03190  0.34630  0.26670  Biso   1.000  C
  C38      1.0000 0.96810  0.65370  0.73330  Biso   1.000  C
  C39      1.0000 0.23160  0.02640  0.22670  Biso   1.000  C
  C40      1.0000 0.76840  0.97360  0.77330  Biso   1.000  C
  C41      1.0000 0.36810  0.00260  0.16750  Biso   1.000  C
  C42      1.0000 0.63190  0.99740  0.83250  Biso   1.000  C
  C43      1.0000 0.42600  0.01170  0.03350  Biso   1.000  C
  C44      1.0000 0.57400  0.98830  0.96650  Biso   1.000  C
  C45      1.0000 0.33760  0.04310  0.96690  Biso   1.000  C
  C46      1.0000 0.66240  0.95690  0.03310  Biso   1.000  C
  C47      1.0000 0.20090  0.06390  0.03250  Biso   1.000  C
  C48      1.0000 0.79910  0.93610  0.96750  Biso   1.000  C
  H1       1.0000 0.87900  0.25800  0.89200  Biso   1.000  H
  H2       1.0000 0.12100  0.74200  0.10800  Biso   1.000  H
  H3       1.0000 0.62800  0.34500  0.82000  Biso   1.000  H
  H4       1.0000 0.37200  0.65500  0.18000  Biso   1.000  H
  H5       1.0000 0.40300  0.37600  0.96700  Biso   1.000  H
  H6       1.0000 0.59700  0.62400  0.03300  Biso   1.000  H
  H7       1.0000 0.36100  0.32900  0.18200  Biso   1.000  H
  H8       1.0000 0.63900  0.67100  0.81800  Biso   1.000  H
  H9       1.0000 0.53400  0.25300  0.24700  Biso   1.000  H
  H10      1.0000 0.46600  0.74700  0.75300  Biso   1.000  H
  H11      1.0000 0.76300  0.79900  0.54300  Biso   1.000  H
  H12      1.0000 0.23700  0.20100  0.45700  Biso   1.000  H
  H13      1.0000 0.64600  0.52500  0.55100  Biso   1.000  H
  H14      1.0000 0.35400  0.47500  0.44900  Biso   1.000  H
  H15      1.0000 0.65700  0.41400  0.37000  Biso   1.000  H
  H16      1.0000 0.34300  0.58600  0.63000  Biso   1.000  H
  H17      1.0000 0.76200  0.52400  0.17400  Biso   1.000  H
  H18      1.0000 0.23800  0.47600  0.82600  Biso   1.000  H
  H19      1.0000 0.84200  0.71300  0.14300  Biso   1.000  H
  H20      1.0000 0.15800  0.28700  0.85700  Biso   1.000  H
  H21      1.0000 0.89100  0.15800  0.49700  Biso   1.000  H
  H22      1.0000 0.10900  0.84200  0.50300  Biso   1.000  H
  H23      1.0000 0.90100  0.31800  0.61800  Biso   1.000  H
  H24      1.0000 0.09900  0.68200  0.38200  Biso   1.000  H
  H25      1.0000 0.08100  0.52100  0.28100  Biso   1.000  H
  H26      1.0000 0.91900  0.47900  0.71900  Biso   1.000  H
  H27      1.0000 0.06400  0.34600  0.17900  Biso   1.000  H
  H28      1.0000 0.93600  0.65400  0.82100  Biso   1.000  H
  H29      1.0000 0.19200  0.01900  0.31600  Biso   1.000  H
  H30      1.0000 0.80800  0.98100  0.68400  Biso   1.000  H
  H31      1.0000 0.41500  0.97800  0.22000  Biso   1.000  H
  H32      1.0000 0.58500  0.02200  0.78000  Biso   1.000  H
  H33      1.0000 0.36100  0.05200  0.88000  Biso   1.000  H
  H34      1.0000 0.63900  0.94800  0.12000  Biso   1.000  H
  H35      1.0000 0.14200  0.08100  0.99000  Biso   1.000  H
  H36      1.0000 0.85800  0.91900  0.01000  Biso   1.000  H
