data_image0
_cell_length_a       13.689
_cell_length_b       11.158
_cell_length_c       17.08
_cell_angle_alpha    90
_cell_angle_beta     101.038
_cell_angle_gamma    90

_symmetry_space_group_name_H-M    "P 1"
_symmetry_int_tables_number       1

loop_
  _symmetry_equiv_pos_as_xyz
  'x, y, z'

loop_
  _atom_site_label
  _atom_site_occupancy
  _atom_site_fract_x
  _atom_site_fract_y
  _atom_site_fract_z
  _atom_site_thermal_displace_type
  _atom_site_B_iso_or_equiv
  _atom_site_type_symbol
  Cu1      1.0000 0.08140  0.00892  0.11251  Biso   1.000  Cu
  Cu2      1.0000 0.08140  0.49108  0.61251  Biso   1.000  Cu
  Cu3      1.0000 0.91860  0.99108  0.88749  Biso   1.000  Cu
  Cu4      1.0000 0.91860  0.50892  0.38749  Biso   1.000  Cu
  O1       1.0000 0.22470  0.00230  0.16620  Biso   1.000  O
  O2       1.0000 0.22470  0.49770  0.66620  Biso   1.000  O
  O3       1.0000 0.77530  0.99770  0.83380  Biso   1.000  O
  O4       1.0000 0.77530  0.50230  0.33380  Biso   1.000  O
  O5       1.0000 0.14790  0.97680  0.26730  Biso   1.000  O
  O6       1.0000 0.14790  0.52320  0.76730  Biso   1.000  O
  O7       1.0000 0.85210  0.02320  0.73270  Biso   1.000  O
  O8       1.0000 0.85210  0.47680  0.23270  Biso   1.000  O
  O9       1.0000 0.24780  0.92370  0.40620  Biso   1.000  O
  O10      1.0000 0.24780  0.57630  0.90620  Biso   1.000  O
  O11      1.0000 0.75220  0.07630  0.59380  Biso   1.000  O
  O12      1.0000 0.75220  0.42370  0.09380  Biso   1.000  O
  O13      1.0000 0.94280  0.02010  0.12550  Biso   1.000  O
  O14      1.0000 0.94280  0.47990  0.62550  Biso   1.000  O
  O15      1.0000 0.05720  0.97990  0.87450  Biso   1.000  O
  O16      1.0000 0.05720  0.52010  0.37450  Biso   1.000  O
  O17      1.0000 0.85570  0.99260  0.00330  Biso   1.000  O
  O18      1.0000 0.85570  0.50740  0.50330  Biso   1.000  O
  O19      1.0000 0.14430  0.00740  0.99670  Biso   1.000  O
  O20      1.0000 0.14430  0.49260  0.49670  Biso   1.000  O
  O21      1.0000 0.66110  0.01200  0.97850  Biso   1.000  O
  O22      1.0000 0.66110  0.48800  0.47850  Biso   1.000  O
  O23      1.0000 0.33890  0.98800  0.02150  Biso   1.000  O
  O24      1.0000 0.33890  0.51200  0.52150  Biso   1.000  O
  O25      1.0000 0.22810  0.23290  0.40690  Biso   1.000  O
  O26      1.0000 0.22810  0.26710  0.90690  Biso   1.000  O
  O27      1.0000 0.77190  0.76710  0.59310  Biso   1.000  O
  O28      1.0000 0.77190  0.73290  0.09310  Biso   1.000  O
  N1       1.0000 0.08550  0.19140  0.11190  Biso   1.000  N
  N2       1.0000 0.08550  0.30860  0.61190  Biso   1.000  N
  N3       1.0000 0.91450  0.80860  0.88810  Biso   1.000  N
  N4       1.0000 0.91450  0.69140  0.38810  Biso   1.000  N
  N5       1.0000 0.07810  0.82770  0.10650  Biso   1.000  N
  N6       1.0000 0.07810  0.67230  0.60650  Biso   1.000  N
  N7       1.0000 0.92190  0.17230  0.89350  Biso   1.000  N
  N8       1.0000 0.92190  0.32770  0.39350  Biso   1.000  N
  N9       1.0000 0.36130  0.26750  0.35500  Biso   1.000  N
  N10      1.0000 0.36130  0.23250  0.85500  Biso   1.000  N
  N11      1.0000 0.63870  0.73250  0.64500  Biso   1.000  N
  N12      1.0000 0.63870  0.76750  0.14500  Biso   1.000  N
  C1       1.0000 0.22560  0.98260  0.23920  Biso   1.000  C
  C2       1.0000 0.22560  0.51740  0.73920  Biso   1.000  C
  C3       1.0000 0.77440  0.01740  0.76080  Biso   1.000  C
  C4       1.0000 0.77440  0.48260  0.26080  Biso   1.000  C
  C5       1.0000 0.32350  0.96480  0.29360  Biso   1.000  C
  C6       1.0000 0.32350  0.53520  0.79360  Biso   1.000  C
  C7       1.0000 0.67650  0.03520  0.70640  Biso   1.000  C
  C8       1.0000 0.67650  0.46480  0.20640  Biso   1.000  C
  C9       1.0000 0.32850  0.93650  0.37330  Biso   1.000  C
  C10      1.0000 0.32850  0.56350  0.87330  Biso   1.000  C
  C11      1.0000 0.67150  0.06350  0.62670  Biso   1.000  C
  C12      1.0000 0.67150  0.43650  0.12670  Biso   1.000  C
  C13      1.0000 0.42030  0.91820  0.42310  Biso   1.000  C
  C14      1.0000 0.42030  0.58180  0.92310  Biso   1.000  C
  C15      1.0000 0.57970  0.08180  0.57690  Biso   1.000  C
  C16      1.0000 0.57970  0.41820  0.07690  Biso   1.000  C
  C17      1.0000 0.50580  0.93330  0.39310  Biso   1.000  C
  C18      1.0000 0.50580  0.56670  0.89310  Biso   1.000  C
  C19      1.0000 0.49420  0.06670  0.60690  Biso   1.000  C
  C20      1.0000 0.49420  0.43330  0.10690  Biso   1.000  C
  C21      1.0000 0.50230  0.96130  0.31410  Biso   1.000  C
  C22      1.0000 0.50230  0.53870  0.81410  Biso   1.000  C
  C23      1.0000 0.49770  0.03870  0.68590  Biso   1.000  C
  C24      1.0000 0.49770  0.46130  0.18590  Biso   1.000  C
  C25      1.0000 0.41090  0.97670  0.26400  Biso   1.000  C
  C26      1.0000 0.41090  0.52330  0.76400  Biso   1.000  C
  C27      1.0000 0.58910  0.02330  0.73600  Biso   1.000  C
  C28      1.0000 0.58910  0.47670  0.23600  Biso   1.000  C
  C29      1.0000 0.86240  0.02000  0.07490  Biso   1.000  C
  C30      1.0000 0.86240  0.48000  0.57490  Biso   1.000  C
  C31      1.0000 0.13760  0.98000  0.92510  Biso   1.000  C
  C32      1.0000 0.13760  0.52000  0.42510  Biso   1.000  C
  C33      1.0000 0.77080  0.06010  0.10320  Biso   1.000  C
  C34      1.0000 0.77080  0.43990  0.60320  Biso   1.000  C
  C35      1.0000 0.22920  0.93990  0.89680  Biso   1.000  C
  C36      1.0000 0.22920  0.56010  0.39680  Biso   1.000  C
  C37      1.0000 0.67710  0.05380  0.05500  Biso   1.000  C
  C38      1.0000 0.67710  0.44620  0.55500  Biso   1.000  C
  C39      1.0000 0.32290  0.94620  0.94500  Biso   1.000  C
  C40      1.0000 0.32290  0.55380  0.44500  Biso   1.000  C
  C41      1.0000 0.59290  0.08960  0.08340  Biso   1.000  C
  C42      1.0000 0.59290  0.41040  0.58340  Biso   1.000  C
  C43      1.0000 0.40710  0.91040  0.91660  Biso   1.000  C
  C44      1.0000 0.40710  0.58960  0.41660  Biso   1.000  C
  C45      1.0000 0.60290  0.13610  0.15990  Biso   1.000  C
  C46      1.0000 0.60290  0.36390  0.65990  Biso   1.000  C
  C47      1.0000 0.39710  0.86390  0.84010  Biso   1.000  C
  C48      1.0000 0.39710  0.63610  0.34010  Biso   1.000  C
  C49      1.0000 0.69450  0.14320  0.20930  Biso   1.000  C
  C50      1.0000 0.69450  0.35680  0.70930  Biso   1.000  C
  C51      1.0000 0.30550  0.85680  0.79070  Biso   1.000  C
  C52      1.0000 0.30550  0.64320  0.29070  Biso   1.000  C
  C53      1.0000 0.77820  0.10450  0.18090  Biso   1.000  C
  C54      1.0000 0.77820  0.39550  0.68090  Biso   1.000  C
  C55      1.0000 0.22180  0.89550  0.81910  Biso   1.000  C
  C56      1.0000 0.22180  0.60450  0.31910  Biso   1.000  C
  C57      1.0000 0.13310  0.25340  0.06390  Biso   1.000  C
  C58      1.0000 0.13310  0.24660  0.56390  Biso   1.000  C
  C59      1.0000 0.86690  0.74660  0.93610  Biso   1.000  C
  C60      1.0000 0.86690  0.75340  0.43610  Biso   1.000  C
  C61      1.0000 0.13430  0.37660  0.06210  Biso   1.000  C
  C62      1.0000 0.13430  0.12340  0.56210  Biso   1.000  C
  C63      1.0000 0.86570  0.62340  0.93790  Biso   1.000  C
  C64      1.0000 0.86570  0.87660  0.43790  Biso   1.000  C
  C65      1.0000 0.08560  0.44300  0.11080  Biso   1.000  C
  C66      1.0000 0.08560  0.05700  0.61080  Biso   1.000  C
  C67      1.0000 0.91440  0.55700  0.88920  Biso   1.000  C
  C68      1.0000 0.91440  0.94300  0.38920  Biso   1.000  C
  C69      1.0000 0.03960  0.37840  0.16350  Biso   1.000  C
  C70      1.0000 0.03960  0.12160  0.66350  Biso   1.000  C
  C71      1.0000 0.96040  0.62160  0.83650  Biso   1.000  C
  C72      1.0000 0.96040  0.87840  0.33650  Biso   1.000  C
  C73      1.0000 0.04000  0.25490  0.16040  Biso   1.000  C
  C74      1.0000 0.04000  0.24510  0.66040  Biso   1.000  C
  C75      1.0000 0.96000  0.74510  0.83960  Biso   1.000  C
  C76      1.0000 0.96000  0.75490  0.33960  Biso   1.000  C
  C77      1.0000 0.14990  0.76580  0.08020  Biso   1.000  C
  C78      1.0000 0.14990  0.73420  0.58020  Biso   1.000  C
  C79      1.0000 0.85010  0.23420  0.91980  Biso   1.000  C
  C80      1.0000 0.85010  0.26580  0.41980  Biso   1.000  C
  C81      1.0000 0.15330  0.64250  0.08000  Biso   1.000  C
  C82      1.0000 0.15330  0.85750  0.58000  Biso   1.000  C
  C83      1.0000 0.84670  0.35750  0.92000  Biso   1.000  C
  C84      1.0000 0.84670  0.14250  0.42000  Biso   1.000  C
  C85      1.0000 0.08380  0.57590  0.10890  Biso   1.000  C
  C86      1.0000 0.08380  0.92410  0.60890  Biso   1.000  C
  C87      1.0000 0.91620  0.42410  0.89110  Biso   1.000  C
  C88      1.0000 0.91620  0.07590  0.39110  Biso   1.000  C
  C89      1.0000 0.01080  0.64040  0.13530  Biso   1.000  C
  C90      1.0000 0.01080  0.85960  0.63530  Biso   1.000  C
  C91      1.0000 0.98920  0.35960  0.86470  Biso   1.000  C
  C92      1.0000 0.98920  0.14040  0.36470  Biso   1.000  C
  C93      1.0000 0.00950  0.76360  0.13290  Biso   1.000  C
  C94      1.0000 0.00950  0.73640  0.63290  Biso   1.000  C
  C95      1.0000 0.99050  0.23640  0.86710  Biso   1.000  C
  C96      1.0000 0.99050  0.26360  0.36710  Biso   1.000  C
  C97      1.0000 0.32160  0.24250  0.41780  Biso   1.000  C
  C98      1.0000 0.32160  0.25750  0.91780  Biso   1.000  C
  C99      1.0000 0.67840  0.75750  0.58220  Biso   1.000  C
  C100     1.0000 0.67840  0.74250  0.08220  Biso   1.000  C
  C101     1.0000 0.30430  0.28880  0.27590  Biso   1.000  C
  C102     1.0000 0.30430  0.21120  0.77590  Biso   1.000  C
  C103     1.0000 0.69570  0.71120  0.72410  Biso   1.000  C
  C104     1.0000 0.69570  0.78880  0.22410  Biso   1.000  C
  C105     1.0000 0.46690  0.27890  0.37010  Biso   1.000  C
  C106     1.0000 0.46690  0.22110  0.87010  Biso   1.000  C
  C107     1.0000 0.53310  0.72110  0.62990  Biso   1.000  C
  C108     1.0000 0.53310  0.77890  0.12990  Biso   1.000  C
  H1       1.0000 0.17900  0.93000  0.36800  Biso   1.000  H
  H2       1.0000 0.17900  0.57000  0.86800  Biso   1.000  H
  H3       1.0000 0.82100  0.07000  0.63200  Biso   1.000  H
  H4       1.0000 0.82100  0.43000  0.13200  Biso   1.000  H
  H5       1.0000 0.40200  0.89400  0.48100  Biso   1.000  H
  H6       1.0000 0.40200  0.60600  0.98100  Biso   1.000  H
  H7       1.0000 0.59800  0.10600  0.51900  Biso   1.000  H
  H8       1.0000 0.59800  0.39400  0.01900  Biso   1.000  H
  H9       1.0000 0.57500  0.91900  0.42400  Biso   1.000  H
  H10      1.0000 0.57500  0.58100  0.92400  Biso   1.000  H
  H11      1.0000 0.42500  0.08100  0.57600  Biso   1.000  H
  H12      1.0000 0.42500  0.41900  0.07600  Biso   1.000  H
  H13      1.0000 0.56800  0.96700  0.29100  Biso   1.000  H
  H14      1.0000 0.56800  0.53300  0.79100  Biso   1.000  H
  H15      1.0000 0.43200  0.03300  0.70900  Biso   1.000  H
  H16      1.0000 0.43200  0.46700  0.20900  Biso   1.000  H
  H17      1.0000 0.41100  0.98800  0.20500  Biso   1.000  H
  H18      1.0000 0.41100  0.51200  0.70500  Biso   1.000  H
  H19      1.0000 0.58900  0.01200  0.79500  Biso   1.000  H
  H20      1.0000 0.58900  0.48800  0.29500  Biso   1.000  H
  H21      1.0000 0.72000  0.00800  0.96700  Biso   1.000  H
  H22      1.0000 0.72000  0.49200  0.46700  Biso   1.000  H
  H23      1.0000 0.28000  0.99200  0.03300  Biso   1.000  H
  H24      1.0000 0.28000  0.50800  0.53300  Biso   1.000  H
  H25      1.0000 0.52200  0.08900  0.04700  Biso   1.000  H
  H26      1.0000 0.52200  0.41100  0.54700  Biso   1.000  H
  H27      1.0000 0.47800  0.91100  0.95300  Biso   1.000  H
  H28      1.0000 0.47800  0.58900  0.45300  Biso   1.000  H
  H29      1.0000 0.53200  0.15900  0.17700  Biso   1.000  H
  H30      1.0000 0.53200  0.34100  0.67700  Biso   1.000  H
  H31      1.0000 0.46800  0.84100  0.82300  Biso   1.000  H
  H32      1.0000 0.46800  0.65900  0.32300  Biso   1.000  H
  H33      1.0000 0.70400  0.17700  0.26500  Biso   1.000  H
  H34      1.0000 0.70400  0.32300  0.76500  Biso   1.000  H
  H35      1.0000 0.29600  0.82300  0.73500  Biso   1.000  H
  H36      1.0000 0.29600  0.67700  0.23500  Biso   1.000  H
  H37      1.0000 0.85800  0.10900  0.21600  Biso   1.000  H
  H38      1.0000 0.85800  0.39100  0.71600  Biso   1.000  H
  H39      1.0000 0.14200  0.89100  0.78400  Biso   1.000  H
  H40      1.0000 0.14200  0.60900  0.28400  Biso   1.000  H
  H41      1.0000 0.17400  0.20400  0.03100  Biso   1.000  H
  H42      1.0000 0.17400  0.29600  0.53100  Biso   1.000  H
  H43      1.0000 0.82600  0.79600  0.96900  Biso   1.000  H
  H44      1.0000 0.82600  0.70400  0.46900  Biso   1.000  H
  H45      1.0000 0.16300  0.40600  0.03000  Biso   1.000  H
  H46      1.0000 0.16300  0.09400  0.53000  Biso   1.000  H
  H47      1.0000 0.83700  0.59400  0.97000  Biso   1.000  H
  H48      1.0000 0.83700  0.90600  0.47000  Biso   1.000  H
  H49      1.0000 0.00400  0.41400  0.19400  Biso   1.000  H
  H50      1.0000 0.00400  0.08600  0.69400  Biso   1.000  H
  H51      1.0000 0.99600  0.58600  0.80600  Biso   1.000  H
  H52      1.0000 0.99600  0.91400  0.30600  Biso   1.000  H
  H53      1.0000 0.01200  0.21000  0.19900  Biso   1.000  H
  H54      1.0000 0.01200  0.29000  0.69900  Biso   1.000  H
  H55      1.0000 0.98800  0.79000  0.80100  Biso   1.000  H
  H56      1.0000 0.98800  0.71000  0.30100  Biso   1.000  H
  H57      1.0000 0.19600  0.80900  0.05900  Biso   1.000  H
  H58      1.0000 0.19600  0.69100  0.55900  Biso   1.000  H
  H59      1.0000 0.80400  0.19100  0.94100  Biso   1.000  H
  H60      1.0000 0.80400  0.30900  0.44100  Biso   1.000  H
  H61      1.0000 0.20100  0.60800  0.05700  Biso   1.000  H
  H62      1.0000 0.20100  0.89200  0.55700  Biso   1.000  H
  H63      1.0000 0.79900  0.39200  0.94300  Biso   1.000  H
  H64      1.0000 0.79900  0.10800  0.44300  Biso   1.000  H
  H65      1.0000 0.96900  0.61400  0.15200  Biso   1.000  H
  H66      1.0000 0.96900  0.88600  0.65200  Biso   1.000  H
  H67      1.0000 0.03100  0.38600  0.84800  Biso   1.000  H
  H68      1.0000 0.03100  0.11400  0.34800  Biso   1.000  H
  H69      1.0000 0.95900  0.80100  0.14600  Biso   1.000  H
  H70      1.0000 0.95900  0.69900  0.64600  Biso   1.000  H
  H71      1.0000 0.04100  0.19900  0.85400  Biso   1.000  H
  H72      1.0000 0.04100  0.30100  0.35400  Biso   1.000  H
  H73      1.0000 0.26200  0.35480  0.27720  Biso   1.000  H
  H74      1.0000 0.26200  0.14520  0.77720  Biso   1.000  H
  H75      1.0000 0.73800  0.64520  0.72280  Biso   1.000  H
  H76      1.0000 0.73800  0.85480  0.22280  Biso   1.000  H
  H77      1.0000 0.26670  0.21940  0.25770  Biso   1.000  H
  H78      1.0000 0.26670  0.28060  0.75770  Biso   1.000  H
  H79      1.0000 0.73330  0.78060  0.74230  Biso   1.000  H
  H80      1.0000 0.73330  0.71940  0.24230  Biso   1.000  H
  H81      1.0000 0.34970  0.30510  0.24120  Biso   1.000  H
  H82      1.0000 0.34970  0.19490  0.74120  Biso   1.000  H
  H83      1.0000 0.65030  0.69490  0.75880  Biso   1.000  H
  H84      1.0000 0.65030  0.80510  0.25880  Biso   1.000  H
  H85      1.0000 0.48830  0.29490  0.32060  Biso   1.000  H
  H86      1.0000 0.48830  0.20510  0.82060  Biso   1.000  H
  H87      1.0000 0.51170  0.70510  0.67940  Biso   1.000  H
  H88      1.0000 0.51170  0.79490  0.17940  Biso   1.000  H
  H89      1.0000 0.49650  0.20240  0.38930  Biso   1.000  H
  H90      1.0000 0.49650  0.29760  0.88930  Biso   1.000  H
  H91      1.0000 0.50350  0.79760  0.61070  Biso   1.000  H
  H92      1.0000 0.50350  0.70240  0.11070  Biso   1.000  H
  H93      1.0000 0.48860  0.33810  0.40700  Biso   1.000  H
  H94      1.0000 0.48860  0.16190  0.90700  Biso   1.000  H
  H95      1.0000 0.51140  0.66190  0.59300  Biso   1.000  H
  H96      1.0000 0.51140  0.83810  0.09300  Biso   1.000  H
