data_image0
_cell_length_a       13.9645
_cell_length_b       13.9645
_cell_length_c       38.11
_cell_angle_alpha    90
_cell_angle_beta     90
_cell_angle_gamma    90

_symmetry_space_group_name_H-M    "P 1"
_symmetry_int_tables_number       1

loop_
  _symmetry_equiv_pos_as_xyz
  'x, y, z'

loop_
  _atom_site_label
  _atom_site_occupancy
  _atom_site_fract_x
  _atom_site_fract_y
  _atom_site_fract_z
  _atom_site_thermal_displace_type
  _atom_site_B_iso_or_equiv
  _atom_site_type_symbol
  Cu1      1.0000 0.99349  0.40501  0.02950  Biso   1.000  Cu
  Cu2      1.0000 0.00651  0.40501  0.52950  Biso   1.000  Cu
  Cu3      1.0000 0.40501  0.50651  0.27950  Biso   1.000  Cu
  Cu4      1.0000 0.40501  0.49349  0.27950  Biso   1.000  Cu
  Cu5      1.0000 0.00651  0.59499  0.02950  Biso   1.000  Cu
  Cu6      1.0000 0.99349  0.59499  0.52950  Biso   1.000  Cu
  Cu7      1.0000 0.59499  0.49349  0.27950  Biso   1.000  Cu
  Cu8      1.0000 0.59499  0.50651  0.27950  Biso   1.000  Cu
  Cu9      1.0000 0.49349  0.90501  0.52950  Biso   1.000  Cu
  Cu10     1.0000 0.50651  0.90501  0.02950  Biso   1.000  Cu
  Cu11     1.0000 0.90501  0.00651  0.27950  Biso   1.000  Cu
  Cu12     1.0000 0.90501  0.99349  0.27950  Biso   1.000  Cu
  Cu13     1.0000 0.50651  0.09499  0.52950  Biso   1.000  Cu
  Cu14     1.0000 0.49349  0.09499  0.02950  Biso   1.000  Cu
  Cu15     1.0000 0.09499  0.99349  0.27950  Biso   1.000  Cu
  Cu16     1.0000 0.09499  0.00651  0.27950  Biso   1.000  Cu
  O1       1.0000 0.90030  0.42770  0.99310  Biso   1.000  O
  O2       1.0000 0.09970  0.42770  0.49310  Biso   1.000  O
  O3       1.0000 0.42770  0.59970  0.24310  Biso   1.000  O
  O4       1.0000 0.42770  0.40030  0.24310  Biso   1.000  O
  O5       1.0000 0.09970  0.57230  0.99310  Biso   1.000  O
  O6       1.0000 0.90030  0.57230  0.49310  Biso   1.000  O
  O7       1.0000 0.57230  0.40030  0.24310  Biso   1.000  O
  O8       1.0000 0.57230  0.59970  0.24310  Biso   1.000  O
  O9       1.0000 0.40030  0.92770  0.49310  Biso   1.000  O
  O10      1.0000 0.59970  0.92770  0.99310  Biso   1.000  O
  O11      1.0000 0.92770  0.09970  0.24310  Biso   1.000  O
  O12      1.0000 0.92770  0.90030  0.24310  Biso   1.000  O
  O13      1.0000 0.59970  0.07230  0.49310  Biso   1.000  O
  O14      1.0000 0.40030  0.07230  0.99310  Biso   1.000  O
  O15      1.0000 0.07230  0.90030  0.24310  Biso   1.000  O
  O16      1.0000 0.07230  0.09970  0.24310  Biso   1.000  O
  O17      1.0000 0.77030  0.34780  0.95460  Biso   1.000  O
  O18      1.0000 0.22970  0.34780  0.45460  Biso   1.000  O
  O19      1.0000 0.34780  0.72970  0.20460  Biso   1.000  O
  O20      1.0000 0.34780  0.27030  0.20460  Biso   1.000  O
  O21      1.0000 0.22970  0.65220  0.95460  Biso   1.000  O
  O22      1.0000 0.77030  0.65220  0.45460  Biso   1.000  O
  O23      1.0000 0.65220  0.27030  0.20460  Biso   1.000  O
  O24      1.0000 0.65220  0.72970  0.20460  Biso   1.000  O
  O25      1.0000 0.27030  0.84780  0.45460  Biso   1.000  O
  O26      1.0000 0.72970  0.84780  0.95460  Biso   1.000  O
  O27      1.0000 0.84780  0.22970  0.20460  Biso   1.000  O
  O28      1.0000 0.84780  0.77030  0.20460  Biso   1.000  O
  O29      1.0000 0.72970  0.15220  0.45460  Biso   1.000  O
  O30      1.0000 0.27030  0.15220  0.95460  Biso   1.000  O
  O31      1.0000 0.15220  0.77030  0.20460  Biso   1.000  O
  O32      1.0000 0.15220  0.22970  0.20460  Biso   1.000  O
  O33      1.0000 0.90140  0.58810  0.99730  Biso   1.000  O
  O34      1.0000 0.09860  0.58810  0.49730  Biso   1.000  O
  O35      1.0000 0.58810  0.59860  0.24730  Biso   1.000  O
  O36      1.0000 0.58810  0.40140  0.24730  Biso   1.000  O
  O37      1.0000 0.09860  0.41190  0.99730  Biso   1.000  O
  O38      1.0000 0.90140  0.41190  0.49730  Biso   1.000  O
  O39      1.0000 0.41190  0.40140  0.24730  Biso   1.000  O
  O40      1.0000 0.41190  0.59860  0.24730  Biso   1.000  O
  O41      1.0000 0.40140  0.08810  0.49730  Biso   1.000  O
  O42      1.0000 0.59860  0.08810  0.99730  Biso   1.000  O
  O43      1.0000 0.08810  0.09860  0.24730  Biso   1.000  O
  O44      1.0000 0.08810  0.90140  0.24730  Biso   1.000  O
  O45      1.0000 0.59860  0.91190  0.49730  Biso   1.000  O
  O46      1.0000 0.40140  0.91190  0.99730  Biso   1.000  O
  O47      1.0000 0.91190  0.90140  0.24730  Biso   1.000  O
  O48      1.0000 0.91190  0.09860  0.24730  Biso   1.000  O
  O49      1.0000 0.09020  0.42200  0.06920  Biso   1.000  O
  O50      1.0000 0.90980  0.42200  0.56920  Biso   1.000  O
  O51      1.0000 0.42200  0.40980  0.31920  Biso   1.000  O
  O52      1.0000 0.42200  0.59020  0.31920  Biso   1.000  O
  O53      1.0000 0.90980  0.57800  0.06920  Biso   1.000  O
  O54      1.0000 0.09020  0.57800  0.56920  Biso   1.000  O
  O55      1.0000 0.57800  0.59020  0.31920  Biso   1.000  O
  O56      1.0000 0.57800  0.40980  0.31920  Biso   1.000  O
  O57      1.0000 0.59020  0.92200  0.56920  Biso   1.000  O
  O58      1.0000 0.40980  0.92200  0.06920  Biso   1.000  O
  O59      1.0000 0.92200  0.90980  0.31920  Biso   1.000  O
  O60      1.0000 0.92200  0.09020  0.31920  Biso   1.000  O
  O61      1.0000 0.40980  0.07800  0.56920  Biso   1.000  O
  O62      1.0000 0.59020  0.07800  0.06920  Biso   1.000  O
  O63      1.0000 0.07800  0.09020  0.31920  Biso   1.000  O
  O64      1.0000 0.07800  0.90980  0.31920  Biso   1.000  O
  O65      1.0000 0.20650  0.31970  0.10290  Biso   1.000  O
  O66      1.0000 0.79350  0.31970  0.60290  Biso   1.000  O
  O67      1.0000 0.31970  0.29350  0.35290  Biso   1.000  O
  O68      1.0000 0.31970  0.70650  0.35290  Biso   1.000  O
  O69      1.0000 0.79350  0.68030  0.10290  Biso   1.000  O
  O70      1.0000 0.20650  0.68030  0.60290  Biso   1.000  O
  O71      1.0000 0.68030  0.70650  0.35290  Biso   1.000  O
  O72      1.0000 0.68030  0.29350  0.35290  Biso   1.000  O
  O73      1.0000 0.70650  0.81970  0.60290  Biso   1.000  O
  O74      1.0000 0.29350  0.81970  0.10290  Biso   1.000  O
  O75      1.0000 0.81970  0.79350  0.35290  Biso   1.000  O
  O76      1.0000 0.81970  0.20650  0.35290  Biso   1.000  O
  O77      1.0000 0.29350  0.18030  0.60290  Biso   1.000  O
  O78      1.0000 0.70650  0.18030  0.10290  Biso   1.000  O
  O79      1.0000 0.18030  0.20650  0.35290  Biso   1.000  O
  O80      1.0000 0.18030  0.79350  0.35290  Biso   1.000  O
  O81      1.0000 0.11200  0.57870  0.06430  Biso   1.000  O
  O82      1.0000 0.88800  0.57870  0.56430  Biso   1.000  O
  O83      1.0000 0.57870  0.38800  0.31430  Biso   1.000  O
  O84      1.0000 0.57870  0.61200  0.31430  Biso   1.000  O
  O85      1.0000 0.88800  0.42130  0.06430  Biso   1.000  O
  O86      1.0000 0.11200  0.42130  0.56430  Biso   1.000  O
  O87      1.0000 0.42130  0.61200  0.31430  Biso   1.000  O
  O88      1.0000 0.42130  0.38800  0.31430  Biso   1.000  O
  O89      1.0000 0.61200  0.07870  0.56430  Biso   1.000  O
  O90      1.0000 0.38800  0.07870  0.06430  Biso   1.000  O
  O91      1.0000 0.07870  0.88800  0.31430  Biso   1.000  O
  O92      1.0000 0.07870  0.11200  0.31430  Biso   1.000  O
  O93      1.0000 0.38800  0.92130  0.56430  Biso   1.000  O
  O94      1.0000 0.61200  0.92130  0.06430  Biso   1.000  O
  O95      1.0000 0.92130  0.11200  0.31430  Biso   1.000  O
  O96      1.0000 0.92130  0.88800  0.31430  Biso   1.000  O
  N1       1.0000 0.99230  0.25230  0.03010  Biso   1.000  N
  N2       1.0000 0.00770  0.25230  0.53010  Biso   1.000  N
  N3       1.0000 0.25230  0.50770  0.28010  Biso   1.000  N
  N4       1.0000 0.25230  0.49230  0.28010  Biso   1.000  N
  N5       1.0000 0.00770  0.74770  0.03010  Biso   1.000  N
  N6       1.0000 0.99230  0.74770  0.53010  Biso   1.000  N
  N7       1.0000 0.74770  0.49230  0.28010  Biso   1.000  N
  N8       1.0000 0.74770  0.50770  0.28010  Biso   1.000  N
  N9       1.0000 0.49230  0.75230  0.53010  Biso   1.000  N
  N10      1.0000 0.50770  0.75230  0.03010  Biso   1.000  N
  N11      1.0000 0.75230  0.00770  0.28010  Biso   1.000  N
  N12      1.0000 0.75230  0.99230  0.28010  Biso   1.000  N
  N13      1.0000 0.50770  0.24770  0.53010  Biso   1.000  N
  N14      1.0000 0.49230  0.24770  0.03010  Biso   1.000  N
  N15      1.0000 0.24770  0.99230  0.28010  Biso   1.000  N
  N16      1.0000 0.24770  0.00770  0.28010  Biso   1.000  N
  C1       1.0000 0.86550  0.51060  0.98360  Biso   1.000  C
  C2       1.0000 0.13450  0.51060  0.48360  Biso   1.000  C
  C3       1.0000 0.51060  0.63450  0.23360  Biso   1.000  C
  C4       1.0000 0.51060  0.36550  0.23360  Biso   1.000  C
  C5       1.0000 0.13450  0.48940  0.98360  Biso   1.000  C
  C6       1.0000 0.86550  0.48940  0.48360  Biso   1.000  C
  C7       1.0000 0.48940  0.36550  0.23360  Biso   1.000  C
  C8       1.0000 0.48940  0.63450  0.23360  Biso   1.000  C
  C9       1.0000 0.36550  0.01060  0.48360  Biso   1.000  C
  C10      1.0000 0.63450  0.01060  0.98360  Biso   1.000  C
  C11      1.0000 0.01060  0.13450  0.23360  Biso   1.000  C
  C12      1.0000 0.01060  0.86550  0.23360  Biso   1.000  C
  C13      1.0000 0.63450  0.98940  0.48360  Biso   1.000  C
  C14      1.0000 0.36550  0.98940  0.98360  Biso   1.000  C
  C15      1.0000 0.98940  0.86550  0.23360  Biso   1.000  C
  C16      1.0000 0.98940  0.13450  0.23360  Biso   1.000  C
  C17      1.0000 0.78110  0.51830  0.96130  Biso   1.000  C
  C18      1.0000 0.21890  0.51830  0.46130  Biso   1.000  C
  C19      1.0000 0.51830  0.71890  0.21130  Biso   1.000  C
  C20      1.0000 0.51830  0.28110  0.21130  Biso   1.000  C
  C21      1.0000 0.21890  0.48170  0.96130  Biso   1.000  C
  C22      1.0000 0.78110  0.48170  0.46130  Biso   1.000  C
  C23      1.0000 0.48170  0.28110  0.21130  Biso   1.000  C
  C24      1.0000 0.48170  0.71890  0.21130  Biso   1.000  C
  C25      1.0000 0.28110  0.01830  0.46130  Biso   1.000  C
  C26      1.0000 0.71890  0.01830  0.96130  Biso   1.000  C
  C27      1.0000 0.01830  0.21890  0.21130  Biso   1.000  C
  C28      1.0000 0.01830  0.78110  0.21130  Biso   1.000  C
  C29      1.0000 0.71890  0.98170  0.46130  Biso   1.000  C
  C30      1.0000 0.28110  0.98170  0.96130  Biso   1.000  C
  C31      1.0000 0.98170  0.78110  0.21130  Biso   1.000  C
  C32      1.0000 0.98170  0.21890  0.21130  Biso   1.000  C
  C33      1.0000 0.73860  0.43580  0.94540  Biso   1.000  C
  C34      1.0000 0.26140  0.43580  0.44540  Biso   1.000  C
  C35      1.0000 0.43580  0.76140  0.19540  Biso   1.000  C
  C36      1.0000 0.43580  0.23860  0.19540  Biso   1.000  C
  C37      1.0000 0.26140  0.56420  0.94540  Biso   1.000  C
  C38      1.0000 0.73860  0.56420  0.44540  Biso   1.000  C
  C39      1.0000 0.56420  0.23860  0.19540  Biso   1.000  C
  C40      1.0000 0.56420  0.76140  0.19540  Biso   1.000  C
  C41      1.0000 0.23860  0.93580  0.44540  Biso   1.000  C
  C42      1.0000 0.76140  0.93580  0.94540  Biso   1.000  C
  C43      1.0000 0.93580  0.26140  0.19540  Biso   1.000  C
  C44      1.0000 0.93580  0.73860  0.19540  Biso   1.000  C
  C45      1.0000 0.76140  0.06420  0.44540  Biso   1.000  C
  C46      1.0000 0.23860  0.06420  0.94540  Biso   1.000  C
  C47      1.0000 0.06420  0.73860  0.19540  Biso   1.000  C
  C48      1.0000 0.06420  0.26140  0.19540  Biso   1.000  C
  C49      1.0000 0.66020  0.44720  0.92380  Biso   1.000  C
  C50      1.0000 0.33980  0.44720  0.42380  Biso   1.000  C
  C51      1.0000 0.44720  0.83980  0.17380  Biso   1.000  C
  C52      1.0000 0.44720  0.16020  0.17380  Biso   1.000  C
  C53      1.0000 0.33980  0.55280  0.92380  Biso   1.000  C
  C54      1.0000 0.66020  0.55280  0.42380  Biso   1.000  C
  C55      1.0000 0.55280  0.16020  0.17380  Biso   1.000  C
  C56      1.0000 0.55280  0.83980  0.17380  Biso   1.000  C
  C57      1.0000 0.16020  0.94720  0.42380  Biso   1.000  C
  C58      1.0000 0.83980  0.94720  0.92380  Biso   1.000  C
  C59      1.0000 0.94720  0.33980  0.17380  Biso   1.000  C
  C60      1.0000 0.94720  0.66020  0.17380  Biso   1.000  C
  C61      1.0000 0.83980  0.05280  0.42380  Biso   1.000  C
  C62      1.0000 0.16020  0.05280  0.92380  Biso   1.000  C
  C63      1.0000 0.05280  0.66020  0.17380  Biso   1.000  C
  C64      1.0000 0.05280  0.33980  0.17380  Biso   1.000  C
  C65      1.0000 0.62490  0.53870  0.91620  Biso   1.000  C
  C66      1.0000 0.37510  0.53870  0.41620  Biso   1.000  C
  C67      1.0000 0.53870  0.87510  0.16620  Biso   1.000  C
  C68      1.0000 0.53870  0.12490  0.16620  Biso   1.000  C
  C69      1.0000 0.37510  0.46130  0.91620  Biso   1.000  C
  C70      1.0000 0.62490  0.46130  0.41620  Biso   1.000  C
  C71      1.0000 0.46130  0.12490  0.16620  Biso   1.000  C
  C72      1.0000 0.46130  0.87510  0.16620  Biso   1.000  C
  C73      1.0000 0.12490  0.03870  0.41620  Biso   1.000  C
  C74      1.0000 0.87510  0.03870  0.91620  Biso   1.000  C
  C75      1.0000 0.03870  0.37510  0.16620  Biso   1.000  C
  C76      1.0000 0.03870  0.62490  0.16620  Biso   1.000  C
  C77      1.0000 0.87510  0.96130  0.41620  Biso   1.000  C
  C78      1.0000 0.12490  0.96130  0.91620  Biso   1.000  C
  C79      1.0000 0.96130  0.62490  0.16620  Biso   1.000  C
  C80      1.0000 0.96130  0.37510  0.16620  Biso   1.000  C
  C81      1.0000 0.66510  0.61730  0.93270  Biso   1.000  C
  C82      1.0000 0.33490  0.61730  0.43270  Biso   1.000  C
  C83      1.0000 0.61730  0.83490  0.18270  Biso   1.000  C
  C84      1.0000 0.61730  0.16510  0.18270  Biso   1.000  C
  C85      1.0000 0.33490  0.38270  0.93270  Biso   1.000  C
  C86      1.0000 0.66510  0.38270  0.43270  Biso   1.000  C
  C87      1.0000 0.38270  0.16510  0.18270  Biso   1.000  C
  C88      1.0000 0.38270  0.83490  0.18270  Biso   1.000  C
  C89      1.0000 0.16510  0.11730  0.43270  Biso   1.000  C
  C90      1.0000 0.83490  0.11730  0.93270  Biso   1.000  C
  C91      1.0000 0.11730  0.33490  0.18270  Biso   1.000  C
  C92      1.0000 0.11730  0.66510  0.18270  Biso   1.000  C
  C93      1.0000 0.83490  0.88270  0.43270  Biso   1.000  C
  C94      1.0000 0.16510  0.88270  0.93270  Biso   1.000  C
  C95      1.0000 0.88270  0.66510  0.18270  Biso   1.000  C
  C96      1.0000 0.88270  0.33490  0.18270  Biso   1.000  C
  C97      1.0000 0.74130  0.60860  0.95310  Biso   1.000  C
  C98      1.0000 0.25870  0.60860  0.45310  Biso   1.000  C
  C99      1.0000 0.60860  0.75870  0.20310  Biso   1.000  C
  C100     1.0000 0.60860  0.24130  0.20310  Biso   1.000  C
  C101     1.0000 0.25870  0.39140  0.95310  Biso   1.000  C
  C102     1.0000 0.74130  0.39140  0.45310  Biso   1.000  C
  C103     1.0000 0.39140  0.24130  0.20310  Biso   1.000  C
  C104     1.0000 0.39140  0.75870  0.20310  Biso   1.000  C
  C105     1.0000 0.24130  0.10860  0.45310  Biso   1.000  C
  C106     1.0000 0.75870  0.10860  0.95310  Biso   1.000  C
  C107     1.0000 0.10860  0.25870  0.20310  Biso   1.000  C
  C108     1.0000 0.10860  0.74130  0.20310  Biso   1.000  C
  C109     1.0000 0.75870  0.89140  0.45310  Biso   1.000  C
  C110     1.0000 0.24130  0.89140  0.95310  Biso   1.000  C
  C111     1.0000 0.89140  0.74130  0.20310  Biso   1.000  C
  C112     1.0000 0.89140  0.25870  0.20310  Biso   1.000  C
  C113     1.0000 0.13380  0.49850  0.07410  Biso   1.000  C
  C114     1.0000 0.86620  0.49850  0.57410  Biso   1.000  C
  C115     1.0000 0.49850  0.36620  0.32410  Biso   1.000  C
  C116     1.0000 0.49850  0.63380  0.32410  Biso   1.000  C
  C117     1.0000 0.86620  0.50150  0.07410  Biso   1.000  C
  C118     1.0000 0.13380  0.50150  0.57410  Biso   1.000  C
  C119     1.0000 0.50150  0.63380  0.32410  Biso   1.000  C
  C120     1.0000 0.50150  0.36620  0.32410  Biso   1.000  C
  C121     1.0000 0.63380  0.99850  0.57410  Biso   1.000  C
  C122     1.0000 0.36620  0.99850  0.07410  Biso   1.000  C
  C123     1.0000 0.99850  0.86620  0.32410  Biso   1.000  C
  C124     1.0000 0.99850  0.13380  0.32410  Biso   1.000  C
  C125     1.0000 0.36620  0.00150  0.57410  Biso   1.000  C
  C126     1.0000 0.63380  0.00150  0.07410  Biso   1.000  C
  C127     1.0000 0.00150  0.13380  0.32410  Biso   1.000  C
  C128     1.0000 0.00150  0.86620  0.32410  Biso   1.000  C
  C129     1.0000 0.21510  0.49150  0.09920  Biso   1.000  C
  C130     1.0000 0.78490  0.49150  0.59920  Biso   1.000  C
  C131     1.0000 0.49150  0.28490  0.34920  Biso   1.000  C
  C132     1.0000 0.49150  0.71510  0.34920  Biso   1.000  C
  C133     1.0000 0.78490  0.50850  0.09920  Biso   1.000  C
  C134     1.0000 0.21510  0.50850  0.59920  Biso   1.000  C
  C135     1.0000 0.50850  0.71510  0.34920  Biso   1.000  C
  C136     1.0000 0.50850  0.28490  0.34920  Biso   1.000  C
  C137     1.0000 0.71510  0.99150  0.59920  Biso   1.000  C
  C138     1.0000 0.28490  0.99150  0.09920  Biso   1.000  C
  C139     1.0000 0.99150  0.78490  0.34920  Biso   1.000  C
  C140     1.0000 0.99150  0.21510  0.34920  Biso   1.000  C
  C141     1.0000 0.28490  0.00850  0.59920  Biso   1.000  C
  C142     1.0000 0.71510  0.00850  0.09920  Biso   1.000  C
  C143     1.0000 0.00850  0.21510  0.34920  Biso   1.000  C
  C144     1.0000 0.00850  0.78490  0.34920  Biso   1.000  C
  C145     1.0000 0.24690  0.40040  0.11120  Biso   1.000  C
  C146     1.0000 0.75310  0.40040  0.61120  Biso   1.000  C
  C147     1.0000 0.40040  0.25310  0.36120  Biso   1.000  C
  C148     1.0000 0.40040  0.74690  0.36120  Biso   1.000  C
  C149     1.0000 0.75310  0.59960  0.11120  Biso   1.000  C
  C150     1.0000 0.24690  0.59960  0.61120  Biso   1.000  C
  C151     1.0000 0.59960  0.74690  0.36120  Biso   1.000  C
  C152     1.0000 0.59960  0.25310  0.36120  Biso   1.000  C
  C153     1.0000 0.74690  0.90040  0.61120  Biso   1.000  C
  C154     1.0000 0.25310  0.90040  0.11120  Biso   1.000  C
  C155     1.0000 0.90040  0.75310  0.36120  Biso   1.000  C
  C156     1.0000 0.90040  0.24690  0.36120  Biso   1.000  C
  C157     1.0000 0.25310  0.09960  0.61120  Biso   1.000  C
  C158     1.0000 0.74690  0.09960  0.11120  Biso   1.000  C
  C159     1.0000 0.09960  0.24690  0.36120  Biso   1.000  C
  C160     1.0000 0.09960  0.75310  0.36120  Biso   1.000  C
  C161     1.0000 0.32310  0.39950  0.13690  Biso   1.000  C
  C162     1.0000 0.67690  0.39950  0.63690  Biso   1.000  C
  C163     1.0000 0.39950  0.17690  0.38690  Biso   1.000  C
  C164     1.0000 0.39950  0.82310  0.38690  Biso   1.000  C
  C165     1.0000 0.67690  0.60050  0.13690  Biso   1.000  C
  C166     1.0000 0.32310  0.60050  0.63690  Biso   1.000  C
  C167     1.0000 0.60050  0.82310  0.38690  Biso   1.000  C
  C168     1.0000 0.60050  0.17690  0.38690  Biso   1.000  C
  C169     1.0000 0.82310  0.89950  0.63690  Biso   1.000  C
  C170     1.0000 0.17690  0.89950  0.13690  Biso   1.000  C
  C171     1.0000 0.89950  0.67690  0.38690  Biso   1.000  C
  C172     1.0000 0.89950  0.32310  0.38690  Biso   1.000  C
  C173     1.0000 0.17690  0.10050  0.63690  Biso   1.000  C
  C174     1.0000 0.82310  0.10050  0.13690  Biso   1.000  C
  C175     1.0000 0.10050  0.32310  0.38690  Biso   1.000  C
  C176     1.0000 0.10050  0.67690  0.38690  Biso   1.000  C
  C177     1.0000 0.36190  0.48420  0.14760  Biso   1.000  C
  C178     1.0000 0.63810  0.48420  0.64760  Biso   1.000  C
  C179     1.0000 0.48420  0.13810  0.39760  Biso   1.000  C
  C180     1.0000 0.48420  0.86190  0.39760  Biso   1.000  C
  C181     1.0000 0.63810  0.51580  0.14760  Biso   1.000  C
  C182     1.0000 0.36190  0.51580  0.64760  Biso   1.000  C
  C183     1.0000 0.51580  0.86190  0.39760  Biso   1.000  C
  C184     1.0000 0.51580  0.13810  0.39760  Biso   1.000  C
  C185     1.0000 0.86190  0.98420  0.64760  Biso   1.000  C
  C186     1.0000 0.13810  0.98420  0.14760  Biso   1.000  C
  C187     1.0000 0.98420  0.63810  0.39760  Biso   1.000  C
  C188     1.0000 0.98420  0.36190  0.39760  Biso   1.000  C
  C189     1.0000 0.13810  0.01580  0.64760  Biso   1.000  C
  C190     1.0000 0.86190  0.01580  0.14760  Biso   1.000  C
  C191     1.0000 0.01580  0.36190  0.39760  Biso   1.000  C
  C192     1.0000 0.01580  0.63810  0.39760  Biso   1.000  C
  C193     1.0000 0.33840  0.57060  0.13340  Biso   1.000  C
  C194     1.0000 0.66160  0.57060  0.63340  Biso   1.000  C
  C195     1.0000 0.57060  0.16160  0.38340  Biso   1.000  C
  C196     1.0000 0.57060  0.83840  0.38340  Biso   1.000  C
  C197     1.0000 0.66160  0.42940  0.13340  Biso   1.000  C
  C198     1.0000 0.33840  0.42940  0.63340  Biso   1.000  C
  C199     1.0000 0.42940  0.83840  0.38340  Biso   1.000  C
  C200     1.0000 0.42940  0.16160  0.38340  Biso   1.000  C
  C201     1.0000 0.83840  0.07060  0.63340  Biso   1.000  C
  C202     1.0000 0.16160  0.07060  0.13340  Biso   1.000  C
  C203     1.0000 0.07060  0.66160  0.38340  Biso   1.000  C
  C204     1.0000 0.07060  0.33840  0.38340  Biso   1.000  C
  C205     1.0000 0.16160  0.92940  0.63340  Biso   1.000  C
  C206     1.0000 0.83840  0.92940  0.13340  Biso   1.000  C
  C207     1.0000 0.92940  0.33840  0.38340  Biso   1.000  C
  C208     1.0000 0.92940  0.66160  0.38340  Biso   1.000  C
  C209     1.0000 0.26390  0.57490  0.10840  Biso   1.000  C
  C210     1.0000 0.73610  0.57490  0.60840  Biso   1.000  C
  C211     1.0000 0.57490  0.23610  0.35840  Biso   1.000  C
  C212     1.0000 0.57490  0.76390  0.35840  Biso   1.000  C
  C213     1.0000 0.73610  0.42510  0.10840  Biso   1.000  C
  C214     1.0000 0.26390  0.42510  0.60840  Biso   1.000  C
  C215     1.0000 0.42510  0.76390  0.35840  Biso   1.000  C
  C216     1.0000 0.42510  0.23610  0.35840  Biso   1.000  C
  C217     1.0000 0.76390  0.07490  0.60840  Biso   1.000  C
  C218     1.0000 0.23610  0.07490  0.10840  Biso   1.000  C
  C219     1.0000 0.07490  0.73610  0.35840  Biso   1.000  C
  C220     1.0000 0.07490  0.26390  0.35840  Biso   1.000  C
  C221     1.0000 0.23610  0.92510  0.60840  Biso   1.000  C
  C222     1.0000 0.76390  0.92510  0.10840  Biso   1.000  C
  C223     1.0000 0.92510  0.26390  0.35840  Biso   1.000  C
  C224     1.0000 0.92510  0.73610  0.35840  Biso   1.000  C
  C225     1.0000 0.02200  0.20320  0.00000  Biso   1.000  C
  C226     1.0000 0.97800  0.20320  0.50000  Biso   1.000  C
  C227     1.0000 0.20320  0.47800  0.25000  Biso   1.000  C
  C228     1.0000 0.20320  0.52200  0.25000  Biso   1.000  C
  C229     1.0000 0.97800  0.79680  0.00000  Biso   1.000  C
  C230     1.0000 0.02200  0.79680  0.50000  Biso   1.000  C
  C231     1.0000 0.79680  0.52200  0.25000  Biso   1.000  C
  C232     1.0000 0.79680  0.47800  0.25000  Biso   1.000  C
  C233     1.0000 0.52200  0.70320  0.50000  Biso   1.000  C
  C234     1.0000 0.47800  0.70320  0.00000  Biso   1.000  C
  C235     1.0000 0.70320  0.97800  0.25000  Biso   1.000  C
  C236     1.0000 0.70320  0.02200  0.25000  Biso   1.000  C
  C237     1.0000 0.47800  0.29680  0.50000  Biso   1.000  C
  C238     1.0000 0.52200  0.29680  0.00000  Biso   1.000  C
  C239     1.0000 0.29680  0.02200  0.25000  Biso   1.000  C
  C240     1.0000 0.29680  0.97800  0.25000  Biso   1.000  C
  C241     1.0000 0.07420  0.20430  0.02110  Biso   1.000  C
  C242     1.0000 0.92580  0.20430  0.52110  Biso   1.000  C
  C243     1.0000 0.20430  0.42580  0.27110  Biso   1.000  C
  C244     1.0000 0.20430  0.57420  0.27110  Biso   1.000  C
  C245     1.0000 0.92580  0.79570  0.02110  Biso   1.000  C
  C246     1.0000 0.07420  0.79570  0.52110  Biso   1.000  C
  C247     1.0000 0.79570  0.57420  0.27110  Biso   1.000  C
  C248     1.0000 0.79570  0.42580  0.27110  Biso   1.000  C
  C249     1.0000 0.57420  0.70430  0.52110  Biso   1.000  C
  C250     1.0000 0.42580  0.70430  0.02110  Biso   1.000  C
  C251     1.0000 0.70430  0.92580  0.27110  Biso   1.000  C
  C252     1.0000 0.70430  0.07420  0.27110  Biso   1.000  C
  C253     1.0000 0.42580  0.29570  0.52110  Biso   1.000  C
  C254     1.0000 0.57420  0.29570  0.02110  Biso   1.000  C
  C255     1.0000 0.29570  0.07420  0.27110  Biso   1.000  C
  C256     1.0000 0.29570  0.92580  0.27110  Biso   1.000  C
  C257     1.0000 0.02900  0.10200  0.00110  Biso   1.000  C
  C258     1.0000 0.97100  0.10200  0.50110  Biso   1.000  C
  C259     1.0000 0.10200  0.47100  0.25110  Biso   1.000  C
  C260     1.0000 0.10200  0.52900  0.25110  Biso   1.000  C
  C261     1.0000 0.97100  0.89800  0.00110  Biso   1.000  C
  C262     1.0000 0.02900  0.89800  0.50110  Biso   1.000  C
  C263     1.0000 0.89800  0.52900  0.25110  Biso   1.000  C
  C264     1.0000 0.89800  0.47100  0.25110  Biso   1.000  C
  C265     1.0000 0.52900  0.60200  0.50110  Biso   1.000  C
  C266     1.0000 0.47100  0.60200  0.00110  Biso   1.000  C
  C267     1.0000 0.60200  0.97100  0.25110  Biso   1.000  C
  C268     1.0000 0.60200  0.02900  0.25110  Biso   1.000  C
  C269     1.0000 0.47100  0.39800  0.50110  Biso   1.000  C
  C270     1.0000 0.52900  0.39800  0.00110  Biso   1.000  C
  C271     1.0000 0.39800  0.02900  0.25110  Biso   1.000  C
  C272     1.0000 0.39800  0.97100  0.25110  Biso   1.000  C
  C273     1.0000 0.07760  0.10460  0.02110  Biso   1.000  C
  C274     1.0000 0.92240  0.10460  0.52110  Biso   1.000  C
  C275     1.0000 0.10460  0.42240  0.27110  Biso   1.000  C
  C276     1.0000 0.10460  0.57760  0.27110  Biso   1.000  C
  C277     1.0000 0.92240  0.89540  0.02110  Biso   1.000  C
  C278     1.0000 0.07760  0.89540  0.52110  Biso   1.000  C
  C279     1.0000 0.89540  0.57760  0.27110  Biso   1.000  C
  C280     1.0000 0.89540  0.42240  0.27110  Biso   1.000  C
  C281     1.0000 0.57760  0.60460  0.52110  Biso   1.000  C
  C282     1.0000 0.42240  0.60460  0.02110  Biso   1.000  C
  C283     1.0000 0.60460  0.92240  0.27110  Biso   1.000  C
  C284     1.0000 0.60460  0.07760  0.27110  Biso   1.000  C
  C285     1.0000 0.42240  0.39540  0.52110  Biso   1.000  C
  C286     1.0000 0.57760  0.39540  0.02110  Biso   1.000  C
  C287     1.0000 0.39540  0.07760  0.27110  Biso   1.000  C
  C288     1.0000 0.39540  0.92240  0.27110  Biso   1.000  C
  C289     1.0000 0.99860  0.05390  0.03000  Biso   1.000  C
  C290     1.0000 0.00140  0.05390  0.53000  Biso   1.000  C
  C291     1.0000 0.05390  0.50140  0.28000  Biso   1.000  C
  C292     1.0000 0.05390  0.49860  0.28000  Biso   1.000  C
  C293     1.0000 0.00140  0.94610  0.03000  Biso   1.000  C
  C294     1.0000 0.99860  0.94610  0.53000  Biso   1.000  C
  C295     1.0000 0.94610  0.49860  0.28000  Biso   1.000  C
  C296     1.0000 0.94610  0.50140  0.28000  Biso   1.000  C
  C297     1.0000 0.49860  0.55390  0.53000  Biso   1.000  C
  C298     1.0000 0.50140  0.55390  0.03000  Biso   1.000  C
  C299     1.0000 0.55390  0.00140  0.28000  Biso   1.000  C
  C300     1.0000 0.55390  0.99860  0.28000  Biso   1.000  C
  C301     1.0000 0.50140  0.44610  0.53000  Biso   1.000  C
  C302     1.0000 0.49860  0.44610  0.03000  Biso   1.000  C
  C303     1.0000 0.44610  0.99860  0.28000  Biso   1.000  C
  C304     1.0000 0.44610  0.00140  0.28000  Biso   1.000  C
  C305     1.0000 0.96000  0.10420  0.05880  Biso   1.000  C
  C306     1.0000 0.04000  0.10420  0.55880  Biso   1.000  C
  C307     1.0000 0.10420  0.54000  0.30880  Biso   1.000  C
  C308     1.0000 0.10420  0.46000  0.30880  Biso   1.000  C
  C309     1.0000 0.04000  0.89580  0.05880  Biso   1.000  C
  C310     1.0000 0.96000  0.89580  0.55880  Biso   1.000  C
  C311     1.0000 0.89580  0.46000  0.30880  Biso   1.000  C
  C312     1.0000 0.89580  0.54000  0.30880  Biso   1.000  C
  C313     1.0000 0.46000  0.60420  0.55880  Biso   1.000  C
  C314     1.0000 0.54000  0.60420  0.05880  Biso   1.000  C
  C315     1.0000 0.60420  0.04000  0.30880  Biso   1.000  C
  C316     1.0000 0.60420  0.96000  0.30880  Biso   1.000  C
  C317     1.0000 0.54000  0.39580  0.55880  Biso   1.000  C
  C318     1.0000 0.46000  0.39580  0.05880  Biso   1.000  C
  C319     1.0000 0.39580  0.96000  0.30880  Biso   1.000  C
  C320     1.0000 0.39580  0.04000  0.30880  Biso   1.000  C
  C321     1.0000 0.91740  0.10280  0.03630  Biso   1.000  C
  C322     1.0000 0.08260  0.10280  0.53630  Biso   1.000  C
  C323     1.0000 0.10280  0.58260  0.28630  Biso   1.000  C
  C324     1.0000 0.10280  0.41740  0.28630  Biso   1.000  C
  C325     1.0000 0.08260  0.89720  0.03630  Biso   1.000  C
  C326     1.0000 0.91740  0.89720  0.53630  Biso   1.000  C
  C327     1.0000 0.89720  0.41740  0.28630  Biso   1.000  C
  C328     1.0000 0.89720  0.58260  0.28630  Biso   1.000  C
  C329     1.0000 0.41740  0.60280  0.53630  Biso   1.000  C
  C330     1.0000 0.58260  0.60280  0.03630  Biso   1.000  C
  C331     1.0000 0.60280  0.08260  0.28630  Biso   1.000  C
  C332     1.0000 0.60280  0.91740  0.28630  Biso   1.000  C
  C333     1.0000 0.58260  0.39720  0.53630  Biso   1.000  C
  C334     1.0000 0.41740  0.39720  0.03630  Biso   1.000  C
  C335     1.0000 0.39720  0.91740  0.28630  Biso   1.000  C
  C336     1.0000 0.39720  0.08260  0.28630  Biso   1.000  C
  C337     1.0000 0.95700  0.20210  0.05620  Biso   1.000  C
  C338     1.0000 0.04300  0.20210  0.55620  Biso   1.000  C
  C339     1.0000 0.20210  0.54300  0.30620  Biso   1.000  C
  C340     1.0000 0.20210  0.45700  0.30620  Biso   1.000  C
  C341     1.0000 0.04300  0.79790  0.05620  Biso   1.000  C
  C342     1.0000 0.95700  0.79790  0.55620  Biso   1.000  C
  C343     1.0000 0.79790  0.45700  0.30620  Biso   1.000  C
  C344     1.0000 0.79790  0.54300  0.30620  Biso   1.000  C
  C345     1.0000 0.45700  0.70210  0.55620  Biso   1.000  C
  C346     1.0000 0.54300  0.70210  0.05620  Biso   1.000  C
  C347     1.0000 0.70210  0.04300  0.30620  Biso   1.000  C
  C348     1.0000 0.70210  0.95700  0.30620  Biso   1.000  C
  C349     1.0000 0.54300  0.29790  0.55620  Biso   1.000  C
  C350     1.0000 0.45700  0.29790  0.05620  Biso   1.000  C
  C351     1.0000 0.29790  0.95700  0.30620  Biso   1.000  C
  C352     1.0000 0.29790  0.04300  0.30620  Biso   1.000  C
  C353     1.0000 0.91840  0.20500  0.03630  Biso   1.000  C
  C354     1.0000 0.08160  0.20500  0.53630  Biso   1.000  C
  C355     1.0000 0.20500  0.58160  0.28630  Biso   1.000  C
  C356     1.0000 0.20500  0.41840  0.28630  Biso   1.000  C
  C357     1.0000 0.08160  0.79500  0.03630  Biso   1.000  C
  C358     1.0000 0.91840  0.79500  0.53630  Biso   1.000  C
  C359     1.0000 0.79500  0.41840  0.28630  Biso   1.000  C
  C360     1.0000 0.79500  0.58160  0.28630  Biso   1.000  C
  C361     1.0000 0.41840  0.70500  0.53630  Biso   1.000  C
  C362     1.0000 0.58160  0.70500  0.03630  Biso   1.000  C
  C363     1.0000 0.70500  0.08160  0.28630  Biso   1.000  C
  C364     1.0000 0.70500  0.91840  0.28630  Biso   1.000  C
  C365     1.0000 0.58160  0.29500  0.53630  Biso   1.000  C
  C366     1.0000 0.41840  0.29500  0.03630  Biso   1.000  C
  C367     1.0000 0.29500  0.91840  0.28630  Biso   1.000  C
  C368     1.0000 0.29500  0.08160  0.28630  Biso   1.000  C
  H1       1.0000 0.62660  0.39260  0.91520  Biso   1.000  H
  H2       1.0000 0.37340  0.39260  0.41520  Biso   1.000  H
  H3       1.0000 0.39260  0.87340  0.16520  Biso   1.000  H
  H4       1.0000 0.39260  0.12660  0.16520  Biso   1.000  H
  H5       1.0000 0.37340  0.60740  0.91520  Biso   1.000  H
  H6       1.0000 0.62660  0.60740  0.41520  Biso   1.000  H
  H7       1.0000 0.60740  0.12660  0.16520  Biso   1.000  H
  H8       1.0000 0.60740  0.87340  0.16520  Biso   1.000  H
  H9       1.0000 0.12660  0.89260  0.41520  Biso   1.000  H
  H10      1.0000 0.87340  0.89260  0.91520  Biso   1.000  H
  H11      1.0000 0.89260  0.37340  0.16520  Biso   1.000  H
  H12      1.0000 0.89260  0.62660  0.16520  Biso   1.000  H
  H13      1.0000 0.87340  0.10740  0.41520  Biso   1.000  H
  H14      1.0000 0.12660  0.10740  0.91520  Biso   1.000  H
  H15      1.0000 0.10740  0.62660  0.16520  Biso   1.000  H
  H16      1.0000 0.10740  0.37340  0.16520  Biso   1.000  H
  H17      1.0000 0.57380  0.54650  0.90010  Biso   1.000  H
  H18      1.0000 0.42620  0.54650  0.40010  Biso   1.000  H
  H19      1.0000 0.54650  0.92620  0.15010  Biso   1.000  H
  H20      1.0000 0.54650  0.07380  0.15010  Biso   1.000  H
  H21      1.0000 0.42620  0.45350  0.90010  Biso   1.000  H
  H22      1.0000 0.57380  0.45350  0.40010  Biso   1.000  H
  H23      1.0000 0.45350  0.07380  0.15010  Biso   1.000  H
  H24      1.0000 0.45350  0.92620  0.15010  Biso   1.000  H
  H25      1.0000 0.07380  0.04650  0.40010  Biso   1.000  H
  H26      1.0000 0.92620  0.04650  0.90010  Biso   1.000  H
  H27      1.0000 0.04650  0.42620  0.15010  Biso   1.000  H
  H28      1.0000 0.04650  0.57380  0.15010  Biso   1.000  H
  H29      1.0000 0.92620  0.95350  0.40010  Biso   1.000  H
  H30      1.0000 0.07380  0.95350  0.90010  Biso   1.000  H
  H31      1.0000 0.95350  0.57380  0.15010  Biso   1.000  H
  H32      1.0000 0.95350  0.42620  0.15010  Biso   1.000  H
  H33      1.0000 0.63720  0.67990  0.92880  Biso   1.000  H
  H34      1.0000 0.36280  0.67990  0.42880  Biso   1.000  H
  H35      1.0000 0.67990  0.86280  0.17880  Biso   1.000  H
  H36      1.0000 0.67990  0.13720  0.17880  Biso   1.000  H
  H37      1.0000 0.36280  0.32010  0.92880  Biso   1.000  H
  H38      1.0000 0.63720  0.32010  0.42880  Biso   1.000  H
  H39      1.0000 0.32010  0.13720  0.17880  Biso   1.000  H
  H40      1.0000 0.32010  0.86280  0.17880  Biso   1.000  H
  H41      1.0000 0.13720  0.17990  0.42880  Biso   1.000  H
  H42      1.0000 0.86280  0.17990  0.92880  Biso   1.000  H
  H43      1.0000 0.17990  0.36280  0.17880  Biso   1.000  H
  H44      1.0000 0.17990  0.63720  0.17880  Biso   1.000  H
  H45      1.0000 0.86280  0.82010  0.42880  Biso   1.000  H
  H46      1.0000 0.13720  0.82010  0.92880  Biso   1.000  H
  H47      1.0000 0.82010  0.63720  0.17880  Biso   1.000  H
  H48      1.0000 0.82010  0.36280  0.17880  Biso   1.000  H
  H49      1.0000 0.76930  0.66330  0.96320  Biso   1.000  H
  H50      1.0000 0.23070  0.66330  0.46320  Biso   1.000  H
  H51      1.0000 0.66330  0.73070  0.21320  Biso   1.000  H
  H52      1.0000 0.66330  0.26930  0.21320  Biso   1.000  H
  H53      1.0000 0.23070  0.33670  0.96320  Biso   1.000  H
  H54      1.0000 0.76930  0.33670  0.46320  Biso   1.000  H
  H55      1.0000 0.33670  0.26930  0.21320  Biso   1.000  H
  H56      1.0000 0.33670  0.73070  0.21320  Biso   1.000  H
  H57      1.0000 0.26930  0.16330  0.46320  Biso   1.000  H
  H58      1.0000 0.73070  0.16330  0.96320  Biso   1.000  H
  H59      1.0000 0.16330  0.23070  0.21320  Biso   1.000  H
  H60      1.0000 0.16330  0.76930  0.21320  Biso   1.000  H
  H61      1.0000 0.73070  0.83670  0.46320  Biso   1.000  H
  H62      1.0000 0.26930  0.83670  0.96320  Biso   1.000  H
  H63      1.0000 0.83670  0.76930  0.21320  Biso   1.000  H
  H64      1.0000 0.83670  0.23070  0.21320  Biso   1.000  H
  H65      1.0000 0.34600  0.34040  0.14540  Biso   1.000  H
  H66      1.0000 0.65400  0.34040  0.64540  Biso   1.000  H
  H67      1.0000 0.34040  0.15400  0.39540  Biso   1.000  H
  H68      1.0000 0.34040  0.84600  0.39540  Biso   1.000  H
  H69      1.0000 0.65400  0.65960  0.14540  Biso   1.000  H
  H70      1.0000 0.34600  0.65960  0.64540  Biso   1.000  H
  H71      1.0000 0.65960  0.84600  0.39540  Biso   1.000  H
  H72      1.0000 0.65960  0.15400  0.39540  Biso   1.000  H
  H73      1.0000 0.84600  0.84040  0.64540  Biso   1.000  H
  H74      1.0000 0.15400  0.84040  0.14540  Biso   1.000  H
  H75      1.0000 0.84040  0.65400  0.39540  Biso   1.000  H
  H76      1.0000 0.84040  0.34600  0.39540  Biso   1.000  H
  H77      1.0000 0.15400  0.15960  0.64540  Biso   1.000  H
  H78      1.0000 0.84600  0.15960  0.14540  Biso   1.000  H
  H79      1.0000 0.15960  0.34600  0.39540  Biso   1.000  H
  H80      1.0000 0.15960  0.65400  0.39540  Biso   1.000  H
  H81      1.0000 0.40460  0.48210  0.16630  Biso   1.000  H
  H82      1.0000 0.59540  0.48210  0.66630  Biso   1.000  H
  H83      1.0000 0.48210  0.09540  0.41630  Biso   1.000  H
  H84      1.0000 0.48210  0.90460  0.41630  Biso   1.000  H
  H85      1.0000 0.59540  0.51790  0.16630  Biso   1.000  H
  H86      1.0000 0.40460  0.51790  0.66630  Biso   1.000  H
  H87      1.0000 0.51790  0.90460  0.41630  Biso   1.000  H
  H88      1.0000 0.51790  0.09540  0.41630  Biso   1.000  H
  H89      1.0000 0.90460  0.98210  0.66630  Biso   1.000  H
  H90      1.0000 0.09540  0.98210  0.16630  Biso   1.000  H
  H91      1.0000 0.98210  0.59540  0.41630  Biso   1.000  H
  H92      1.0000 0.98210  0.40460  0.41630  Biso   1.000  H
  H93      1.0000 0.09540  0.01790  0.66630  Biso   1.000  H
  H94      1.0000 0.90460  0.01790  0.16630  Biso   1.000  H
  H95      1.0000 0.01790  0.40460  0.41630  Biso   1.000  H
  H96      1.0000 0.01790  0.59540  0.41630  Biso   1.000  H
  H97      1.0000 0.37270  0.62580  0.13960  Biso   1.000  H
  H98      1.0000 0.62730  0.62580  0.63960  Biso   1.000  H
  H99      1.0000 0.62580  0.12730  0.38960  Biso   1.000  H
  H100     1.0000 0.62580  0.87270  0.38960  Biso   1.000  H
  H101     1.0000 0.62730  0.37420  0.13960  Biso   1.000  H
  H102     1.0000 0.37270  0.37420  0.63960  Biso   1.000  H
  H103     1.0000 0.37420  0.87270  0.38960  Biso   1.000  H
  H104     1.0000 0.37420  0.12730  0.38960  Biso   1.000  H
  H105     1.0000 0.87270  0.12580  0.63960  Biso   1.000  H
  H106     1.0000 0.12730  0.12580  0.13960  Biso   1.000  H
  H107     1.0000 0.12580  0.62730  0.38960  Biso   1.000  H
  H108     1.0000 0.12580  0.37270  0.38960  Biso   1.000  H
  H109     1.0000 0.12730  0.87420  0.63960  Biso   1.000  H
  H110     1.0000 0.87270  0.87420  0.13960  Biso   1.000  H
  H111     1.0000 0.87420  0.37270  0.38960  Biso   1.000  H
  H112     1.0000 0.87420  0.62730  0.38960  Biso   1.000  H
  H113     1.0000 0.25010  0.63290  0.09800  Biso   1.000  H
  H114     1.0000 0.74990  0.63290  0.59800  Biso   1.000  H
  H115     1.0000 0.63290  0.24990  0.34800  Biso   1.000  H
  H116     1.0000 0.63290  0.75010  0.34800  Biso   1.000  H
  H117     1.0000 0.74990  0.36710  0.09800  Biso   1.000  H
  H118     1.0000 0.25010  0.36710  0.59800  Biso   1.000  H
  H119     1.0000 0.36710  0.75010  0.34800  Biso   1.000  H
  H120     1.0000 0.36710  0.24990  0.34800  Biso   1.000  H
  H121     1.0000 0.75010  0.13290  0.59800  Biso   1.000  H
  H122     1.0000 0.24990  0.13290  0.09800  Biso   1.000  H
  H123     1.0000 0.13290  0.74990  0.34800  Biso   1.000  H
  H124     1.0000 0.13290  0.25010  0.34800  Biso   1.000  H
  H125     1.0000 0.24990  0.86710  0.59800  Biso   1.000  H
  H126     1.0000 0.75010  0.86710  0.09800  Biso   1.000  H
  H127     1.0000 0.86710  0.25010  0.34800  Biso   1.000  H
  H128     1.0000 0.86710  0.74990  0.34800  Biso   1.000  H
