data_image0
_cell_length_a       18.746
_cell_length_b       11.9969
_cell_length_c       11.619
_cell_angle_alpha    90
_cell_angle_beta     121.424
_cell_angle_gamma    90

_symmetry_space_group_name_H-M    "P 1"
_symmetry_int_tables_number       1

loop_
  _symmetry_equiv_pos_as_xyz
  'x, y, z'

loop_
  _atom_site_label
  _atom_site_occupancy
  _atom_site_fract_x
  _atom_site_fract_y
  _atom_site_fract_z
  _atom_site_thermal_displace_type
  _atom_site_B_iso_or_equiv
  _atom_site_type_symbol
  Cu1      1.0000 0.25000  0.25000  0.50000  Biso   1.000  Cu
  Cu2      1.0000 0.75000  0.25000  0.00000  Biso   1.000  Cu
  Cu3      1.0000 0.75000  0.75000  0.50000  Biso   1.000  Cu
  Cu4      1.0000 0.25000  0.75000  0.00000  Biso   1.000  Cu
  Cl1      1.0000 0.30881  0.14262  0.68855  Biso   1.000  Cl
  Cl2      1.0000 0.69119  0.14262  0.81145  Biso   1.000  Cl
  Cl3      1.0000 0.80881  0.64262  0.68855  Biso   1.000  Cl
  Cl4      1.0000 0.19119  0.64262  0.81145  Biso   1.000  Cl
  Cl5      1.0000 0.69119  0.85738  0.31145  Biso   1.000  Cl
  Cl6      1.0000 0.30881  0.85738  0.18855  Biso   1.000  Cl
  Cl7      1.0000 0.19119  0.35738  0.31145  Biso   1.000  Cl
  Cl8      1.0000 0.80881  0.35738  0.18855  Biso   1.000  Cl
  S1       1.0000 0.55004  0.10507  0.40440  Biso   1.000  S
  S2       1.0000 0.44996  0.10507  0.09560  Biso   1.000  S
  S3       1.0000 0.05004  0.60507  0.40440  Biso   1.000  S
  S4       1.0000 0.94996  0.60507  0.09560  Biso   1.000  S
  S5       1.0000 0.44996  0.89493  0.59560  Biso   1.000  S
  S6       1.0000 0.55004  0.89493  0.90440  Biso   1.000  S
  S7       1.0000 0.94996  0.39493  0.59560  Biso   1.000  S
  S8       1.0000 0.05004  0.39493  0.90440  Biso   1.000  S
  N1       1.0000 0.34110  0.20980  0.46900  Biso   1.000  N
  N2       1.0000 0.65890  0.20980  0.03100  Biso   1.000  N
  N3       1.0000 0.84110  0.70980  0.46900  Biso   1.000  N
  N4       1.0000 0.15890  0.70980  0.03100  Biso   1.000  N
  N5       1.0000 0.65890  0.79020  0.53100  Biso   1.000  N
  N6       1.0000 0.34110  0.79020  0.96900  Biso   1.000  N
  N7       1.0000 0.15890  0.29020  0.53100  Biso   1.000  N
  N8       1.0000 0.84110  0.29020  0.96900  Biso   1.000  N
  C1       1.0000 0.50000  0.02850  0.25000  Biso   1.000  C
  C2       1.0000 0.00000  0.52850  0.25000  Biso   1.000  C
  C3       1.0000 0.50000  0.97150  0.75000  Biso   1.000  C
  C4       1.0000 0.00000  0.47150  0.75000  Biso   1.000  C
  H1       1.0000 0.45830  0.98060  0.24980  Biso   1.000  H
  H2       1.0000 0.54170  0.98060  0.25020  Biso   1.000  H
  H3       1.0000 0.95830  0.48060  0.24980  Biso   1.000  H
  H4       1.0000 0.04170  0.48060  0.25020  Biso   1.000  H
  H5       1.0000 0.54170  0.01940  0.75020  Biso   1.000  H
  H6       1.0000 0.45830  0.01940  0.74980  Biso   1.000  H
  H7       1.0000 0.04170  0.51940  0.75020  Biso   1.000  H
  H8       1.0000 0.95830  0.51940  0.74980  Biso   1.000  H
  C5       1.0000 0.42050  0.23690  0.55200  Biso   1.000  C
  C6       1.0000 0.57950  0.23690  0.94800  Biso   1.000  C
  C7       1.0000 0.92050  0.73690  0.55200  Biso   1.000  C
  C8       1.0000 0.07950  0.73690  0.94800  Biso   1.000  C
  C9       1.0000 0.57950  0.76310  0.44800  Biso   1.000  C
  C10      1.0000 0.42050  0.76310  0.05200  Biso   1.000  C
  C11      1.0000 0.07950  0.26310  0.44800  Biso   1.000  C
  C12      1.0000 0.92050  0.26310  0.05200  Biso   1.000  C
  H9       1.0000 0.43400  0.27660  0.62950  Biso   1.000  H
  H10      1.0000 0.56600  0.27660  0.87050  Biso   1.000  H
  H11      1.0000 0.93400  0.77660  0.62950  Biso   1.000  H
  H12      1.0000 0.06600  0.77660  0.87050  Biso   1.000  H
  H13      1.0000 0.56600  0.72340  0.37050  Biso   1.000  H
  H14      1.0000 0.43400  0.72340  0.12950  Biso   1.000  H
  H15      1.0000 0.06600  0.22340  0.37050  Biso   1.000  H
  H16      1.0000 0.93400  0.22340  0.12950  Biso   1.000  H
  C13      1.0000 0.48360  0.20920  0.53240  Biso   1.000  C
  C14      1.0000 0.51640  0.20920  0.96760  Biso   1.000  C
  C15      1.0000 0.98360  0.70920  0.53240  Biso   1.000  C
  C16      1.0000 0.01640  0.70920  0.96760  Biso   1.000  C
  C17      1.0000 0.51640  0.79080  0.46760  Biso   1.000  C
  C18      1.0000 0.48360  0.79080  0.03240  Biso   1.000  C
  C19      1.0000 0.01640  0.29080  0.46760  Biso   1.000  C
  C20      1.0000 0.98360  0.29080  0.03240  Biso   1.000  C
  H17      1.0000 0.53800  0.23310  0.59200  Biso   1.000  H
  H18      1.0000 0.46200  0.23310  0.90800  Biso   1.000  H
  H19      1.0000 0.03800  0.73310  0.59200  Biso   1.000  H
  H20      1.0000 0.96200  0.73310  0.90800  Biso   1.000  H
  H21      1.0000 0.46200  0.76690  0.40800  Biso   1.000  H
  H22      1.0000 0.53800  0.76690  0.09200  Biso   1.000  H
  H23      1.0000 0.96200  0.26690  0.40800  Biso   1.000  H
  H24      1.0000 0.03800  0.26690  0.09200  Biso   1.000  H
  C21      1.0000 0.46460  0.14800  0.41770  Biso   1.000  C
  C22      1.0000 0.53540  0.14800  0.08230  Biso   1.000  C
  C23      1.0000 0.96460  0.64800  0.41770  Biso   1.000  C
  C24      1.0000 0.03540  0.64800  0.08230  Biso   1.000  C
  C25      1.0000 0.53540  0.85200  0.58230  Biso   1.000  C
  C26      1.0000 0.46460  0.85200  0.91770  Biso   1.000  C
  C27      1.0000 0.03540  0.35200  0.58230  Biso   1.000  C
  C28      1.0000 0.96460  0.35200  0.91770  Biso   1.000  C
  C29      1.0000 0.38320  0.11820  0.33120  Biso   1.000  C
  C30      1.0000 0.61680  0.11820  0.16880  Biso   1.000  C
  C31      1.0000 0.88320  0.61820  0.33120  Biso   1.000  C
  C32      1.0000 0.11680  0.61820  0.16880  Biso   1.000  C
  C33      1.0000 0.61680  0.88180  0.66880  Biso   1.000  C
  C34      1.0000 0.38320  0.88180  0.83120  Biso   1.000  C
  C35      1.0000 0.11680  0.38180  0.66880  Biso   1.000  C
  C36      1.0000 0.88320  0.38180  0.83120  Biso   1.000  C
  H25      1.0000 0.36790  0.07740  0.25370  Biso   1.000  H
  H26      1.0000 0.63210  0.07740  0.24630  Biso   1.000  H
  H27      1.0000 0.86790  0.57740  0.25370  Biso   1.000  H
  H28      1.0000 0.13210  0.57740  0.24630  Biso   1.000  H
  H29      1.0000 0.63210  0.92260  0.74630  Biso   1.000  H
  H30      1.0000 0.36790  0.92260  0.75370  Biso   1.000  H
  H31      1.0000 0.13210  0.42260  0.74630  Biso   1.000  H
  H32      1.0000 0.86790  0.42260  0.75370  Biso   1.000  H
  C37      1.0000 0.32360  0.15290  0.35940  Biso   1.000  C
  C38      1.0000 0.67640  0.15290  0.14060  Biso   1.000  C
  C39      1.0000 0.82360  0.65290  0.35940  Biso   1.000  C
  C40      1.0000 0.17640  0.65290  0.14060  Biso   1.000  C
  C41      1.0000 0.67640  0.84710  0.64060  Biso   1.000  C
  C42      1.0000 0.32360  0.84710  0.85940  Biso   1.000  C
  C43      1.0000 0.17640  0.34710  0.64060  Biso   1.000  C
  C44      1.0000 0.82360  0.34710  0.85940  Biso   1.000  C
  H33      1.0000 0.26790  0.13580  0.29770  Biso   1.000  H
  H34      1.0000 0.73210  0.13580  0.20230  Biso   1.000  H
  H35      1.0000 0.76790  0.63580  0.29770  Biso   1.000  H
  H36      1.0000 0.23210  0.63580  0.20230  Biso   1.000  H
  H37      1.0000 0.73210  0.86420  0.70230  Biso   1.000  H
  H38      1.0000 0.26790  0.86420  0.79770  Biso   1.000  H
  H39      1.0000 0.23210  0.36420  0.70230  Biso   1.000  H
  H40      1.0000 0.76790  0.36420  0.79770  Biso   1.000  H
