data_image0
_cell_length_a       17.659
_cell_length_b       13.109
_cell_length_c       12.019
_cell_angle_alpha    90
_cell_angle_beta     122.62
_cell_angle_gamma    90

_symmetry_space_group_name_H-M    "P 1"
_symmetry_int_tables_number       1

loop_
  _symmetry_equiv_pos_as_xyz
  'x, y, z'

loop_
  _atom_site_label
  _atom_site_occupancy
  _atom_site_fract_x
  _atom_site_fract_y
  _atom_site_fract_z
  _atom_site_thermal_displace_type
  _atom_site_B_iso_or_equiv
  _atom_site_type_symbol
  Cu1      1.0000 0.75000  0.75000  0.00000  Biso   1.000  Cu
  Cu2      1.0000 0.25000  0.75000  0.50000  Biso   1.000  Cu
  Cu3      1.0000 0.25000  0.25000  0.00000  Biso   1.000  Cu
  Cu4      1.0000 0.75000  0.25000  0.50000  Biso   1.000  Cu
  S1       1.0000 0.05733  0.58333  0.90140  Biso   1.000  S
  S2       1.0000 0.94267  0.58333  0.59860  Biso   1.000  S
  S3       1.0000 0.55733  0.08333  0.90140  Biso   1.000  S
  S4       1.0000 0.44267  0.08333  0.59860  Biso   1.000  S
  S5       1.0000 0.94267  0.41667  0.09860  Biso   1.000  S
  S6       1.0000 0.05733  0.41667  0.40140  Biso   1.000  S
  S7       1.0000 0.44267  0.91667  0.09860  Biso   1.000  S
  S8       1.0000 0.55733  0.91667  0.40140  Biso   1.000  S
  N1       1.0000 0.84210  0.70240  0.96440  Biso   1.000  N
  N2       1.0000 0.15790  0.70240  0.53560  Biso   1.000  N
  N3       1.0000 0.34210  0.20240  0.96440  Biso   1.000  N
  N4       1.0000 0.65790  0.20240  0.53560  Biso   1.000  N
  N5       1.0000 0.15790  0.29760  0.03560  Biso   1.000  N
  N6       1.0000 0.84210  0.29760  0.46440  Biso   1.000  N
  N7       1.0000 0.65790  0.79760  0.03560  Biso   1.000  N
  N8       1.0000 0.34210  0.79760  0.46440  Biso   1.000  N
  C1       1.0000 0.00000  0.51230  0.75000  Biso   1.000  C
  C2       1.0000 0.50000  0.01230  0.75000  Biso   1.000  C
  C3       1.0000 0.00000  0.48770  0.25000  Biso   1.000  C
  C4       1.0000 0.50000  0.98770  0.25000  Biso   1.000  C
  H1       1.0000 0.95640  0.46840  0.75160  Biso   1.000  H
  H2       1.0000 0.04360  0.46840  0.74840  Biso   1.000  H
  H3       1.0000 0.45640  0.96840  0.75160  Biso   1.000  H
  H4       1.0000 0.54360  0.96840  0.74840  Biso   1.000  H
  H5       1.0000 0.04360  0.53160  0.24840  Biso   1.000  H
  H6       1.0000 0.95640  0.53160  0.25160  Biso   1.000  H
  H7       1.0000 0.54360  0.03160  0.24840  Biso   1.000  H
  H8       1.0000 0.45640  0.03160  0.25160  Biso   1.000  H
  C5       1.0000 0.88010  0.61130  0.82940  Biso   1.000  C
  C6       1.0000 0.11990  0.61130  0.67060  Biso   1.000  C
  C7       1.0000 0.38010  0.11130  0.82940  Biso   1.000  C
  C8       1.0000 0.61990  0.11130  0.67060  Biso   1.000  C
  C9       1.0000 0.11990  0.38870  0.17060  Biso   1.000  C
  C10      1.0000 0.88010  0.38870  0.32940  Biso   1.000  C
  C11      1.0000 0.61990  0.88870  0.17060  Biso   1.000  C
  C12      1.0000 0.38010  0.88870  0.32940  Biso   1.000  C
  H9       1.0000 0.86060  0.57270  0.75370  Biso   1.000  H
  H10      1.0000 0.13940  0.57270  0.74630  Biso   1.000  H
  H11      1.0000 0.36060  0.07270  0.75370  Biso   1.000  H
  H12      1.0000 0.63940  0.07270  0.74630  Biso   1.000  H
  H13      1.0000 0.13940  0.42730  0.24630  Biso   1.000  H
  H14      1.0000 0.86060  0.42730  0.25370  Biso   1.000  H
  H15      1.0000 0.63940  0.92730  0.24630  Biso   1.000  H
  H16      1.0000 0.36060  0.92730  0.25370  Biso   1.000  H
  C13      1.0000 0.81890  0.65030  0.85640  Biso   1.000  C
  C14      1.0000 0.18110  0.65030  0.64360  Biso   1.000  C
  C15      1.0000 0.31890  0.15030  0.85640  Biso   1.000  C
  C16      1.0000 0.68110  0.15030  0.64360  Biso   1.000  C
  C17      1.0000 0.18110  0.34970  0.14360  Biso   1.000  C
  C18      1.0000 0.81890  0.34970  0.35640  Biso   1.000  C
  C19      1.0000 0.68110  0.84970  0.14360  Biso   1.000  C
  C20      1.0000 0.31890  0.84970  0.35640  Biso   1.000  C
  H17      1.0000 0.75800  0.63930  0.79520  Biso   1.000  H
  H18      1.0000 0.24200  0.63930  0.70480  Biso   1.000  H
  H19      1.0000 0.25800  0.13930  0.79520  Biso   1.000  H
  H20      1.0000 0.74200  0.13930  0.70480  Biso   1.000  H
  H21      1.0000 0.24200  0.36070  0.20480  Biso   1.000  H
  H22      1.0000 0.75800  0.36070  0.29520  Biso   1.000  H
  H23      1.0000 0.74200  0.86070  0.20480  Biso   1.000  H
  H24      1.0000 0.25800  0.86070  0.29520  Biso   1.000  H
  C21      1.0000 0.99480  0.68740  0.02780  Biso   1.000  C
  C22      1.0000 0.00520  0.68740  0.47220  Biso   1.000  C
  C23      1.0000 0.49480  0.18740  0.02780  Biso   1.000  C
  C24      1.0000 0.50520  0.18740  0.47220  Biso   1.000  C
  C25      1.0000 0.00520  0.31260  0.97220  Biso   1.000  C
  C26      1.0000 0.99480  0.31260  0.52780  Biso   1.000  C
  C27      1.0000 0.50520  0.81260  0.97220  Biso   1.000  C
  C28      1.0000 0.49480  0.81260  0.52780  Biso   1.000  C
  H25      1.0000 0.05480  0.70310  0.08820  Biso   1.000  H
  H26      1.0000 0.94520  0.70310  0.41180  Biso   1.000  H
  H27      1.0000 0.55480  0.20310  0.08820  Biso   1.000  H
  H28      1.0000 0.44520  0.20310  0.41180  Biso   1.000  H
  H29      1.0000 0.94520  0.29690  0.91180  Biso   1.000  H
  H30      1.0000 0.05480  0.29690  0.58820  Biso   1.000  H
  H31      1.0000 0.44520  0.79690  0.91180  Biso   1.000  H
  H32      1.0000 0.55480  0.79690  0.58820  Biso   1.000  H
  C29      1.0000 0.92880  0.72010  0.04790  Biso   1.000  C
  C30      1.0000 0.07120  0.72010  0.45210  Biso   1.000  C
  C31      1.0000 0.42880  0.22010  0.04790  Biso   1.000  C
  C32      1.0000 0.57120  0.22010  0.45210  Biso   1.000  C
  C33      1.0000 0.07120  0.27990  0.95210  Biso   1.000  C
  C34      1.0000 0.92880  0.27990  0.54790  Biso   1.000  C
  C35      1.0000 0.57120  0.77990  0.95210  Biso   1.000  C
  C36      1.0000 0.42880  0.77990  0.54790  Biso   1.000  C
  H33      1.0000 0.94630  0.75670  0.12440  Biso   1.000  H
  H34      1.0000 0.05370  0.75670  0.37560  Biso   1.000  H
  H35      1.0000 0.44630  0.25670  0.12440  Biso   1.000  H
  H36      1.0000 0.55370  0.25670  0.37560  Biso   1.000  H
  H37      1.0000 0.05370  0.24330  0.87560  Biso   1.000  H
  H38      1.0000 0.94630  0.24330  0.62440  Biso   1.000  H
  H39      1.0000 0.55370  0.74330  0.87560  Biso   1.000  H
  H40      1.0000 0.44630  0.74330  0.62440  Biso   1.000  H
  C37      1.0000 0.96950  0.63020  0.91540  Biso   1.000  C
  C38      1.0000 0.03050  0.63020  0.58460  Biso   1.000  C
  C39      1.0000 0.46950  0.13020  0.91540  Biso   1.000  C
  C40      1.0000 0.53050  0.13020  0.58460  Biso   1.000  C
  C41      1.0000 0.03050  0.36980  0.08460  Biso   1.000  C
  C42      1.0000 0.96950  0.36980  0.41540  Biso   1.000  C
  C43      1.0000 0.53050  0.86980  0.08460  Biso   1.000  C
  C44      1.0000 0.46950  0.86980  0.41540  Biso   1.000  C
  Cl1      1.0000 0.79859  0.63365  0.16500  Biso   1.000  Cl
  Cl2      1.0000 0.20141  0.63365  0.33500  Biso   1.000  Cl
  Cl3      1.0000 0.29859  0.13365  0.16500  Biso   1.000  Cl
  Cl4      1.0000 0.70141  0.13365  0.33500  Biso   1.000  Cl
  Cl5      1.0000 0.20141  0.36635  0.83500  Biso   1.000  Cl
  Cl6      1.0000 0.79859  0.36635  0.66500  Biso   1.000  Cl
  Cl7      1.0000 0.70141  0.86635  0.83500  Biso   1.000  Cl
  Cl8      1.0000 0.29859  0.86635  0.66500  Biso   1.000  Cl
  O1       1.0000 0.62550  0.60890  0.81510  Biso   1.000  O
  O2       1.0000 0.37450  0.60890  0.68490  Biso   1.000  O
  O3       1.0000 0.12550  0.10890  0.81510  Biso   1.000  O
  O4       1.0000 0.87450  0.10890  0.68490  Biso   1.000  O
  O5       1.0000 0.37450  0.39110  0.18490  Biso   1.000  O
  O6       1.0000 0.62550  0.39110  0.31510  Biso   1.000  O
  O7       1.0000 0.87450  0.89110  0.18490  Biso   1.000  O
  O8       1.0000 0.12550  0.89110  0.31510  Biso   1.000  O
  N9       1.0000 0.63060  0.44330  0.85320  Biso   1.000  N
  N10      1.0000 0.36940  0.44330  0.64680  Biso   1.000  N
  N11      1.0000 0.13060  0.94330  0.85320  Biso   1.000  N
  N12      1.0000 0.86940  0.94330  0.64680  Biso   1.000  N
  N13      1.0000 0.36940  0.55670  0.14680  Biso   1.000  N
  N14      1.0000 0.63060  0.55670  0.35320  Biso   1.000  N
  N15      1.0000 0.86940  0.05670  0.14680  Biso   1.000  N
  N16      1.0000 0.13060  0.05670  0.35320  Biso   1.000  N
  C45      1.0000 0.62550  0.53590  0.86960  Biso   1.000  C
  C46      1.0000 0.37450  0.53590  0.63040  Biso   1.000  C
  C47      1.0000 0.12550  0.03590  0.86960  Biso   1.000  C
  C48      1.0000 0.87450  0.03590  0.63040  Biso   1.000  C
  C49      1.0000 0.37450  0.46410  0.13040  Biso   1.000  C
  C50      1.0000 0.62550  0.46410  0.36960  Biso   1.000  C
  C51      1.0000 0.87450  0.96410  0.13040  Biso   1.000  C
  C52      1.0000 0.12550  0.96410  0.36960  Biso   1.000  C
  H41      1.0000 0.62070  0.54980  0.94150  Biso   1.000  H
  H42      1.0000 0.37930  0.54980  0.55850  Biso   1.000  H
  H43      1.0000 0.12070  0.04980  0.94150  Biso   1.000  H
  H44      1.0000 0.87930  0.04980  0.55850  Biso   1.000  H
  H45      1.0000 0.37930  0.45020  0.05850  Biso   1.000  H
  H46      1.0000 0.62070  0.45020  0.44150  Biso   1.000  H
  H47      1.0000 0.87930  0.95020  0.05850  Biso   1.000  H
  H48      1.0000 0.12070  0.95020  0.44150  Biso   1.000  H
  C53      1.0000 0.64000  0.36480  0.93500  Biso   1.000  C
  C54      1.0000 0.36000  0.36480  0.56500  Biso   1.000  C
  C55      1.0000 0.14000  0.86480  0.93500  Biso   1.000  C
  C56      1.0000 0.86000  0.86480  0.56500  Biso   1.000  C
  C57      1.0000 0.36000  0.63520  0.06500  Biso   1.000  C
  C58      1.0000 0.64000  0.63520  0.43500  Biso   1.000  C
  C59      1.0000 0.86000  0.13520  0.06500  Biso   1.000  C
  C60      1.0000 0.14000  0.13520  0.43500  Biso   1.000  C
  H49      1.0000 0.67710  0.38630  0.02550  Biso   1.000  H
  H50      1.0000 0.32290  0.38630  0.47450  Biso   1.000  H
  H51      1.0000 0.17710  0.88630  0.02550  Biso   1.000  H
  H52      1.0000 0.82290  0.88630  0.47450  Biso   1.000  H
  H53      1.0000 0.32290  0.61370  0.97450  Biso   1.000  H
  H54      1.0000 0.67710  0.61370  0.52550  Biso   1.000  H
  H55      1.0000 0.82290  0.11370  0.97450  Biso   1.000  H
  H56      1.0000 0.17710  0.11370  0.52550  Biso   1.000  H
  H57      1.0000 0.66680  0.30720  0.92030  Biso   1.000  H
  H58      1.0000 0.33320  0.30720  0.57970  Biso   1.000  H
  H59      1.0000 0.16680  0.80720  0.92030  Biso   1.000  H
  H60      1.0000 0.83320  0.80720  0.57970  Biso   1.000  H
  H61      1.0000 0.33320  0.69280  0.07970  Biso   1.000  H
  H62      1.0000 0.66680  0.69280  0.42030  Biso   1.000  H
  H63      1.0000 0.83320  0.19280  0.07970  Biso   1.000  H
  H64      1.0000 0.16680  0.19280  0.42030  Biso   1.000  H
  H65      1.0000 0.58160  0.34580  0.91710  Biso   1.000  H
  H66      1.0000 0.41840  0.34580  0.58290  Biso   1.000  H
  H67      1.0000 0.08160  0.84580  0.91710  Biso   1.000  H
  H68      1.0000 0.91840  0.84580  0.58290  Biso   1.000  H
  H69      1.0000 0.41840  0.65420  0.08290  Biso   1.000  H
  H70      1.0000 0.58160  0.65420  0.41710  Biso   1.000  H
  H71      1.0000 0.91840  0.15420  0.08290  Biso   1.000  H
  H72      1.0000 0.08160  0.15420  0.41710  Biso   1.000  H
  C61      1.0000 0.63700  0.41200  0.75700  Biso   1.000  C
  C62      1.0000 0.36300  0.41200  0.74300  Biso   1.000  C
  C63      1.0000 0.13700  0.91200  0.75700  Biso   1.000  C
  C64      1.0000 0.86300  0.91200  0.74300  Biso   1.000  C
  C65      1.0000 0.36300  0.58800  0.24300  Biso   1.000  C
  C66      1.0000 0.63700  0.58800  0.25700  Biso   1.000  C
  C67      1.0000 0.86300  0.08800  0.24300  Biso   1.000  C
  C68      1.0000 0.13700  0.08800  0.25700  Biso   1.000  C
  H73      1.0000 0.61420  0.46350  0.69030  Biso   1.000  H
  H74      1.0000 0.38580  0.46350  0.80970  Biso   1.000  H
  H75      1.0000 0.11420  0.96350  0.69030  Biso   1.000  H
  H76      1.0000 0.88580  0.96350  0.80970  Biso   1.000  H
  H77      1.0000 0.38580  0.53650  0.30970  Biso   1.000  H
  H78      1.0000 0.61420  0.53650  0.19030  Biso   1.000  H
  H79      1.0000 0.88580  0.03650  0.30970  Biso   1.000  H
  H80      1.0000 0.11420  0.03650  0.19030  Biso   1.000  H
  H81      1.0000 0.60170  0.35080  0.72110  Biso   1.000  H
  H82      1.0000 0.39830  0.35080  0.77890  Biso   1.000  H
  H83      1.0000 0.10170  0.85080  0.72110  Biso   1.000  H
  H84      1.0000 0.89830  0.85080  0.77890  Biso   1.000  H
  H85      1.0000 0.39830  0.64920  0.27890  Biso   1.000  H
  H86      1.0000 0.60170  0.64920  0.22110  Biso   1.000  H
  H87      1.0000 0.89830  0.14920  0.27890  Biso   1.000  H
  H88      1.0000 0.10170  0.14920  0.22110  Biso   1.000  H
  H89      1.0000 0.69840  0.39780  0.78910  Biso   1.000  H
  H90      1.0000 0.30160  0.39780  0.71090  Biso   1.000  H
  H91      1.0000 0.19840  0.89780  0.78910  Biso   1.000  H
  H92      1.0000 0.80160  0.89780  0.71090  Biso   1.000  H
  H93      1.0000 0.30160  0.60220  0.21090  Biso   1.000  H
  H94      1.0000 0.69840  0.60220  0.28910  Biso   1.000  H
  H95      1.0000 0.80160  0.10220  0.21090  Biso   1.000  H
  H96      1.0000 0.19840  0.10220  0.28910  Biso   1.000  H
