data_image0
_cell_length_a       8.4048
_cell_length_b       10.2379
_cell_length_c       17.7707
_cell_angle_alpha    90
_cell_angle_beta     104.405
_cell_angle_gamma    90

_symmetry_space_group_name_H-M    "P 1"
_symmetry_int_tables_number       1

loop_
  _symmetry_equiv_pos_as_xyz
  'x, y, z'

loop_
  _atom_site_label
  _atom_site_occupancy
  _atom_site_fract_x
  _atom_site_fract_y
  _atom_site_fract_z
  _atom_site_thermal_displace_type
  _atom_site_B_iso_or_equiv
  _atom_site_type_symbol
  Cu1      1.0000 0.60575  0.44226  0.43204  Biso   1.000  Cu
  Cu2      1.0000 0.39425  0.94226  0.06796  Biso   1.000  Cu
  Cu3      1.0000 0.39425  0.55774  0.56796  Biso   1.000  Cu
  Cu4      1.0000 0.60575  0.05774  0.93204  Biso   1.000  Cu
  C1       1.0000 0.52010  0.38920  0.19760  Biso   1.000  C
  C2       1.0000 0.47990  0.88920  0.30240  Biso   1.000  C
  C3       1.0000 0.47990  0.61080  0.80240  Biso   1.000  C
  C4       1.0000 0.52010  0.11080  0.69760  Biso   1.000  C
  C5       1.0000 0.56060  0.29720  0.14930  Biso   1.000  C
  C6       1.0000 0.43940  0.79720  0.35070  Biso   1.000  C
  C7       1.0000 0.43940  0.70280  0.85070  Biso   1.000  C
  C8       1.0000 0.56060  0.20280  0.64930  Biso   1.000  C
  H1       1.0000 0.63270  0.22970  0.16960  Biso   1.000  H
  H2       1.0000 0.36730  0.72970  0.33040  Biso   1.000  H
  H3       1.0000 0.36730  0.77030  0.83040  Biso   1.000  H
  H4       1.0000 0.63270  0.27030  0.66960  Biso   1.000  H
  C9       1.0000 0.49270  0.30590  0.06970  Biso   1.000  C
  C10      1.0000 0.50730  0.80590  0.43030  Biso   1.000  C
  C11      1.0000 0.50730  0.69410  0.93030  Biso   1.000  C
  C12      1.0000 0.49270  0.19410  0.56970  Biso   1.000  C
  C13      1.0000 0.38370  0.40560  0.03810  Biso   1.000  C
  C14      1.0000 0.61630  0.90560  0.46190  Biso   1.000  C
  C15      1.0000 0.61630  0.59440  0.96190  Biso   1.000  C
  C16      1.0000 0.38370  0.09440  0.53810  Biso   1.000  C
  H5       1.0000 0.33920  0.41080  0.98480  Biso   1.000  H
  H6       1.0000 0.66080  0.91080  0.51520  Biso   1.000  H
  H7       1.0000 0.66080  0.58920  0.01520  Biso   1.000  H
  H8       1.0000 0.33920  0.08920  0.48480  Biso   1.000  H
  C17      1.0000 0.34270  0.49730  0.08820  Biso   1.000  C
  C18      1.0000 0.65730  0.99730  0.41180  Biso   1.000  C
  C19      1.0000 0.65730  0.50270  0.91180  Biso   1.000  C
  C20      1.0000 0.34270  0.00270  0.58820  Biso   1.000  C
  C21      1.0000 0.41190  0.48890  0.16670  Biso   1.000  C
  C22      1.0000 0.58810  0.98890  0.33330  Biso   1.000  C
  C23      1.0000 0.58810  0.51110  0.83330  Biso   1.000  C
  C24      1.0000 0.41190  0.01110  0.66670  Biso   1.000  C
  H9       1.0000 0.38560  0.55120  0.19980  Biso   1.000  H
  H10      1.0000 0.61440  0.05120  0.30020  Biso   1.000  H
  H11      1.0000 0.61440  0.44880  0.80020  Biso   1.000  H
  H12      1.0000 0.38560  0.94880  0.69980  Biso   1.000  H
  C25      1.0000 0.58920  0.38090  0.28390  Biso   1.000  C
  C26      1.0000 0.41080  0.88090  0.21610  Biso   1.000  C
  C27      1.0000 0.41080  0.61910  0.71610  Biso   1.000  C
  C28      1.0000 0.58920  0.11910  0.78390  Biso   1.000  C
  C29      1.0000 0.53040  0.20710  0.01660  Biso   1.000  C
  C30      1.0000 0.46960  0.70710  0.48340  Biso   1.000  C
  C31      1.0000 0.46960  0.79290  0.98340  Biso   1.000  C
  C32      1.0000 0.53040  0.29290  0.51660  Biso   1.000  C
  C33      1.0000 0.13200  0.61710  0.99120  Biso   1.000  C
  C34      1.0000 0.86800  0.11710  0.50880  Biso   1.000  C
  C35      1.0000 0.86800  0.38290  0.00880  Biso   1.000  C
  C36      1.0000 0.13200  0.88290  0.49120  Biso   1.000  C
  C37      1.0000 0.01690  0.73170  0.98110  Biso   1.000  C
  C38      1.0000 0.98310  0.23170  0.51890  Biso   1.000  C
  C39      1.0000 0.98310  0.26830  0.01890  Biso   1.000  C
  C40      1.0000 0.01690  0.76830  0.48110  Biso   1.000  C
  C41      1.0000 0.94170  0.76970  0.90540  Biso   1.000  C
  C42      1.0000 0.05830  0.26970  0.59460  Biso   1.000  C
  C43      1.0000 0.05830  0.23030  0.09460  Biso   1.000  C
  C44      1.0000 0.94170  0.73030  0.40540  Biso   1.000  C
  H13      1.0000 0.96950  0.72890  0.86370  Biso   1.000  H
  H14      1.0000 0.03050  0.22890  0.63630  Biso   1.000  H
  H15      1.0000 0.03050  0.27110  0.13630  Biso   1.000  H
  H16      1.0000 0.96950  0.77110  0.36370  Biso   1.000  H
  C45      1.0000 0.82760  0.86650  0.89260  Biso   1.000  C
  C46      1.0000 0.17240  0.36650  0.60740  Biso   1.000  C
  C47      1.0000 0.17240  0.13350  0.10740  Biso   1.000  C
  C48      1.0000 0.82760  0.63350  0.39260  Biso   1.000  C
  H17      1.0000 0.77840  0.89100  0.84180  Biso   1.000  H
  H18      1.0000 0.22160  0.39100  0.65820  Biso   1.000  H
  H19      1.0000 0.22160  0.10900  0.15820  Biso   1.000  H
  H20      1.0000 0.77840  0.60900  0.34180  Biso   1.000  H
  C49      1.0000 0.85770  0.89260  0.02370  Biso   1.000  C
  C50      1.0000 0.14230  0.39260  0.47630  Biso   1.000  C
  C51      1.0000 0.14230  0.10740  0.97630  Biso   1.000  C
  C52      1.0000 0.85770  0.60740  0.52370  Biso   1.000  C
  H21      1.0000 0.82900  0.93560  0.06450  Biso   1.000  H
  H22      1.0000 0.17100  0.43560  0.43550  Biso   1.000  H
  H23      1.0000 0.17100  0.06440  0.93550  Biso   1.000  H
  H24      1.0000 0.82900  0.56440  0.56450  Biso   1.000  H
  C53      1.0000 0.97390  0.79590  0.04070  Biso   1.000  C
  C54      1.0000 0.02610  0.29590  0.45930  Biso   1.000  C
  C55      1.0000 0.02610  0.20410  0.95930  Biso   1.000  C
  C56      1.0000 0.97390  0.70410  0.54070  Biso   1.000  C
  H25      1.0000 0.02280  0.77420  0.09210  Biso   1.000  H
  H26      1.0000 0.97720  0.27420  0.40790  Biso   1.000  H
  H27      1.0000 0.97720  0.22580  0.90790  Biso   1.000  H
  H28      1.0000 0.02280  0.72580  0.59210  Biso   1.000  H
  N1       1.0000 0.78390  0.92780  0.95100  Biso   1.000  N
  N2       1.0000 0.21610  0.42780  0.54900  Biso   1.000  N
  N3       1.0000 0.21610  0.07220  0.04900  Biso   1.000  N
  N4       1.0000 0.78390  0.57220  0.45100  Biso   1.000  N
  N5       1.0000 0.23350  0.60160  0.06270  Biso   1.000  N
  N6       1.0000 0.76650  0.10160  0.43730  Biso   1.000  N
  N7       1.0000 0.76650  0.39840  0.93730  Biso   1.000  N
  N8       1.0000 0.23350  0.89840  0.56270  Biso   1.000  N
  H29      1.0000 0.23120  0.66190  0.09610  Biso   1.000  H
  H30      1.0000 0.76880  0.16190  0.40390  Biso   1.000  H
  H31      1.0000 0.76880  0.33810  0.90390  Biso   1.000  H
  H32      1.0000 0.23120  0.83810  0.59610  Biso   1.000  H
  O1       1.0000 0.53050  0.46380  0.32362  Biso   1.000  O
  O2       1.0000 0.46950  0.96380  0.17638  Biso   1.000  O
  O3       1.0000 0.46950  0.53620  0.67638  Biso   1.000  O
  O4       1.0000 0.53050  0.03620  0.82362  Biso   1.000  O
  O5       1.0000 0.69360  0.29930  0.31250  Biso   1.000  O
  O6       1.0000 0.30640  0.79930  0.18750  Biso   1.000  O
  O7       1.0000 0.30640  0.70070  0.68750  Biso   1.000  O
  O8       1.0000 0.69360  0.20070  0.81250  Biso   1.000  O
  O9       1.0000 0.47450  0.21600  0.94418  Biso   1.000  O
  O10      1.0000 0.52550  0.71600  0.55582  Biso   1.000  O
  O11      1.0000 0.52550  0.78400  0.05582  Biso   1.000  O
  O12      1.0000 0.47450  0.28400  0.44418  Biso   1.000  O
  O13      1.0000 0.62080  0.10940  0.04172  Biso   1.000  O
  O14      1.0000 0.37920  0.60940  0.45828  Biso   1.000  O
  O15      1.0000 0.37920  0.89060  0.95828  Biso   1.000  O
  O16      1.0000 0.62080  0.39060  0.54172  Biso   1.000  O
  O17      1.0000 0.12710  0.54270  0.93745  Biso   1.000  O
  O18      1.0000 0.87290  0.04270  0.56255  Biso   1.000  O
  O19      1.0000 0.87290  0.45730  0.06255  Biso   1.000  O
  O20      1.0000 0.12710  0.95730  0.43745  Biso   1.000  O
  O21      1.0000 0.83710  0.87960  0.20490  Biso   1.000  O
  O22      1.0000 0.16290  0.37960  0.29510  Biso   1.000  O
  O23      1.0000 0.16290  0.12040  0.79510  Biso   1.000  O
  O24      1.0000 0.83710  0.62040  0.70490  Biso   1.000  O
  O25      1.0000 0.91800  0.58150  0.21240  Biso   1.000  O
  O26      1.0000 0.08200  0.08150  0.28760  Biso   1.000  O
  O27      1.0000 0.08200  0.41850  0.78760  Biso   1.000  O
  O28      1.0000 0.91800  0.91850  0.71240  Biso   1.000  O
  O29      1.0000 0.02500  0.56600  0.20110  Biso   1.000  O
  O30      1.0000 0.97500  0.06600  0.29890  Biso   1.000  O
  O31      1.0000 0.97500  0.43400  0.79890  Biso   1.000  O
  O32      1.0000 0.02500  0.93400  0.70110  Biso   1.000  O
