data_image0
_cell_length_a       8.405
_cell_length_b       10.293
_cell_length_c       17.812
_cell_angle_alpha    90
_cell_angle_beta     104.582
_cell_angle_gamma    90

_symmetry_space_group_name_H-M    "P 1"
_symmetry_int_tables_number       1

loop_
  _symmetry_equiv_pos_as_xyz
  'x, y, z'

loop_
  _atom_site_label
  _atom_site_occupancy
  _atom_site_fract_x
  _atom_site_fract_y
  _atom_site_fract_z
  _atom_site_thermal_displace_type
  _atom_site_B_iso_or_equiv
  _atom_site_type_symbol
  Cu1      1.0000 0.60564  0.55755  0.93198  Biso   1.000  Cu
  Cu2      1.0000 0.39436  0.05755  0.56802  Biso   1.000  Cu
  Cu3      1.0000 0.39436  0.44245  0.06802  Biso   1.000  Cu
  Cu4      1.0000 0.60564  0.94245  0.43198  Biso   1.000  Cu
  O1       1.0000 0.12440  0.45910  0.43674  Biso   1.000  O
  O2       1.0000 0.87560  0.95910  0.06326  Biso   1.000  O
  O3       1.0000 0.87560  0.54090  0.56326  Biso   1.000  O
  O4       1.0000 0.12440  0.04090  0.93674  Biso   1.000  O
  O5       1.0000 0.53090  0.53750  0.82375  Biso   1.000  O
  O6       1.0000 0.46910  0.03750  0.67625  Biso   1.000  O
  O7       1.0000 0.46910  0.46250  0.17625  Biso   1.000  O
  O8       1.0000 0.53090  0.96250  0.32375  Biso   1.000  O
  O9       1.0000 0.69360  0.70260  0.81292  Biso   1.000  O
  O10      1.0000 0.30640  0.20260  0.68708  Biso   1.000  O
  O11      1.0000 0.30640  0.29740  0.18708  Biso   1.000  O
  O12      1.0000 0.69360  0.79740  0.31292  Biso   1.000  O
  O13      1.0000 0.62200  0.89080  0.54178  Biso   1.000  O
  O14      1.0000 0.37800  0.39080  0.95822  Biso   1.000  O
  O15      1.0000 0.37800  0.10920  0.45822  Biso   1.000  O
  O16      1.0000 0.62200  0.60920  0.04178  Biso   1.000  O
  O17      1.0000 0.47290  0.78470  0.44385  Biso   1.000  O
  O18      1.0000 0.52710  0.28470  0.05615  Biso   1.000  O
  O19      1.0000 0.52710  0.21530  0.55615  Biso   1.000  O
  O20      1.0000 0.47290  0.71530  0.94385  Biso   1.000  O
  N1       1.0000 0.23490  0.39840  0.56182  Biso   1.000  N
  N2       1.0000 0.76510  0.89840  0.93818  Biso   1.000  N
  N3       1.0000 0.76510  0.60160  0.43818  Biso   1.000  N
  N4       1.0000 0.23490  0.10160  0.06182  Biso   1.000  N
  N5       1.0000 0.78430  0.07220  0.45068  Biso   1.000  N
  N6       1.0000 0.21570  0.57220  0.04932  Biso   1.000  N
  N7       1.0000 0.21570  0.92780  0.54932  Biso   1.000  N
  N8       1.0000 0.78430  0.42780  0.95068  Biso   1.000  N
  C1       1.0000 0.34370  0.50290  0.58786  Biso   1.000  C
  C2       1.0000 0.65630  0.00290  0.91214  Biso   1.000  C
  C3       1.0000 0.65630  0.49710  0.41214  Biso   1.000  C
  C4       1.0000 0.34370  0.99710  0.08786  Biso   1.000  C
  C5       1.0000 0.41290  0.51190  0.66700  Biso   1.000  C
  C6       1.0000 0.58710  0.01190  0.83300  Biso   1.000  C
  C7       1.0000 0.58710  0.48810  0.33300  Biso   1.000  C
  C8       1.0000 0.41290  0.98810  0.16700  Biso   1.000  C
  C9       1.0000 0.52080  0.61200  0.69788  Biso   1.000  C
  C10      1.0000 0.47920  0.11200  0.80212  Biso   1.000  C
  C11      1.0000 0.47920  0.38800  0.30212  Biso   1.000  C
  C12      1.0000 0.52080  0.88800  0.19788  Biso   1.000  C
  C13      1.0000 0.56120  0.70480  0.64908  Biso   1.000  C
  C14      1.0000 0.43880  0.20480  0.85092  Biso   1.000  C
  C15      1.0000 0.43880  0.29520  0.35092  Biso   1.000  C
  C16      1.0000 0.56120  0.79520  0.14908  Biso   1.000  C
  C17      1.0000 0.49230  0.69490  0.56946  Biso   1.000  C
  C18      1.0000 0.50770  0.19490  0.93054  Biso   1.000  C
  C19      1.0000 0.50770  0.30510  0.43054  Biso   1.000  C
  C20      1.0000 0.49230  0.80510  0.06946  Biso   1.000  C
  C21      1.0000 0.38460  0.59500  0.53778  Biso   1.000  C
  C22      1.0000 0.61540  0.09500  0.96222  Biso   1.000  C
  C23      1.0000 0.61540  0.40500  0.46222  Biso   1.000  C
  C24      1.0000 0.38460  0.90500  0.03778  Biso   1.000  C
  C25      1.0000 0.13150  0.38480  0.49097  Biso   1.000  C
  C26      1.0000 0.86850  0.88480  0.00903  Biso   1.000  C
  C27      1.0000 0.86850  0.61520  0.50903  Biso   1.000  C
  C28      1.0000 0.13150  0.11520  0.99097  Biso   1.000  C
  C29      1.0000 0.85760  0.10730  0.52380  Biso   1.000  C
  C30      1.0000 0.14240  0.60730  0.97620  Biso   1.000  C
  C31      1.0000 0.14240  0.89270  0.47620  Biso   1.000  C
  C32      1.0000 0.85760  0.39270  0.02380  Biso   1.000  C
  C33      1.0000 0.97420  0.20510  0.54055  Biso   1.000  C
  C34      1.0000 0.02580  0.70510  0.95945  Biso   1.000  C
  C35      1.0000 0.02580  0.79490  0.45945  Biso   1.000  C
  C36      1.0000 0.97420  0.29490  0.04055  Biso   1.000  C
  C37      1.0000 0.01710  0.26900  0.48026  Biso   1.000  C
  C38      1.0000 0.98290  0.76900  0.01974  Biso   1.000  C
  C39      1.0000 0.98290  0.73100  0.51974  Biso   1.000  C
  C40      1.0000 0.01710  0.23100  0.98026  Biso   1.000  C
  C41      1.0000 0.94290  0.23130  0.40468  Biso   1.000  C
  C42      1.0000 0.05710  0.73130  0.09532  Biso   1.000  C
  C43      1.0000 0.05710  0.76870  0.59532  Biso   1.000  C
  C44      1.0000 0.94290  0.26870  0.90468  Biso   1.000  C
  C45      1.0000 0.82730  0.13340  0.39206  Biso   1.000  C
  C46      1.0000 0.17270  0.63340  0.10794  Biso   1.000  C
  C47      1.0000 0.17270  0.86660  0.60794  Biso   1.000  C
  C48      1.0000 0.82730  0.36660  0.89206  Biso   1.000  C
  C49      1.0000 0.58960  0.62080  0.78422  Biso   1.000  C
  C50      1.0000 0.41040  0.12080  0.71578  Biso   1.000  C
  C51      1.0000 0.41040  0.37920  0.21578  Biso   1.000  C
  C52      1.0000 0.58960  0.87920  0.28422  Biso   1.000  C
  C53      1.0000 0.53100  0.79310  0.51648  Biso   1.000  C
  C54      1.0000 0.46900  0.29310  0.98352  Biso   1.000  C
  C55      1.0000 0.46900  0.20690  0.48352  Biso   1.000  C
  C56      1.0000 0.53100  0.70690  0.01648  Biso   1.000  C
  H1       1.0000 0.23460  0.33710  0.59460  Biso   1.000  H
  H2       1.0000 0.76540  0.83710  0.90540  Biso   1.000  H
  H3       1.0000 0.76540  0.66290  0.40540  Biso   1.000  H
  H4       1.0000 0.23460  0.16290  0.09460  Biso   1.000  H
  H5       1.0000 0.38670  0.45000  0.70000  Biso   1.000  H
  H6       1.0000 0.61330  0.95000  0.80000  Biso   1.000  H
  H7       1.0000 0.61330  0.55000  0.30000  Biso   1.000  H
  H8       1.0000 0.38670  0.05000  0.20000  Biso   1.000  H
  H9       1.0000 0.63290  0.77230  0.66920  Biso   1.000  H
  H10      1.0000 0.36710  0.27230  0.83080  Biso   1.000  H
  H11      1.0000 0.36710  0.22770  0.33080  Biso   1.000  H
  H12      1.0000 0.63290  0.72770  0.16920  Biso   1.000  H
  H13      1.0000 0.34070  0.58950  0.48450  Biso   1.000  H
  H14      1.0000 0.65930  0.08950  0.01550  Biso   1.000  H
  H15      1.0000 0.65930  0.41050  0.51550  Biso   1.000  H
  H16      1.0000 0.34070  0.91050  0.98450  Biso   1.000  H
  H17      1.0000 0.82920  0.06450  0.56450  Biso   1.000  H
  H18      1.0000 0.17080  0.56450  0.93550  Biso   1.000  H
  H19      1.0000 0.17080  0.93550  0.43550  Biso   1.000  H
  H20      1.0000 0.82920  0.43550  0.06450  Biso   1.000  H
  H21      1.0000 0.02300  0.22760  0.59170  Biso   1.000  H
  H22      1.0000 0.97700  0.72760  0.90830  Biso   1.000  H
  H23      1.0000 0.97700  0.77240  0.40830  Biso   1.000  H
  H24      1.0000 0.02300  0.27240  0.09170  Biso   1.000  H
  H25      1.0000 0.97080  0.27160  0.36310  Biso   1.000  H
  H26      1.0000 0.02920  0.77160  0.13690  Biso   1.000  H
  H27      1.0000 0.02920  0.72840  0.63690  Biso   1.000  H
  H28      1.0000 0.97080  0.22840  0.86310  Biso   1.000  H
  H29      1.0000 0.77740  0.10890  0.34130  Biso   1.000  H
  H30      1.0000 0.22260  0.60890  0.15870  Biso   1.000  H
  H31      1.0000 0.22260  0.89110  0.65870  Biso   1.000  H
  H32      1.0000 0.77740  0.39110  0.84130  Biso   1.000  H
  O21      1.0000 0.10370  0.90750  0.78970  Biso   1.000  O
  O22      1.0000 0.89630  0.40750  0.71030  Biso   1.000  O
  O23      1.0000 0.89630  0.09250  0.21030  Biso   1.000  O
  O24      1.0000 0.10370  0.59250  0.28970  Biso   1.000  O
  O25      1.0000 0.15680  0.65010  0.79400  Biso   1.000  O
  O26      1.0000 0.84320  0.15010  0.70600  Biso   1.000  O
  O27      1.0000 0.84320  0.34990  0.20600  Biso   1.000  O
  O28      1.0000 0.15680  0.84990  0.29400  Biso   1.000  O
  O29      1.0000 0.99700  0.94700  0.78540  Biso   1.000  O
  O30      1.0000 0.00300  0.44700  0.71460  Biso   1.000  O
  O31      1.0000 0.00300  0.05300  0.21460  Biso   1.000  O
  O32      1.0000 0.99700  0.55300  0.28540  Biso   1.000  O
  O33      1.0000 0.15300  0.56460  0.79370  Biso   1.000  O
  O34      1.0000 0.84700  0.06460  0.70630  Biso   1.000  O
  O35      1.0000 0.84700  0.43540  0.20630  Biso   1.000  O
  O36      1.0000 0.15300  0.93540  0.29370  Biso   1.000  O
  O37      1.0000 0.22800  0.78240  0.79320  Biso   1.000  O
  O38      1.0000 0.77200  0.28240  0.70680  Biso   1.000  O
  O39      1.0000 0.77200  0.21760  0.20680  Biso   1.000  O
  O40      1.0000 0.22800  0.71760  0.29320  Biso   1.000  O
