data_image0
_cell_length_a       8.4283
_cell_length_b       10.2553
_cell_length_c       17.8159
_cell_angle_alpha    90
_cell_angle_beta     104.408
_cell_angle_gamma    90

_symmetry_space_group_name_H-M    "P 1"
_symmetry_int_tables_number       1

loop_
  _symmetry_equiv_pos_as_xyz
  'x, y, z'

loop_
  _atom_site_label
  _atom_site_occupancy
  _atom_site_fract_x
  _atom_site_fract_y
  _atom_site_fract_z
  _atom_site_thermal_displace_type
  _atom_site_B_iso_or_equiv
  _atom_site_type_symbol
  Cu1      1.0000 0.60603  0.55776  0.93208  Biso   1.000  Cu
  Cu2      1.0000 0.39397  0.05776  0.56792  Biso   1.000  Cu
  Cu3      1.0000 0.39397  0.44224  0.06792  Biso   1.000  Cu
  Cu4      1.0000 0.60603  0.94224  0.43208  Biso   1.000  Cu
  O1       1.0000 0.47470  0.78500  0.44430  Biso   1.000  O
  O2       1.0000 0.52530  0.28500  0.05570  Biso   1.000  O
  O3       1.0000 0.52530  0.21500  0.55570  Biso   1.000  O
  O4       1.0000 0.47470  0.71500  0.94430  Biso   1.000  O
  O5       1.0000 0.62090  0.89130  0.54150  Biso   1.000  O
  O6       1.0000 0.37910  0.39130  0.95850  Biso   1.000  O
  O7       1.0000 0.37910  0.10870  0.45850  Biso   1.000  O
  O8       1.0000 0.62090  0.60870  0.04150  Biso   1.000  O
  O9       1.0000 0.69360  0.70060  0.81260  Biso   1.000  O
  O10      1.0000 0.30640  0.20060  0.68740  Biso   1.000  O
  O11      1.0000 0.30640  0.29940  0.18740  Biso   1.000  O
  O12      1.0000 0.69360  0.79940  0.31260  Biso   1.000  O
  O13      1.0000 0.53070  0.53630  0.82360  Biso   1.000  O
  O14      1.0000 0.46930  0.03630  0.67640  Biso   1.000  O
  O15      1.0000 0.46930  0.46370  0.17640  Biso   1.000  O
  O16      1.0000 0.53070  0.96370  0.32360  Biso   1.000  O
  O17      1.0000 0.12730  0.45850  0.43790  Biso   1.000  O
  O18      1.0000 0.87270  0.95850  0.06210  Biso   1.000  O
  O19      1.0000 0.87270  0.54150  0.56210  Biso   1.000  O
  O20      1.0000 0.12730  0.04150  0.93790  Biso   1.000  O
  N1       1.0000 0.23420  0.39870  0.56240  Biso   1.000  N
  N2       1.0000 0.76580  0.89870  0.93760  Biso   1.000  N
  N3       1.0000 0.76580  0.60130  0.43760  Biso   1.000  N
  N4       1.0000 0.23420  0.10130  0.06240  Biso   1.000  N
  H1       1.0000 0.23260  0.33830  0.59560  Biso   1.000  H
  H2       1.0000 0.76740  0.83830  0.90440  Biso   1.000  H
  H3       1.0000 0.76740  0.66170  0.40440  Biso   1.000  H
  H4       1.0000 0.23260  0.16170  0.09560  Biso   1.000  H
  N5       1.0000 0.78240  0.07320  0.45110  Biso   1.000  N
  N6       1.0000 0.21760  0.57320  0.04890  Biso   1.000  N
  N7       1.0000 0.21760  0.92680  0.54890  Biso   1.000  N
  N8       1.0000 0.78240  0.42680  0.95110  Biso   1.000  N
  C1       1.0000 0.53110  0.79370  0.51640  Biso   1.000  C
  C2       1.0000 0.46890  0.29370  0.98360  Biso   1.000  C
  C3       1.0000 0.46890  0.20630  0.48360  Biso   1.000  C
  C4       1.0000 0.53110  0.70630  0.01640  Biso   1.000  C
  C5       1.0000 0.49170  0.69410  0.56970  Biso   1.000  C
  C6       1.0000 0.50830  0.19410  0.93030  Biso   1.000  C
  C7       1.0000 0.50830  0.30590  0.43030  Biso   1.000  C
  C8       1.0000 0.49170  0.80590  0.06970  Biso   1.000  C
  C9       1.0000 0.56200  0.70290  0.64920  Biso   1.000  C
  C10      1.0000 0.43800  0.20290  0.85080  Biso   1.000  C
  C11      1.0000 0.43800  0.29710  0.35080  Biso   1.000  C
  C12      1.0000 0.56200  0.79710  0.14920  Biso   1.000  C
  H5       1.0000 0.63580  0.76910  0.66920  Biso   1.000  H
  H6       1.0000 0.36420  0.26910  0.83080  Biso   1.000  H
  H7       1.0000 0.36420  0.23090  0.33080  Biso   1.000  H
  H8       1.0000 0.63580  0.73090  0.16920  Biso   1.000  H
  C13      1.0000 0.51930  0.61070  0.69760  Biso   1.000  C
  C14      1.0000 0.48070  0.11070  0.80240  Biso   1.000  C
  C15      1.0000 0.48070  0.38930  0.30240  Biso   1.000  C
  C16      1.0000 0.51930  0.88930  0.19760  Biso   1.000  C
  C17      1.0000 0.41180  0.51180  0.66690  Biso   1.000  C
  C18      1.0000 0.58820  0.01180  0.83310  Biso   1.000  C
  C19      1.0000 0.58820  0.48820  0.33310  Biso   1.000  C
  C20      1.0000 0.41180  0.98820  0.16690  Biso   1.000  C
  H9       1.0000 0.38490  0.44980  0.69980  Biso   1.000  H
  H10      1.0000 0.61510  0.94980  0.80020  Biso   1.000  H
  H11      1.0000 0.61510  0.55020  0.30020  Biso   1.000  H
  H12      1.0000 0.38490  0.05020  0.19980  Biso   1.000  H
  C21      1.0000 0.34300  0.50330  0.58780  Biso   1.000  C
  C22      1.0000 0.65700  0.00330  0.91220  Biso   1.000  C
  C23      1.0000 0.65700  0.49670  0.41220  Biso   1.000  C
  C24      1.0000 0.34300  0.99670  0.08780  Biso   1.000  C
  C25      1.0000 0.38550  0.59400  0.53850  Biso   1.000  C
  C26      1.0000 0.61450  0.09400  0.96150  Biso   1.000  C
  C27      1.0000 0.61450  0.40600  0.46150  Biso   1.000  C
  C28      1.0000 0.38550  0.90600  0.03850  Biso   1.000  C
  H13      1.0000 0.34330  0.58770  0.48520  Biso   1.000  H
  H14      1.0000 0.65670  0.08770  0.01480  Biso   1.000  H
  H15      1.0000 0.65670  0.41230  0.51480  Biso   1.000  H
  H16      1.0000 0.34330  0.91230  0.98520  Biso   1.000  H
  C29      1.0000 0.58970  0.61940  0.78340  Biso   1.000  C
  C30      1.0000 0.41030  0.11940  0.71660  Biso   1.000  C
  C31      1.0000 0.41030  0.38060  0.21660  Biso   1.000  C
  C32      1.0000 0.58970  0.88060  0.28340  Biso   1.000  C
  C33      1.0000 0.13240  0.38340  0.49140  Biso   1.000  C
  C34      1.0000 0.86760  0.88340  0.00860  Biso   1.000  C
  C35      1.0000 0.86760  0.61660  0.50860  Biso   1.000  C
  C36      1.0000 0.13240  0.11660  0.99140  Biso   1.000  C
  C37      1.0000 0.01780  0.26790  0.48090  Biso   1.000  C
  C38      1.0000 0.98220  0.76790  0.01910  Biso   1.000  C
  C39      1.0000 0.98220  0.73210  0.51910  Biso   1.000  C
  C40      1.0000 0.01780  0.23210  0.98090  Biso   1.000  C
  C41      1.0000 0.94210  0.23130  0.40510  Biso   1.000  C
  C42      1.0000 0.05790  0.73130  0.09490  Biso   1.000  C
  C43      1.0000 0.05790  0.76870  0.59490  Biso   1.000  C
  C44      1.0000 0.94210  0.26870  0.90510  Biso   1.000  C
  H17      1.0000 0.96910  0.27240  0.36350  Biso   1.000  H
  H18      1.0000 0.03090  0.77240  0.13650  Biso   1.000  H
  H19      1.0000 0.03090  0.72760  0.63650  Biso   1.000  H
  H20      1.0000 0.96910  0.22760  0.86350  Biso   1.000  H
  C45      1.0000 0.82640  0.13320  0.39260  Biso   1.000  C
  C46      1.0000 0.17360  0.63320  0.10740  Biso   1.000  C
  C47      1.0000 0.17360  0.86680  0.60740  Biso   1.000  C
  C48      1.0000 0.82640  0.36680  0.89260  Biso   1.000  C
  H21      1.0000 0.77740  0.10790  0.34200  Biso   1.000  H
  H22      1.0000 0.22260  0.60790  0.15800  Biso   1.000  H
  H23      1.0000 0.22260  0.89210  0.65800  Biso   1.000  H
  H24      1.0000 0.77740  0.39210  0.84200  Biso   1.000  H
  C49      1.0000 0.97410  0.20430  0.54030  Biso   1.000  C
  C50      1.0000 0.02590  0.70430  0.95970  Biso   1.000  C
  C51      1.0000 0.02590  0.79570  0.45970  Biso   1.000  C
  C52      1.0000 0.97410  0.29570  0.04030  Biso   1.000  C
  H25      1.0000 0.02280  0.22660  0.59150  Biso   1.000  H
  H26      1.0000 0.97720  0.72660  0.90850  Biso   1.000  H
  H27      1.0000 0.97720  0.77340  0.40850  Biso   1.000  H
  H28      1.0000 0.02280  0.27340  0.09150  Biso   1.000  H
  C53      1.0000 0.85830  0.10750  0.52420  Biso   1.000  C
  C54      1.0000 0.14170  0.60750  0.97580  Biso   1.000  C
  C55      1.0000 0.14170  0.89250  0.47580  Biso   1.000  C
  C56      1.0000 0.85830  0.39250  0.02420  Biso   1.000  C
  H29      1.0000 0.83120  0.06410  0.56510  Biso   1.000  H
  H30      1.0000 0.16880  0.56410  0.93490  Biso   1.000  H
  H31      1.0000 0.16880  0.93590  0.43490  Biso   1.000  H
  H32      1.0000 0.83120  0.43590  0.06510  Biso   1.000  H
  O21      1.0000 0.84000  0.37700  0.20510  Biso   1.000  O
  O22      1.0000 0.16000  0.87700  0.29490  Biso   1.000  O
  O23      1.0000 0.16000  0.62300  0.79490  Biso   1.000  O
  O24      1.0000 0.84000  0.12300  0.70510  Biso   1.000  O
  C57      1.0000 0.78600  0.24500  0.20800  Biso   1.000  C
  C58      1.0000 0.21400  0.74500  0.29200  Biso   1.000  C
  C59      1.0000 0.21400  0.75500  0.79200  Biso   1.000  C
  C60      1.0000 0.78600  0.25500  0.70800  Biso   1.000  C
  C61      1.0000 0.85600  0.11200  0.20800  Biso   1.000  C
  C62      1.0000 0.14400  0.61200  0.29200  Biso   1.000  C
  C63      1.0000 0.14400  0.88800  0.79200  Biso   1.000  C
  C64      1.0000 0.85600  0.38800  0.70800  Biso   1.000  C
  O25      1.0000 0.00900  0.04900  0.21400  Biso   1.000  O
  O26      1.0000 0.99100  0.54900  0.28600  Biso   1.000  O
  O27      1.0000 0.99100  0.95100  0.78600  Biso   1.000  O
  O28      1.0000 0.00900  0.45100  0.71400  Biso   1.000  O
