data_image0
_cell_length_a       14.349
_cell_length_b       5.977
_cell_length_c       21.368
_cell_angle_alpha    90
_cell_angle_beta     104.956
_cell_angle_gamma    90

_symmetry_space_group_name_H-M    "P 1"
_symmetry_int_tables_number       1

loop_
  _symmetry_equiv_pos_as_xyz
  'x, y, z'

loop_
  _atom_site_label
  _atom_site_occupancy
  _atom_site_fract_x
  _atom_site_fract_y
  _atom_site_fract_z
  _atom_site_thermal_displace_type
  _atom_site_B_iso_or_equiv
  _atom_site_type_symbol
  Cu1      1.0000 0.00000  0.19398  0.75000  Biso   1.000  Cu
  Cu2      1.0000 0.50000  0.69398  0.75000  Biso   1.000  Cu
  Cu3      1.0000 0.00000  0.80602  0.25000  Biso   1.000  Cu
  Cu4      1.0000 0.50000  0.30602  0.25000  Biso   1.000  Cu
  N1       1.0000 0.72771  0.24170  0.63262  Biso   1.000  N
  N2       1.0000 0.27229  0.24170  0.86738  Biso   1.000  N
  N3       1.0000 0.22771  0.74170  0.63262  Biso   1.000  N
  N4       1.0000 0.77229  0.74170  0.86738  Biso   1.000  N
  N5       1.0000 0.27229  0.75830  0.36738  Biso   1.000  N
  N6       1.0000 0.72771  0.75830  0.13262  Biso   1.000  N
  N7       1.0000 0.77229  0.25830  0.36738  Biso   1.000  N
  N8       1.0000 0.22771  0.25830  0.13262  Biso   1.000  N
  N9       1.0000 0.85866  0.18810  0.71121  Biso   1.000  N
  N10      1.0000 0.14134  0.18810  0.78879  Biso   1.000  N
  N11      1.0000 0.35866  0.68810  0.71121  Biso   1.000  N
  N12      1.0000 0.64134  0.68810  0.78879  Biso   1.000  N
  N13      1.0000 0.14134  0.81190  0.28879  Biso   1.000  N
  N14      1.0000 0.85866  0.81190  0.21121  Biso   1.000  N
  N15      1.0000 0.64134  0.31190  0.28879  Biso   1.000  N
  N16      1.0000 0.35866  0.31190  0.21121  Biso   1.000  N
  O1       1.0000 0.53779  0.70070  0.36037  Biso   1.000  O
  O2       1.0000 0.46221  0.70070  0.13963  Biso   1.000  O
  O3       1.0000 0.03779  0.20070  0.36037  Biso   1.000  O
  O4       1.0000 0.96221  0.20070  0.13963  Biso   1.000  O
  O5       1.0000 0.46221  0.29930  0.63963  Biso   1.000  O
  O6       1.0000 0.53779  0.29930  0.86037  Biso   1.000  O
  O7       1.0000 0.96221  0.79930  0.63963  Biso   1.000  O
  O8       1.0000 0.03779  0.79930  0.86037  Biso   1.000  O
  O9       1.0000 0.00000  0.56280  0.75000  Biso   1.000  O
  O10      1.0000 0.50000  0.06280  0.75000  Biso   1.000  O
  O11      1.0000 0.00000  0.43720  0.25000  Biso   1.000  O
  O12      1.0000 0.50000  0.93720  0.25000  Biso   1.000  O
  H1       1.0000 0.01100  0.64200  0.78230  Biso   1.000  H
  H2       1.0000 0.98900  0.64200  0.71770  Biso   1.000  H
  H3       1.0000 0.51100  0.14200  0.78230  Biso   1.000  H
  H4       1.0000 0.48900  0.14200  0.71770  Biso   1.000  H
  H5       1.0000 0.98900  0.35800  0.21770  Biso   1.000  H
  H6       1.0000 0.01100  0.35800  0.28230  Biso   1.000  H
  H7       1.0000 0.48900  0.85800  0.21770  Biso   1.000  H
  H8       1.0000 0.51100  0.85800  0.28230  Biso   1.000  H
  O13      1.0000 0.48270  0.35130  0.33884  Biso   1.000  O
  O14      1.0000 0.51730  0.35130  0.16116  Biso   1.000  O
  O15      1.0000 0.98270  0.85130  0.33884  Biso   1.000  O
  O16      1.0000 0.01730  0.85130  0.16116  Biso   1.000  O
  O17      1.0000 0.51730  0.64870  0.66116  Biso   1.000  O
  O18      1.0000 0.48270  0.64870  0.83884  Biso   1.000  O
  O19      1.0000 0.01730  0.14870  0.66116  Biso   1.000  O
  O20      1.0000 0.98270  0.14870  0.83884  Biso   1.000  O
  C1       1.0000 0.70955  0.06170  0.66854  Biso   1.000  C
  C2       1.0000 0.29045  0.06170  0.83146  Biso   1.000  C
  C3       1.0000 0.20955  0.56170  0.66854  Biso   1.000  C
  C4       1.0000 0.79045  0.56170  0.83146  Biso   1.000  C
  C5       1.0000 0.29045  0.93830  0.33146  Biso   1.000  C
  C6       1.0000 0.70955  0.93830  0.16854  Biso   1.000  C
  C7       1.0000 0.79045  0.43830  0.33146  Biso   1.000  C
  C8       1.0000 0.20955  0.43830  0.16854  Biso   1.000  C
  H9       1.0000 0.65300  0.97850  0.66110  Biso   1.000  H
  H10      1.0000 0.34700  0.97850  0.83890  Biso   1.000  H
  H11      1.0000 0.15300  0.47850  0.66110  Biso   1.000  H
  H12      1.0000 0.84700  0.47850  0.83890  Biso   1.000  H
  H13      1.0000 0.34700  0.02150  0.33890  Biso   1.000  H
  H14      1.0000 0.65300  0.02150  0.16110  Biso   1.000  H
  H15      1.0000 0.84700  0.52150  0.33890  Biso   1.000  H
  H16      1.0000 0.15300  0.52150  0.16110  Biso   1.000  H
  C9       1.0000 0.52805  0.50500  0.37609  Biso   1.000  C
  C10      1.0000 0.47195  0.50500  0.12391  Biso   1.000  C
  C11      1.0000 0.02805  0.00500  0.37609  Biso   1.000  C
  C12      1.0000 0.97195  0.00500  0.12391  Biso   1.000  C
  C13      1.0000 0.47195  0.49500  0.62391  Biso   1.000  C
  C14      1.0000 0.52805  0.49500  0.87609  Biso   1.000  C
  C15      1.0000 0.97195  0.99500  0.62391  Biso   1.000  C
  C16      1.0000 0.02805  0.99500  0.87609  Biso   1.000  C
  C17      1.0000 0.61780  0.15750  0.52865  Biso   1.000  C
  C18      1.0000 0.38220  0.15750  0.97135  Biso   1.000  C
  C19      1.0000 0.11780  0.65750  0.52865  Biso   1.000  C
  C20      1.0000 0.88220  0.65750  0.97135  Biso   1.000  C
  C21      1.0000 0.38220  0.84250  0.47135  Biso   1.000  C
  C22      1.0000 0.61780  0.84250  0.02865  Biso   1.000  C
  C23      1.0000 0.88220  0.34250  0.47135  Biso   1.000  C
  C24      1.0000 0.11780  0.34250  0.02865  Biso   1.000  C
  H17      1.0000 0.61310  0.01160  0.54260  Biso   1.000  H
  H18      1.0000 0.38690  0.01160  0.95740  Biso   1.000  H
  H19      1.0000 0.11310  0.51160  0.54260  Biso   1.000  H
  H20      1.0000 0.88690  0.51160  0.95740  Biso   1.000  H
  H21      1.0000 0.38690  0.98840  0.45740  Biso   1.000  H
  H22      1.0000 0.61310  0.98840  0.04260  Biso   1.000  H
  H23      1.0000 0.88690  0.48840  0.45740  Biso   1.000  H
  H24      1.0000 0.11310  0.48840  0.04260  Biso   1.000  H
  C25      1.0000 0.79099  0.03140  0.71668  Biso   1.000  C
  C26      1.0000 0.20901  0.03140  0.78332  Biso   1.000  C
  C27      1.0000 0.29099  0.53140  0.71668  Biso   1.000  C
  C28      1.0000 0.70901  0.53140  0.78332  Biso   1.000  C
  C29      1.0000 0.20901  0.96860  0.28332  Biso   1.000  C
  C30      1.0000 0.79099  0.96860  0.21668  Biso   1.000  C
  C31      1.0000 0.70901  0.46860  0.28332  Biso   1.000  C
  C32      1.0000 0.29099  0.46860  0.21668  Biso   1.000  C
  H25      1.0000 0.79980  0.92170  0.74850  Biso   1.000  H
  H26      1.0000 0.20020  0.92170  0.75150  Biso   1.000  H
  H27      1.0000 0.29980  0.42170  0.74850  Biso   1.000  H
  H28      1.0000 0.70020  0.42170  0.75150  Biso   1.000  H
  H29      1.0000 0.20020  0.07830  0.25150  Biso   1.000  H
  H30      1.0000 0.79980  0.07830  0.24850  Biso   1.000  H
  H31      1.0000 0.70020  0.57830  0.25150  Biso   1.000  H
  H32      1.0000 0.29980  0.57830  0.24850  Biso   1.000  H
  C33      1.0000 0.63113  0.59100  0.48732  Biso   1.000  C
  C34      1.0000 0.36887  0.59100  0.01268  Biso   1.000  C
  C35      1.0000 0.13113  0.09100  0.48732  Biso   1.000  C
  C36      1.0000 0.86887  0.09100  0.01268  Biso   1.000  C
  C37      1.0000 0.36887  0.40900  0.51268  Biso   1.000  C
  C38      1.0000 0.63113  0.40900  0.98732  Biso   1.000  C
  C39      1.0000 0.86887  0.90900  0.51268  Biso   1.000  C
  C40      1.0000 0.13113  0.90900  0.98732  Biso   1.000  C
  H33      1.0000 0.63610  0.73710  0.47350  Biso   1.000  H
  H34      1.0000 0.36390  0.73710  0.02650  Biso   1.000  H
  H35      1.0000 0.13610  0.23710  0.47350  Biso   1.000  H
  H36      1.0000 0.86390  0.23710  0.02650  Biso   1.000  H
  H37      1.0000 0.36390  0.26290  0.52650  Biso   1.000  H
  H38      1.0000 0.63610  0.26290  0.97350  Biso   1.000  H
  H39      1.0000 0.86390  0.76290  0.52650  Biso   1.000  H
  H40      1.0000 0.13610  0.76290  0.97350  Biso   1.000  H
  C41      1.0000 0.67868  0.53090  0.55019  Biso   1.000  C
  C42      1.0000 0.32132  0.53090  0.94981  Biso   1.000  C
  C43      1.0000 0.17868  0.03090  0.55019  Biso   1.000  C
  C44      1.0000 0.82132  0.03090  0.94981  Biso   1.000  C
  C45      1.0000 0.32132  0.46910  0.44981  Biso   1.000  C
  C46      1.0000 0.67868  0.46910  0.05019  Biso   1.000  C
  C47      1.0000 0.82132  0.96910  0.44981  Biso   1.000  C
  C48      1.0000 0.17868  0.96910  0.05019  Biso   1.000  C
  H41      1.0000 0.71450  0.63610  0.57850  Biso   1.000  H
  H42      1.0000 0.28550  0.63610  0.92150  Biso   1.000  H
  H43      1.0000 0.21450  0.13610  0.57850  Biso   1.000  H
  H44      1.0000 0.78550  0.13610  0.92150  Biso   1.000  H
  H45      1.0000 0.28550  0.36390  0.42150  Biso   1.000  H
  H46      1.0000 0.71450  0.36390  0.07850  Biso   1.000  H
  H47      1.0000 0.78550  0.86390  0.42150  Biso   1.000  H
  H48      1.0000 0.21450  0.86390  0.07850  Biso   1.000  H
  C49      1.0000 0.57627  0.43660  0.44470  Biso   1.000  C
  C50      1.0000 0.42373  0.43660  0.05530  Biso   1.000  C
  C51      1.0000 0.07627  0.93660  0.44470  Biso   1.000  C
  C52      1.0000 0.92373  0.93660  0.05530  Biso   1.000  C
  C53      1.0000 0.42373  0.56340  0.55530  Biso   1.000  C
  C54      1.0000 0.57627  0.56340  0.94470  Biso   1.000  C
  C55      1.0000 0.92373  0.06340  0.55530  Biso   1.000  C
  C56      1.0000 0.07627  0.06340  0.94470  Biso   1.000  C
  C57      1.0000 0.57013  0.21890  0.46599  Biso   1.000  C
  C58      1.0000 0.42987  0.21890  0.03401  Biso   1.000  C
  C59      1.0000 0.07013  0.71890  0.46599  Biso   1.000  C
  C60      1.0000 0.92987  0.71890  0.03401  Biso   1.000  C
  C61      1.0000 0.42987  0.78110  0.53401  Biso   1.000  C
  C62      1.0000 0.57013  0.78110  0.96599  Biso   1.000  C
  C63      1.0000 0.92987  0.28110  0.53401  Biso   1.000  C
  C64      1.0000 0.07013  0.28110  0.96599  Biso   1.000  C
  H49      1.0000 0.53380  0.11360  0.43800  Biso   1.000  H
  H50      1.0000 0.46620  0.11360  0.06200  Biso   1.000  H
  H51      1.0000 0.03380  0.61360  0.43800  Biso   1.000  H
  H52      1.0000 0.96620  0.61360  0.06200  Biso   1.000  H
  H53      1.0000 0.46620  0.88640  0.56200  Biso   1.000  H
  H54      1.0000 0.53380  0.88640  0.93800  Biso   1.000  H
  H55      1.0000 0.96620  0.38640  0.56200  Biso   1.000  H
  H56      1.0000 0.03380  0.38640  0.93800  Biso   1.000  H
  C65      1.0000 0.67219  0.31300  0.57026  Biso   1.000  C
  C66      1.0000 0.32781  0.31300  0.92974  Biso   1.000  C
  C67      1.0000 0.17219  0.81300  0.57026  Biso   1.000  C
  C68      1.0000 0.82781  0.81300  0.92974  Biso   1.000  C
  C69      1.0000 0.32781  0.68700  0.42974  Biso   1.000  C
  C70      1.0000 0.67219  0.68700  0.07026  Biso   1.000  C
  C71      1.0000 0.82781  0.18700  0.42974  Biso   1.000  C
  C72      1.0000 0.17219  0.18700  0.07026  Biso   1.000  C
  C73      1.0000 0.81856  0.31150  0.66055  Biso   1.000  C
  C74      1.0000 0.18144  0.31150  0.83945  Biso   1.000  C
  C75      1.0000 0.31856  0.81150  0.66055  Biso   1.000  C
  C76      1.0000 0.68144  0.81150  0.83945  Biso   1.000  C
  C77      1.0000 0.18144  0.68850  0.33945  Biso   1.000  C
  C78      1.0000 0.81856  0.68850  0.16055  Biso   1.000  C
  C79      1.0000 0.68144  0.18850  0.33945  Biso   1.000  C
  C80      1.0000 0.31856  0.18850  0.16055  Biso   1.000  C
  H57      1.0000 0.84860  0.43100  0.64590  Biso   1.000  H
  H58      1.0000 0.15140  0.43100  0.85410  Biso   1.000  H
  H59      1.0000 0.34860  0.93100  0.64590  Biso   1.000  H
  H60      1.0000 0.65140  0.93100  0.85410  Biso   1.000  H
  H61      1.0000 0.15140  0.56900  0.35410  Biso   1.000  H
  H62      1.0000 0.84860  0.56900  0.14590  Biso   1.000  H
  H63      1.0000 0.65140  0.06900  0.35410  Biso   1.000  H
  H64      1.0000 0.34860  0.06900  0.14590  Biso   1.000  H
