data_image0
_cell_length_a       7.979
_cell_length_b       14.538
_cell_length_c       15.853
_cell_angle_alpha    110.77
_cell_angle_beta     97.955
_cell_angle_gamma    104.88

_symmetry_space_group_name_H-M    "P 1"
_symmetry_int_tables_number       1

loop_
  _symmetry_equiv_pos_as_xyz
  'x, y, z'

loop_
  _atom_site_label
  _atom_site_occupancy
  _atom_site_fract_x
  _atom_site_fract_y
  _atom_site_fract_z
  _atom_site_thermal_displace_type
  _atom_site_B_iso_or_equiv
  _atom_site_type_symbol
  Pb1      1.0000 0.00000  0.00000  0.50000  Biso   1.000  Pb
  Pb2      1.0000 0.50000  0.00000  0.50000  Biso   1.000  Pb
  I1       1.0000 0.20551  0.99991  0.33743  Biso   1.000  I
  I2       1.0000 0.79449  0.00009  0.66257  Biso   1.000  I
  I3       1.0000 0.36806  0.17479  0.63623  Biso   1.000  I
  I4       1.0000 0.63194  0.82521  0.36377  Biso   1.000  I
  I5       1.0000 0.17092  0.82576  0.51139  Biso   1.000  I
  I6       1.0000 0.82908  0.17424  0.48861  Biso   1.000  I
  I7       1.0000 0.04885  0.23281  0.04773  Biso   1.000  I
  I8       1.0000 0.95115  0.76719  0.95227  Biso   1.000  I
  Cu1      1.0000 0.74280  0.27087  0.02207  Biso   1.000  Cu
  Cu2      1.0000 0.25720  0.72913  0.97793  Biso   1.000  Cu
  N1       1.0000 0.50150  0.14810  0.94290  Biso   1.000  N
  N2       1.0000 0.49850  0.85190  0.05710  Biso   1.000  N
  N3       1.0000 0.67110  0.22680  0.11830  Biso   1.000  N
  N4       1.0000 0.32890  0.77320  0.88170  Biso   1.000  N
  N5       1.0000 0.70960  0.41530  0.07670  Biso   1.000  N
  N6       1.0000 0.29040  0.58470  0.92330  Biso   1.000  N
  N7       1.0000 0.79210  0.31990  0.92260  Biso   1.000  N
  N8       1.0000 0.20790  0.68010  0.07740  Biso   1.000  N
  C1       1.0000 0.41800  0.11460  0.85300  Biso   1.000  C
  C2       1.0000 0.58200  0.88540  0.14700  Biso   1.000  C
  H1       1.0000 0.46970  0.14610  0.81690  Biso   1.000  H
  H2       1.0000 0.53030  0.85390  0.18310  Biso   1.000  H
  C3       1.0000 0.25600  0.03400  0.81270  Biso   1.000  C
  C4       1.0000 0.74400  0.96600  0.18730  Biso   1.000  C
  H3       1.0000 0.20420  0.00770  0.74910  Biso   1.000  H
  H4       1.0000 0.79580  0.99230  0.25090  Biso   1.000  H
  C5       1.0000 0.17600  0.99520  0.86570  Biso   1.000  C
  C6       1.0000 0.82400  0.00480  0.13430  Biso   1.000  C
  H5       1.0000 0.06300  0.94430  0.83930  Biso   1.000  H
  H6       1.0000 0.93700  0.05570  0.16070  Biso   1.000  H
  C7       1.0000 0.25150  0.02670  0.95620  Biso   1.000  C
  C8       1.0000 0.74850  0.97330  0.04380  Biso   1.000  C
  H7       1.0000 0.19430  0.99800  0.99270  Biso   1.000  H
  H8       1.0000 0.80570  0.00200  0.00730  Biso   1.000  H
  C9       1.0000 0.41920  0.10420  0.99410  Biso   1.000  C
  C10      1.0000 0.58080  0.89580  0.00590  Biso   1.000  C
  C11      1.0000 0.51550  0.14930  0.09550  Biso   1.000  C
  C12      1.0000 0.48450  0.85070  0.90450  Biso   1.000  C
  C13      1.0000 0.45300  0.11520  0.15890  Biso   1.000  C
  C14      1.0000 0.54700  0.88480  0.84110  Biso   1.000  C
  H9       1.0000 0.34290  0.06350  0.14150  Biso   1.000  H
  H10      1.0000 0.65710  0.93650  0.85850  Biso   1.000  H
  C15      1.0000 0.55600  0.15830  0.24730  Biso   1.000  C
  C16      1.0000 0.44400  0.84170  0.75270  Biso   1.000  C
  H11      1.0000 0.51940  0.13360  0.29060  Biso   1.000  H
  H12      1.0000 0.48060  0.86640  0.70940  Biso   1.000  H
  C17      1.0000 0.72000  0.24110  0.27430  Biso   1.000  C
  C18      1.0000 0.28000  0.75890  0.72570  Biso   1.000  C
  H13      1.0000 0.78830  0.27430  0.33580  Biso   1.000  H
  H14      1.0000 0.21170  0.72570  0.66420  Biso   1.000  H
  C19      1.0000 0.77400  0.27040  0.20740  Biso   1.000  C
  C20      1.0000 0.22600  0.72960  0.79260  Biso   1.000  C
  H15      1.0000 0.88470  0.32160  0.22290  Biso   1.000  H
  H16      1.0000 0.11530  0.67840  0.77710  Biso   1.000  H
  C21      1.0000 0.66800  0.46340  0.15930  Biso   1.000  C
  C22      1.0000 0.33200  0.53660  0.84070  Biso   1.000  C
  H17      1.0000 0.64660  0.42680  0.19660  Biso   1.000  H
  H18      1.0000 0.35340  0.57320  0.80340  Biso   1.000  H
  C23      1.0000 0.65500  0.55950  0.18930  Biso   1.000  C
  C24      1.0000 0.34500  0.44050  0.81070  Biso   1.000  C
  H19      1.0000 0.62290  0.58780  0.24460  Biso   1.000  H
  H20      1.0000 0.37710  0.41220  0.75540  Biso   1.000  H
  C25      1.0000 0.69200  0.61410  0.13640  Biso   1.000  C
  C26      1.0000 0.30800  0.38590  0.86360  Biso   1.000  C
  H21      1.0000 0.69140  0.68240  0.15710  Biso   1.000  H
  H22      1.0000 0.30860  0.31760  0.84290  Biso   1.000  H
  C27      1.0000 0.72900  0.56860  0.05170  Biso   1.000  C
  C28      1.0000 0.27100  0.43140  0.94830  Biso   1.000  C
  H23      1.0000 0.75070  0.60510  0.01440  Biso   1.000  H
  H24      1.0000 0.24930  0.39490  0.98560  Biso   1.000  H
  C29      1.0000 0.73470  0.46950  0.02370  Biso   1.000  C
  C30      1.0000 0.26530  0.53050  0.97630  Biso   1.000  C
  C31      1.0000 0.78150  0.41370  0.93710  Biso   1.000  C
  C32      1.0000 0.21850  0.58630  0.06290  Biso   1.000  C
  C33      1.0000 0.81040  0.45450  0.86880  Biso   1.000  C
  C34      1.0000 0.18960  0.54550  0.13120  Biso   1.000  C
  H25      1.0000 0.80490  0.52050  0.87840  Biso   1.000  H
  H26      1.0000 0.19510  0.47950  0.12160  Biso   1.000  H
  C35      1.0000 0.84500  0.39780  0.79170  Biso   1.000  C
  C36      1.0000 0.15500  0.60220  0.20830  Biso   1.000  C
  H27      1.0000 0.86170  0.42410  0.74670  Biso   1.000  H
  H28      1.0000 0.13830  0.57590  0.25330  Biso   1.000  H
  C37      1.0000 0.85730  0.30170  0.77670  Biso   1.000  C
  C38      1.0000 0.14270  0.69830  0.22330  Biso   1.000  C
  H29      1.0000 0.88200  0.26190  0.72250  Biso   1.000  H
  H30      1.0000 0.11800  0.73810  0.27750  Biso   1.000  H
  C39      1.0000 0.83160  0.26620  0.84490  Biso   1.000  C
  C40      1.0000 0.16840  0.73380  0.15510  Biso   1.000  C
  H31      1.0000 0.84220  0.20150  0.83660  Biso   1.000  H
  H32      1.0000 0.15780  0.79850  0.16340  Biso   1.000  H
  O1       1.0000 0.41310  0.35660  0.40290  Biso   1.000  O
  O2       1.0000 0.58690  0.64340  0.59710  Biso   1.000  O
  O3       1.0000 0.99340  0.48660  0.62790  Biso   1.000  O
  O4       1.0000 0.00660  0.51340  0.37210  Biso   1.000  O
