data_image0
_cell_length_a       7.3486
_cell_length_b       13.5417
_cell_length_c       15.1244
_cell_angle_alpha    72.534
_cell_angle_beta     76.33
_cell_angle_gamma    80.166

_symmetry_space_group_name_H-M    "P 1"
_symmetry_int_tables_number       1

loop_
  _symmetry_equiv_pos_as_xyz
  'x, y, z'

loop_
  _atom_site_label
  _atom_site_occupancy
  _atom_site_fract_x
  _atom_site_fract_y
  _atom_site_fract_z
  _atom_site_thermal_displace_type
  _atom_site_B_iso_or_equiv
  _atom_site_type_symbol
  Yb1      1.0000 0.46140  0.55361  0.18885  Biso   1.000  Yb
  Yb2      1.0000 0.53860  0.44639  0.81115  Biso   1.000  Yb
  Cu1      1.0000 0.55405  0.88959  0.84666  Biso   1.000  Cu
  Cu2      1.0000 0.44595  0.11041  0.15334  Biso   1.000  Cu
  Cu3      1.0000 0.50000  0.00000  0.50000  Biso   1.000  Cu
  O1       1.0000 0.32380  0.79990  0.82570  Biso   1.000  O
  O2       1.0000 0.67620  0.20010  0.17430  Biso   1.000  O
  H1       1.0000 0.26260  0.84870  0.79480  Biso   1.000  H
  H2       1.0000 0.73740  0.15130  0.20520  Biso   1.000  H
  H3       1.0000 0.25740  0.78250  0.87850  Biso   1.000  H
  H4       1.0000 0.74260  0.21750  0.12150  Biso   1.000  H
  O3       1.0000 0.57820  0.63670  0.27220  Biso   1.000  O
  O4       1.0000 0.42180  0.36330  0.72780  Biso   1.000  O
  H5       1.0000 0.69130  0.62730  0.27180  Biso   1.000  H
  H6       1.0000 0.30870  0.37270  0.72820  Biso   1.000  H
  H7       1.0000 0.52740  0.66720  0.31260  Biso   1.000  H
  H8       1.0000 0.47260  0.33280  0.68740  Biso   1.000  H
  O5       1.0000 0.16940  0.62050  0.24900  Biso   1.000  O
  O6       1.0000 0.83060  0.37950  0.75100  Biso   1.000  O
  H9       1.0000 0.10140  0.60010  0.30080  Biso   1.000  H
  H10      1.0000 0.89860  0.39990  0.69920  Biso   1.000  H
  H11      1.0000 0.10870  0.66890  0.21740  Biso   1.000  H
  H12      1.0000 0.89130  0.33110  0.78260  Biso   1.000  H
  O7       1.0000 0.29360  0.57980  0.06310  Biso   1.000  O
  O8       1.0000 0.70640  0.42020  0.93690  Biso   1.000  O
  H13      1.0000 0.23060  0.63670  0.05280  Biso   1.000  H
  H14      1.0000 0.76940  0.36330  0.94720  Biso   1.000  H
  H15      1.0000 0.21720  0.53690  0.08030  Biso   1.000  H
  H16      1.0000 0.78280  0.46310  0.91970  Biso   1.000  H
  O9       1.0000 0.69920  0.59020  0.06030  Biso   1.000  O
  O10      1.0000 0.30080  0.40980  0.93970  Biso   1.000  O
  H17      1.0000 0.80330  0.55640  0.05830  Biso   1.000  H
  H18      1.0000 0.19670  0.44360  0.94170  Biso   1.000  H
  H19      1.0000 0.71710  0.64860  0.02560  Biso   1.000  H
  H20      1.0000 0.28290  0.35140  0.97440  Biso   1.000  H
  O11      1.0000 0.49810  0.40610  0.13080  Biso   1.000  O
  O12      1.0000 0.50190  0.59390  0.86920  Biso   1.000  O
  H21      1.0000 0.53190  0.34890  0.16390  Biso   1.000  H
  H22      1.0000 0.46810  0.65110  0.83610  Biso   1.000  H
  H23      1.0000 0.53200  0.40540  0.07540  Biso   1.000  H
  H24      1.0000 0.46800  0.59460  0.92460  Biso   1.000  H
  O13      1.0000 0.40940  0.74140  0.11790  Biso   1.000  O
  O14      1.0000 0.59060  0.25860  0.88210  Biso   1.000  O
  O15      1.0000 0.55720  0.78170  0.96690  Biso   1.000  O
  O16      1.0000 0.44280  0.21830  0.03310  Biso   1.000  O
  O17      1.0000 0.92690  0.24560  0.99640  Biso   1.000  O
  O18      1.0000 0.07310  0.75440  0.00360  Biso   1.000  O
  O19      1.0000 0.08740  0.25810  0.84910  Biso   1.000  O
  O20      1.0000 0.91260  0.74190  0.15090  Biso   1.000  O
  O21      1.0000 0.35060  0.42620  0.31910  Biso   1.000  O
  O22      1.0000 0.64940  0.57380  0.68090  Biso   1.000  O
  O23      1.0000 0.06210  0.47040  0.39390  Biso   1.000  O
  O24      1.0000 0.93790  0.52960  0.60610  Biso   1.000  O
  O25      1.0000 0.39790  0.74580  0.39140  Biso   1.000  O
  O26      1.0000 0.60210  0.25420  0.60860  Biso   1.000  O
  H25      1.0000 0.37620  0.70830  0.44580  Biso   1.000  H
  H26      1.0000 0.62380  0.29170  0.55420  Biso   1.000  H
  H27      1.0000 0.36690  0.80590  0.39450  Biso   1.000  H
  H28      1.0000 0.63310  0.19410  0.60550  Biso   1.000  H
  O27      1.0000 0.66010  0.43510  0.45770  Biso   1.000  O
  O28      1.0000 0.33990  0.56490  0.54230  Biso   1.000  O
  H29      1.0000 0.62450  0.46480  0.40790  Biso   1.000  H
  H30      1.0000 0.37550  0.53520  0.59210  Biso   1.000  H
  H31      1.0000 0.77150  0.44290  0.44990  Biso   1.000  H
  H32      1.0000 0.22850  0.55710  0.55010  Biso   1.000  H
  N1       1.0000 0.36890  0.96530  0.92790  Biso   1.000  N
  N2       1.0000 0.63110  0.03470  0.07210  Biso   1.000  N
  N3       1.0000 0.34780  0.13210  0.50960  Biso   1.000  N
  N4       1.0000 0.65220  0.86790  0.49040  Biso   1.000  N
  C1       1.0000 0.27910  0.06100  0.90260  Biso   1.000  C
  C2       1.0000 0.72090  0.93900  0.09740  Biso   1.000  C
  H33      1.0000 0.29990  0.09850  0.83920  Biso   1.000  H
  H34      1.0000 0.70010  0.90150  0.16080  Biso   1.000  H
  C3       1.0000 0.15590  0.10590  0.96830  Biso   1.000  C
  C4       1.0000 0.84410  0.89410  0.03170  Biso   1.000  C
  C5       1.0000 0.12780  0.04990  0.06270  Biso   1.000  C
  C6       1.0000 0.87220  0.95010  0.93730  Biso   1.000  C
  H35      1.0000 0.04900  0.07910  0.10830  Biso   1.000  H
  H36      1.0000 0.95100  0.92090  0.89170  Biso   1.000  H
  C7       1.0000 0.21810  0.94990  0.08870  Biso   1.000  C
  C8       1.0000 0.78190  0.05010  0.91130  Biso   1.000  C
  H37      1.0000 0.19870  0.91060  0.15150  Biso   1.000  H
  H38      1.0000 0.80130  0.08940  0.84850  Biso   1.000  H
  C9       1.0000 0.33770  0.90990  0.01920  Biso   1.000  C
  C10      1.0000 0.66230  0.09010  0.98080  Biso   1.000  C
  C11      1.0000 0.44130  0.80160  0.03830  Biso   1.000  C
  C12      1.0000 0.55870  0.19840  0.96170  Biso   1.000  C
  C13      1.0000 0.04950  0.21230  0.93490  Biso   1.000  C
  C14      1.0000 0.95050  0.78770  0.06510  Biso   1.000  C
  C15      1.0000 0.34970  0.22650  0.44630  Biso   1.000  C
  C16      1.0000 0.65030  0.77350  0.55370  Biso   1.000  C
  H39      1.0000 0.43930  0.23620  0.39040  Biso   1.000  H
  H40      1.0000 0.56070  0.76380  0.60960  Biso   1.000  H
  C17      1.0000 0.22100  0.30890  0.46300  Biso   1.000  C
  C18      1.0000 0.77900  0.69110  0.53700  Biso   1.000  C
  C19      1.0000 0.09380  0.29690  0.54740  Biso   1.000  C
  C20      1.0000 0.90620  0.70310  0.45260  Biso   1.000  C
  H41      1.0000 0.00730  0.35230  0.55960  Biso   1.000  H
  H42      1.0000 0.99270  0.64770  0.44040  Biso   1.000  H
  C21      1.0000 0.09680  0.20090  0.61400  Biso   1.000  C
  C22      1.0000 0.90320  0.79910  0.38600  Biso   1.000  C
  H43      1.0000 0.01480  0.19120  0.67230  Biso   1.000  H
  H44      1.0000 0.98520  0.80880  0.32770  Biso   1.000  H
  C23      1.0000 0.22250  0.12090  0.59240  Biso   1.000  C
  C24      1.0000 0.77750  0.87910  0.40760  Biso   1.000  C
  C25      1.0000 0.21150  0.41120  0.38690  Biso   1.000  C
  C26      1.0000 0.78850  0.58880  0.61310  Biso   1.000  C
  C27      1.0000 0.23230  0.01120  0.65720  Biso   1.000  C
  C28      1.0000 0.76770  0.98880  0.34280  Biso   1.000  C
  O29      1.0000 0.35220  0.94400  0.62380  Biso   1.000  O
  O30      1.0000 0.64780  0.05600  0.37620  Biso   1.000  O
  O31      1.0000 0.12870  0.99190  0.73520  Biso   1.000  O
  O32      1.0000 0.87130  0.00810  0.26480  Biso   1.000  O
  O33      1.0000 0.72590  0.44520  0.24020  Biso   1.000  O
  O34      1.0000 0.27410  0.55480  0.75980  Biso   1.000  O
  C29      1.0000 0.88910  0.41890  0.20090  Biso   1.000  C
  C30      1.0000 0.11090  0.58110  0.79910  Biso   1.000  C
  O35      1.0000 0.98010  0.47040  0.12420  Biso   1.000  O
  O36      1.0000 0.01990  0.52960  0.87580  Biso   1.000  O
  C31      1.0000 0.98460  0.31380  0.24680  Biso   1.000  C
  C32      1.0000 0.01540  0.68620  0.75320  Biso   1.000  C
  C33      1.0000 0.14240  0.27500  0.19280  Biso   1.000  C
  C34      1.0000 0.85760  0.72500  0.80720  Biso   1.000  C
  H45      1.0000 0.18900  0.31620  0.13290  Biso   1.000  H
  H46      1.0000 0.81100  0.68380  0.86710  Biso   1.000  H
  C35      1.0000 0.91960  0.25330  0.33650  Biso   1.000  C
  C36      1.0000 0.08040  0.74670  0.66350  Biso   1.000  C
  H47      1.0000 0.81300  0.27770  0.37440  Biso   1.000  H
  H48      1.0000 0.18700  0.72230  0.62560  Biso   1.000  H
  N5       1.0000 0.23120  0.18080  0.22330  Biso   1.000  N
  N6       1.0000 0.76880  0.81920  0.77670  Biso   1.000  N
  C37      1.0000 0.01350  0.15590  0.37020  Biso   1.000  C
  C38      1.0000 0.98650  0.84410  0.62980  Biso   1.000  C
  H49      1.0000 0.97330  0.11520  0.43120  Biso   1.000  H
  H50      1.0000 0.02670  0.88480  0.56880  Biso   1.000  H
  C39      1.0000 0.16660  0.12120  0.31150  Biso   1.000  C
  C40      1.0000 0.83340  0.87880  0.68850  Biso   1.000  C
  C41      1.0000 0.27770  0.01480  0.33460  Biso   1.000  C
  C42      1.0000 0.72230  0.98520  0.66540  Biso   1.000  C
  O37      1.0000 0.40560  0.99420  0.26580  Biso   1.000  O
  O38      1.0000 0.59440  0.00580  0.73420  Biso   1.000  O
  O39      1.0000 0.24560  0.95590  0.41440  Biso   1.000  O
  O40      1.0000 0.75440  0.04410  0.58560  Biso   1.000  O
