data_image0
_cell_length_a       10.6453
_cell_length_b       11.6437
_cell_length_c       12.3213
_cell_angle_alpha    103.186
_cell_angle_beta     93.712
_cell_angle_gamma    95.46

_symmetry_space_group_name_H-M    "P 1"
_symmetry_int_tables_number       1

loop_
  _symmetry_equiv_pos_as_xyz
  'x, y, z'

loop_
  _atom_site_label
  _atom_site_occupancy
  _atom_site_fract_x
  _atom_site_fract_y
  _atom_site_fract_z
  _atom_site_thermal_displace_type
  _atom_site_B_iso_or_equiv
  _atom_site_type_symbol
  Cu1      1.0000 0.00000  0.50000  0.50000  Biso   1.000  Cu
  Cu2      1.0000 0.16105  0.28114  0.30705  Biso   1.000  Cu
  Cu3      1.0000 0.83895  0.71886  0.69295  Biso   1.000  Cu
  C1       1.0000 0.35660  0.49520  0.39380  Biso   1.000  C
  C2       1.0000 0.64340  0.50480  0.60620  Biso   1.000  C
  H1       1.0000 0.31510  0.51190  0.45880  Biso   1.000  H
  H2       1.0000 0.68490  0.48810  0.54120  Biso   1.000  H
  C3       1.0000 0.46790  0.56510  0.38780  Biso   1.000  C
  C4       1.0000 0.53210  0.43490  0.61220  Biso   1.000  C
  H3       1.0000 0.49890  0.62830  0.44730  Biso   1.000  H
  H4       1.0000 0.50110  0.37170  0.55270  Biso   1.000  H
  C5       1.0000 0.53200  0.54040  0.29360  Biso   1.000  C
  C6       1.0000 0.46800  0.45960  0.70640  Biso   1.000  C
  H5       1.0000 0.60810  0.58490  0.28950  Biso   1.000  H
  H6       1.0000 0.39190  0.41510  0.71050  Biso   1.000  H
  C7       1.0000 0.48140  0.44780  0.20420  Biso   1.000  C
  C8       1.0000 0.51860  0.55220  0.79580  Biso   1.000  C
  C9       1.0000 0.54090  0.41500  0.09870  Biso   1.000  C
  C10      1.0000 0.45910  0.58500  0.90130  Biso   1.000  C
  C11      1.0000 0.70440  0.43930  0.99270  Biso   1.000  C
  C12      1.0000 0.29560  0.56070  0.00730  Biso   1.000  C
  C13      1.0000 0.82000  0.50090  0.97710  Biso   1.000  C
  C14      1.0000 0.18000  0.49910  0.02290  Biso   1.000  C
  H7       1.0000 0.85910  0.56370  0.03350  Biso   1.000  H
  H8       1.0000 0.14090  0.43630  0.96650  Biso   1.000  H
  C15      1.0000 0.87430  0.46830  0.87920  Biso   1.000  C
  C16      1.0000 0.12570  0.53170  0.12080  Biso   1.000  C
  H9       1.0000 0.94990  0.50990  0.86890  Biso   1.000  H
  H10      1.0000 0.05010  0.49010  0.13110  Biso   1.000  H
  C17      1.0000 0.81810  0.37370  0.79450  Biso   1.000  C
  C18      1.0000 0.18190  0.62630  0.20550  Biso   1.000  C
  H11      1.0000 0.85760  0.35270  0.72880  Biso   1.000  H
  H12      1.0000 0.14240  0.64730  0.27120  Biso   1.000  H
  C19      1.0000 0.70620  0.31030  0.80500  Biso   1.000  C
  C20      1.0000 0.29380  0.68970  0.19500  Biso   1.000  C
  H13      1.0000 0.67070  0.24610  0.74820  Biso   1.000  H
  H14      1.0000 0.32930  0.75390  0.25180  Biso   1.000  H
  C21      1.0000 0.64480  0.34550  0.90600  Biso   1.000  C
  C22      1.0000 0.35520  0.65450  0.09400  Biso   1.000  C
  C23      1.0000 0.47890  0.32240  0.00940  Biso   1.000  C
  C24      1.0000 0.52110  0.67760  0.99060  Biso   1.000  C
  C25      1.0000 0.35560  0.26210  0.02140  Biso   1.000  C
  C26      1.0000 0.64440  0.73790  0.97860  Biso   1.000  C
  C27      1.0000 0.28390  0.17810  0.93630  Biso   1.000  C
  C28      1.0000 0.71610  0.82190  0.06370  Biso   1.000  C
  H15      1.0000 0.31260  0.15820  0.86550  Biso   1.000  H
  H16      1.0000 0.68740  0.84180  0.13450  Biso   1.000  H
  C29      1.0000 0.17090  0.12470  0.95700  Biso   1.000  C
  C30      1.0000 0.82910  0.87530  0.04300  Biso   1.000  C
  H17      1.0000 0.12120  0.06990  0.89990  Biso   1.000  H
  H18      1.0000 0.87880  0.93010  0.10010  Biso   1.000  H
  C31      1.0000 0.13070  0.15280  0.06470  Biso   1.000  C
  C32      1.0000 0.86930  0.84720  0.93530  Biso   1.000  C
  H19      1.0000 0.05550  0.11390  0.07910  Biso   1.000  H
  H20      1.0000 0.94450  0.88610  0.92090  Biso   1.000  H
  C33      1.0000 0.30640  0.28940  0.12530  Biso   1.000  C
  C34      1.0000 0.69360  0.71060  0.87470  Biso   1.000  C
  C35      1.0000 0.36850  0.38300  0.21540  Biso   1.000  C
  C36      1.0000 0.63150  0.61700  0.78460  Biso   1.000  C
  C37      1.0000 0.09360  0.30550  0.53820  Biso   1.000  C
  C38      1.0000 0.90640  0.69450  0.46180  Biso   1.000  C
  C39      1.0000 0.11800  0.19780  0.57880  Biso   1.000  C
  C40      1.0000 0.88200  0.80220  0.42120  Biso   1.000  C
  C41      1.0000 0.23450  0.15440  0.56790  Biso   1.000  C
  C42      1.0000 0.76550  0.84560  0.43210  Biso   1.000  C
  H21      1.0000 0.29820  0.19430  0.53780  Biso   1.000  H
  H22      1.0000 0.70180  0.80570  0.46220  Biso   1.000  H
  C43      1.0000 0.25640  0.05240  0.60130  Biso   1.000  C
  C44      1.0000 0.74360  0.94760  0.39870  Biso   1.000  C
  H23      1.0000 0.33560  0.02510  0.59650  Biso   1.000  H
  H24      1.0000 0.66440  0.97490  0.40350  Biso   1.000  H
  C45      1.0000 0.15960  0.99050  0.64230  Biso   1.000  C
  C46      1.0000 0.84040  0.00950  0.35770  Biso   1.000  C
  H25      1.0000 0.17350  0.92040  0.66290  Biso   1.000  H
  H26      1.0000 0.82650  0.07960  0.33710  Biso   1.000  H
  C47      1.0000 0.04250  0.03240  0.65250  Biso   1.000  C
  C48      1.0000 0.95750  0.96760  0.34750  Biso   1.000  C
  C49      1.0000 0.02310  0.13740  0.62320  Biso   1.000  C
  C50      1.0000 0.97690  0.86260  0.37680  Biso   1.000  C
  H27      1.0000 0.94590  0.16790  0.63320  Biso   1.000  H
  H28      1.0000 0.05410  0.83210  0.36680  Biso   1.000  H
  C51      1.0000 0.93510  0.96080  0.68950  Biso   1.000  C
  C52      1.0000 0.06490  0.03920  0.31050  Biso   1.000  C
  C53      1.0000 0.88320  0.35840  0.30660  Biso   1.000  C
  C54      1.0000 0.11680  0.64160  0.69340  Biso   1.000  C
  C55      1.0000 0.77670  0.27390  0.23880  Biso   1.000  C
  C56      1.0000 0.22330  0.72610  0.76120  Biso   1.000  C
  C57      1.0000 0.78640  0.21900  0.12820  Biso   1.000  C
  C58      1.0000 0.21360  0.78100  0.87180  Biso   1.000  C
  H29      1.0000 0.85730  0.23930  0.09330  Biso   1.000  H
  H30      1.0000 0.14270  0.76070  0.90670  Biso   1.000  H
  C59      1.0000 0.69190  0.13440  0.06920  Biso   1.000  C
  C60      1.0000 0.30810  0.86560  0.93080  Biso   1.000  C
  H31      1.0000 0.69900  0.09720  0.99490  Biso   1.000  H
  H32      1.0000 0.30100  0.90280  0.00510  Biso   1.000  H
  C61      1.0000 0.58590  0.10510  0.12160  Biso   1.000  C
  C62      1.0000 0.41410  0.89490  0.87840  Biso   1.000  C
  H33      1.0000 0.52270  0.04710  0.08250  Biso   1.000  H
  H34      1.0000 0.47730  0.95290  0.91750  Biso   1.000  H
  C63      1.0000 0.57350  0.16110  0.23100  Biso   1.000  C
  C64      1.0000 0.42650  0.83890  0.76900  Biso   1.000  C
  C65      1.0000 0.66750  0.24590  0.28930  Biso   1.000  C
  C66      1.0000 0.33250  0.75410  0.71070  Biso   1.000  C
  H35      1.0000 0.65850  0.28480  0.36270  Biso   1.000  H
  H36      1.0000 0.34150  0.71520  0.63730  Biso   1.000  H
  C67      1.0000 0.45670  0.13400  0.28640  Biso   1.000  C
  C68      1.0000 0.54330  0.86600  0.71360  Biso   1.000  C
  N1       1.0000 0.30720  0.40537  0.31041  Biso   1.000  N
  N2       1.0000 0.69280  0.59463  0.68959  Biso   1.000  N
  N3       1.0000 0.19710  0.23343  0.14657  Biso   1.000  N
  N4       1.0000 0.80290  0.76657  0.85343  Biso   1.000  N
  N5       1.0000 0.65030  0.47340  0.08990  Biso   1.000  N
  N6       1.0000 0.34970  0.52660  0.91010  Biso   1.000  N
  N7       1.0000 0.53050  0.28740  0.91340  Biso   1.000  N
  N8       1.0000 0.46950  0.71260  0.08660  Biso   1.000  N
  O1       1.0000 0.16570  0.33737  0.46839  Biso   1.000  O
  O2       1.0000 0.83430  0.66263  0.53161  Biso   1.000  O
  O3       1.0000 0.00556  0.36275  0.57337  Biso   1.000  O
  O4       1.0000 0.99444  0.63725  0.42663  Biso   1.000  O
  O5       1.0000 0.95640  0.85736  0.69704  Biso   1.000  O
  O6       1.0000 0.04360  0.14264  0.30296  Biso   1.000  O
  O7       1.0000 0.83620  0.00500  0.70810  Biso   1.000  O
  O8       1.0000 0.16380  0.99500  0.29190  Biso   1.000  O
  O9       1.0000 0.98789  0.36972  0.26738  Biso   1.000  O
  O10      1.0000 0.01211  0.63028  0.73262  Biso   1.000  O
  O11      1.0000 0.85902  0.41203  0.40347  Biso   1.000  O
  O12      1.0000 0.14098  0.58797  0.59653  Biso   1.000  O
  O13      1.0000 0.37680  0.04960  0.22334  Biso   1.000  O
  O14      1.0000 0.62320  0.95040  0.77666  Biso   1.000  O
  H37      1.0000 0.31250  0.04140  0.25540  Biso   1.000  H
  H38      1.0000 0.68750  0.95860  0.74460  Biso   1.000  H
  O15      1.0000 0.43680  0.18980  0.37640  Biso   1.000  O
  O16      1.0000 0.56320  0.81020  0.62360  Biso   1.000  O
