data_image0
_cell_length_a       23.7249
_cell_length_b       10.5067
_cell_length_c       15.246
_cell_angle_alpha    90
_cell_angle_beta     116.988
_cell_angle_gamma    90

_symmetry_space_group_name_H-M    "P 1"
_symmetry_int_tables_number       1

loop_
  _symmetry_equiv_pos_as_xyz
  'x, y, z'

loop_
  _atom_site_label
  _atom_site_occupancy
  _atom_site_fract_x
  _atom_site_fract_y
  _atom_site_fract_z
  _atom_site_thermal_displace_type
  _atom_site_B_iso_or_equiv
  _atom_site_type_symbol
  Cu1      1.0000 0.02269  0.53850  0.11608  Biso   1.000  Cu
  Cu2      1.0000 0.97731  0.53850  0.38392  Biso   1.000  Cu
  Cu3      1.0000 0.52269  0.03850  0.11608  Biso   1.000  Cu
  Cu4      1.0000 0.47731  0.03850  0.38392  Biso   1.000  Cu
  Cu5      1.0000 0.97731  0.46150  0.88392  Biso   1.000  Cu
  Cu6      1.0000 0.02269  0.46150  0.61608  Biso   1.000  Cu
  Cu7      1.0000 0.47731  0.96150  0.88392  Biso   1.000  Cu
  Cu8      1.0000 0.52269  0.96150  0.61608  Biso   1.000  Cu
  Cl1      1.0000 0.36265  0.48963  0.38428  Biso   1.000  Cl
  Cl2      1.0000 0.63735  0.48963  0.11572  Biso   1.000  Cl
  Cl3      1.0000 0.86265  0.98963  0.38428  Biso   1.000  Cl
  Cl4      1.0000 0.13735  0.98963  0.11572  Biso   1.000  Cl
  Cl5      1.0000 0.63735  0.51037  0.61572  Biso   1.000  Cl
  Cl6      1.0000 0.36265  0.51037  0.88428  Biso   1.000  Cl
  Cl7      1.0000 0.13735  0.01037  0.61572  Biso   1.000  Cl
  Cl8      1.0000 0.86265  0.01037  0.88428  Biso   1.000  Cl
  Cl9      1.0000 0.68312  0.50558  0.91933  Biso   1.000  Cl
  Cl10     1.0000 0.31688  0.50558  0.58067  Biso   1.000  Cl
  Cl11     1.0000 0.18312  0.00558  0.91933  Biso   1.000  Cl
  Cl12     1.0000 0.81688  0.00558  0.58067  Biso   1.000  Cl
  Cl13     1.0000 0.31688  0.49442  0.08067  Biso   1.000  Cl
  Cl14     1.0000 0.68312  0.49442  0.41933  Biso   1.000  Cl
  Cl15     1.0000 0.81688  0.99442  0.08067  Biso   1.000  Cl
  Cl16     1.0000 0.18312  0.99442  0.41933  Biso   1.000  Cl
  O1       1.0000 0.09481  0.63334  0.20125  Biso   1.000  O
  O2       1.0000 0.90519  0.63334  0.29875  Biso   1.000  O
  O3       1.0000 0.59481  0.13334  0.20125  Biso   1.000  O
  O4       1.0000 0.40519  0.13334  0.29875  Biso   1.000  O
  O5       1.0000 0.90519  0.36666  0.79875  Biso   1.000  O
  O6       1.0000 0.09481  0.36666  0.70125  Biso   1.000  O
  O7       1.0000 0.40519  0.86666  0.79875  Biso   1.000  O
  O8       1.0000 0.59481  0.86666  0.70125  Biso   1.000  O
  O9       1.0000 0.95146  0.44838  0.01836  Biso   1.000  O
  O10      1.0000 0.04854  0.44838  0.48164  Biso   1.000  O
  O11      1.0000 0.45146  0.94838  0.01836  Biso   1.000  O
  O12      1.0000 0.54854  0.94838  0.48164  Biso   1.000  O
  O13      1.0000 0.04854  0.55162  0.98164  Biso   1.000  O
  O14      1.0000 0.95146  0.55162  0.51836  Biso   1.000  O
  O15      1.0000 0.54854  0.05162  0.98164  Biso   1.000  O
  O16      1.0000 0.45146  0.05162  0.51836  Biso   1.000  O
  N1       1.0000 0.06650  0.37212  0.17172  Biso   1.000  N
  N2       1.0000 0.93350  0.37212  0.32828  Biso   1.000  N
  N3       1.0000 0.56650  0.87212  0.17172  Biso   1.000  N
  N4       1.0000 0.43350  0.87212  0.32828  Biso   1.000  N
  N5       1.0000 0.93350  0.62788  0.82828  Biso   1.000  N
  N6       1.0000 0.06650  0.62788  0.67172  Biso   1.000  N
  N7       1.0000 0.43350  0.12788  0.82828  Biso   1.000  N
  N8       1.0000 0.56650  0.12788  0.67172  Biso   1.000  N
  N9       1.0000 0.96894  0.69745  0.09189  Biso   1.000  N
  N10      1.0000 0.03106  0.69745  0.40811  Biso   1.000  N
  N11      1.0000 0.46894  0.19745  0.09189  Biso   1.000  N
  N12      1.0000 0.53106  0.19745  0.40811  Biso   1.000  N
  N13      1.0000 0.03106  0.30255  0.90811  Biso   1.000  N
  N14      1.0000 0.96894  0.30255  0.59189  Biso   1.000  N
  N15      1.0000 0.53106  0.80255  0.90811  Biso   1.000  N
  N16      1.0000 0.46894  0.80255  0.59189  Biso   1.000  N
  C1       1.0000 0.15334  0.59527  0.24600  Biso   1.000  C
  C2       1.0000 0.84666  0.59527  0.25400  Biso   1.000  C
  C3       1.0000 0.65334  0.09527  0.24600  Biso   1.000  C
  C4       1.0000 0.34666  0.09527  0.25400  Biso   1.000  C
  C5       1.0000 0.84666  0.40473  0.75400  Biso   1.000  C
  C6       1.0000 0.15334  0.40473  0.74600  Biso   1.000  C
  C7       1.0000 0.34666  0.90473  0.75400  Biso   1.000  C
  C8       1.0000 0.65334  0.90473  0.74600  Biso   1.000  C
  C9       1.0000 0.20162  0.68856  0.28841  Biso   1.000  C
  C10      1.0000 0.79838  0.68856  0.21159  Biso   1.000  C
  C11      1.0000 0.70162  0.18856  0.28841  Biso   1.000  C
  C12      1.0000 0.29838  0.18856  0.21159  Biso   1.000  C
  C13      1.0000 0.79838  0.31144  0.71159  Biso   1.000  C
  C14      1.0000 0.20162  0.31144  0.78841  Biso   1.000  C
  C15      1.0000 0.29838  0.81144  0.71159  Biso   1.000  C
  C16      1.0000 0.70162  0.81144  0.78841  Biso   1.000  C
  H1       1.0000 0.19040  0.77350  0.28770  Biso   1.000  H
  H2       1.0000 0.80960  0.77350  0.21230  Biso   1.000  H
  H3       1.0000 0.69040  0.27350  0.28770  Biso   1.000  H
  H4       1.0000 0.30960  0.27350  0.21230  Biso   1.000  H
  H5       1.0000 0.80960  0.22650  0.71230  Biso   1.000  H
  H6       1.0000 0.19040  0.22650  0.78770  Biso   1.000  H
  H7       1.0000 0.30960  0.72650  0.71230  Biso   1.000  H
  H8       1.0000 0.69040  0.72650  0.78770  Biso   1.000  H
  C17      1.0000 0.26477  0.65589  0.33059  Biso   1.000  C
  C18      1.0000 0.73523  0.65589  0.16941  Biso   1.000  C
  C19      1.0000 0.76477  0.15589  0.33059  Biso   1.000  C
  C20      1.0000 0.23523  0.15589  0.16941  Biso   1.000  C
  C21      1.0000 0.73523  0.34411  0.66941  Biso   1.000  C
  C22      1.0000 0.26477  0.34411  0.83059  Biso   1.000  C
  C23      1.0000 0.23523  0.84411  0.66941  Biso   1.000  C
  C24      1.0000 0.76477  0.84411  0.83059  Biso   1.000  C
  H9       1.0000 0.29560  0.71870  0.35630  Biso   1.000  H
  H10      1.0000 0.70440  0.71870  0.14370  Biso   1.000  H
  H11      1.0000 0.79560  0.21870  0.35630  Biso   1.000  H
  H12      1.0000 0.20440  0.21870  0.14370  Biso   1.000  H
  H13      1.0000 0.70440  0.28130  0.64370  Biso   1.000  H
  H14      1.0000 0.29560  0.28130  0.85630  Biso   1.000  H
  H15      1.0000 0.20440  0.78130  0.64370  Biso   1.000  H
  H16      1.0000 0.79560  0.78130  0.85630  Biso   1.000  H
  C25      1.0000 0.28228  0.52825  0.33464  Biso   1.000  C
  C26      1.0000 0.71772  0.52825  0.16536  Biso   1.000  C
  C27      1.0000 0.78228  0.02825  0.33464  Biso   1.000  C
  C28      1.0000 0.21772  0.02825  0.16536  Biso   1.000  C
  C29      1.0000 0.71772  0.47175  0.66536  Biso   1.000  C
  C30      1.0000 0.28228  0.47175  0.83464  Biso   1.000  C
  C31      1.0000 0.21772  0.97175  0.66536  Biso   1.000  C
  C32      1.0000 0.78228  0.97175  0.83464  Biso   1.000  C
  C33      1.0000 0.23719  0.43461  0.30031  Biso   1.000  C
  C34      1.0000 0.76281  0.43461  0.19969  Biso   1.000  C
  C35      1.0000 0.73719  0.93461  0.30031  Biso   1.000  C
  C36      1.0000 0.26281  0.93461  0.19969  Biso   1.000  C
  C37      1.0000 0.76281  0.56539  0.69969  Biso   1.000  C
  C38      1.0000 0.23719  0.56539  0.80031  Biso   1.000  C
  C39      1.0000 0.26281  0.06539  0.69969  Biso   1.000  C
  C40      1.0000 0.73719  0.06539  0.80031  Biso   1.000  C
  H17      1.0000 0.24950  0.34970  0.30640  Biso   1.000  H
  H18      1.0000 0.75050  0.34970  0.19360  Biso   1.000  H
  H19      1.0000 0.74950  0.84970  0.30640  Biso   1.000  H
  H20      1.0000 0.25050  0.84970  0.19360  Biso   1.000  H
  H21      1.0000 0.75050  0.65030  0.69360  Biso   1.000  H
  H22      1.0000 0.24950  0.65030  0.80640  Biso   1.000  H
  H23      1.0000 0.25050  0.15030  0.69360  Biso   1.000  H
  H24      1.0000 0.74950  0.15030  0.80640  Biso   1.000  H
  C41      1.0000 0.17232  0.46601  0.25576  Biso   1.000  C
  C42      1.0000 0.82768  0.46601  0.24424  Biso   1.000  C
  C43      1.0000 0.67232  0.96601  0.25576  Biso   1.000  C
  C44      1.0000 0.32768  0.96601  0.24424  Biso   1.000  C
  C45      1.0000 0.82768  0.53399  0.74424  Biso   1.000  C
  C46      1.0000 0.17232  0.53399  0.75576  Biso   1.000  C
  C47      1.0000 0.32768  0.03399  0.74424  Biso   1.000  C
  C48      1.0000 0.67232  0.03399  0.75576  Biso   1.000  C
  C49      1.0000 0.12726  0.36225  0.22349  Biso   1.000  C
  C50      1.0000 0.87274  0.36225  0.27651  Biso   1.000  C
  C51      1.0000 0.62726  0.86225  0.22349  Biso   1.000  C
  C52      1.0000 0.37274  0.86225  0.27651  Biso   1.000  C
  C53      1.0000 0.87274  0.63775  0.77651  Biso   1.000  C
  C54      1.0000 0.12726  0.63775  0.72349  Biso   1.000  C
  C55      1.0000 0.37274  0.13775  0.77651  Biso   1.000  C
  C56      1.0000 0.62726  0.13775  0.72349  Biso   1.000  C
  H25      1.0000 0.14350  0.28060  0.24170  Biso   1.000  H
  H26      1.0000 0.85650  0.28060  0.25830  Biso   1.000  H
  H27      1.0000 0.64350  0.78060  0.24170  Biso   1.000  H
  H28      1.0000 0.35650  0.78060  0.25830  Biso   1.000  H
  H29      1.0000 0.85650  0.71940  0.75830  Biso   1.000  H
  H30      1.0000 0.14350  0.71940  0.74170  Biso   1.000  H
  H31      1.0000 0.35650  0.21940  0.75830  Biso   1.000  H
  H32      1.0000 0.64350  0.21940  0.74170  Biso   1.000  H
  C57      1.0000 0.02982  0.25245  0.14935  Biso   1.000  C
  C58      1.0000 0.97018  0.25245  0.35065  Biso   1.000  C
  C59      1.0000 0.52982  0.75245  0.14935  Biso   1.000  C
  C60      1.0000 0.47018  0.75245  0.35065  Biso   1.000  C
  C61      1.0000 0.97018  0.74755  0.85065  Biso   1.000  C
  C62      1.0000 0.02982  0.74755  0.64935  Biso   1.000  C
  C63      1.0000 0.47018  0.24755  0.85065  Biso   1.000  C
  C64      1.0000 0.52982  0.24755  0.64935  Biso   1.000  C
  H33      1.0000 0.05870  0.18120  0.17490  Biso   1.000  H
  H34      1.0000 0.94130  0.18120  0.32510  Biso   1.000  H
  H35      1.0000 0.55870  0.68120  0.17490  Biso   1.000  H
  H36      1.0000 0.44130  0.68120  0.32510  Biso   1.000  H
  H37      1.0000 0.94130  0.81880  0.82510  Biso   1.000  H
  H38      1.0000 0.05870  0.81880  0.67490  Biso   1.000  H
  H39      1.0000 0.44130  0.31880  0.82510  Biso   1.000  H
  H40      1.0000 0.55870  0.31880  0.67490  Biso   1.000  H
  H41      1.0000 0.00640  0.24240  0.07850  Biso   1.000  H
  H42      1.0000 0.99360  0.24240  0.42150  Biso   1.000  H
  H43      1.0000 0.50640  0.74240  0.07850  Biso   1.000  H
  H44      1.0000 0.49360  0.74240  0.42150  Biso   1.000  H
  H45      1.0000 0.99360  0.75760  0.92150  Biso   1.000  H
  H46      1.0000 0.00640  0.75760  0.57850  Biso   1.000  H
  H47      1.0000 0.49360  0.25760  0.92150  Biso   1.000  H
  H48      1.0000 0.50640  0.25760  0.57850  Biso   1.000  H
  C65      1.0000 0.98357  0.25036  0.19396  Biso   1.000  C
  C66      1.0000 0.01643  0.25036  0.30604  Biso   1.000  C
  C67      1.0000 0.48357  0.75036  0.19396  Biso   1.000  C
  C68      1.0000 0.51643  0.75036  0.30604  Biso   1.000  C
  C69      1.0000 0.01643  0.74964  0.80604  Biso   1.000  C
  C70      1.0000 0.98357  0.74964  0.69396  Biso   1.000  C
  C71      1.0000 0.51643  0.24964  0.80604  Biso   1.000  C
  C72      1.0000 0.48357  0.24964  0.69396  Biso   1.000  C
  H49      1.0000 0.95620  0.32420  0.17090  Biso   1.000  H
  H50      1.0000 0.04380  0.32420  0.32910  Biso   1.000  H
  H51      1.0000 0.45620  0.82420  0.17090  Biso   1.000  H
  H52      1.0000 0.54380  0.82420  0.32910  Biso   1.000  H
  H53      1.0000 0.04380  0.67580  0.82910  Biso   1.000  H
  H54      1.0000 0.95620  0.67580  0.67090  Biso   1.000  H
  H55      1.0000 0.54380  0.17580  0.82910  Biso   1.000  H
  H56      1.0000 0.45620  0.17580  0.67090  Biso   1.000  H
  H57      1.0000 0.95720  0.17510  0.17090  Biso   1.000  H
  H58      1.0000 0.04280  0.17510  0.32910  Biso   1.000  H
  H59      1.0000 0.45720  0.67510  0.17090  Biso   1.000  H
  H60      1.0000 0.54280  0.67510  0.32910  Biso   1.000  H
  H61      1.0000 0.04280  0.82490  0.82910  Biso   1.000  H
  H62      1.0000 0.95720  0.82490  0.67090  Biso   1.000  H
  H63      1.0000 0.54280  0.32490  0.82910  Biso   1.000  H
  H64      1.0000 0.45720  0.32490  0.67090  Biso   1.000  H
  C73      1.0000 0.89247  0.46309  0.00258  Biso   1.000  C
  C74      1.0000 0.10753  0.46309  0.49742  Biso   1.000  C
  C75      1.0000 0.39247  0.96309  0.00258  Biso   1.000  C
  C76      1.0000 0.60753  0.96309  0.49742  Biso   1.000  C
  C77      1.0000 0.10753  0.53691  0.99742  Biso   1.000  C
  C78      1.0000 0.89247  0.53691  0.50258  Biso   1.000  C
  C79      1.0000 0.60753  0.03691  0.99742  Biso   1.000  C
  C80      1.0000 0.39247  0.03691  0.50258  Biso   1.000  C
  C81      1.0000 0.85028  0.35895  0.96777  Biso   1.000  C
  C82      1.0000 0.14972  0.35895  0.53223  Biso   1.000  C
  C83      1.0000 0.35028  0.85895  0.96777  Biso   1.000  C
  C84      1.0000 0.64972  0.85895  0.53223  Biso   1.000  C
  C85      1.0000 0.14972  0.64105  0.03223  Biso   1.000  C
  C86      1.0000 0.85028  0.64105  0.46777  Biso   1.000  C
  C87      1.0000 0.64972  0.14105  0.03223  Biso   1.000  C
  C88      1.0000 0.35028  0.14105  0.46777  Biso   1.000  C
  H65      1.0000 0.86530  0.28020  0.95980  Biso   1.000  H
  H66      1.0000 0.13470  0.28020  0.54020  Biso   1.000  H
  H67      1.0000 0.36530  0.78020  0.95980  Biso   1.000  H
  H68      1.0000 0.63470  0.78020  0.54020  Biso   1.000  H
  H69      1.0000 0.13470  0.71980  0.04020  Biso   1.000  H
  H70      1.0000 0.86530  0.71980  0.45980  Biso   1.000  H
  H71      1.0000 0.63470  0.21980  0.04020  Biso   1.000  H
  H72      1.0000 0.36530  0.21980  0.45980  Biso   1.000  H
  C89      1.0000 0.78727  0.37172  0.94540  Biso   1.000  C
  C90      1.0000 0.21273  0.37172  0.55460  Biso   1.000  C
  C91      1.0000 0.28727  0.87172  0.94540  Biso   1.000  C
  C92      1.0000 0.71273  0.87172  0.55460  Biso   1.000  C
  C93      1.0000 0.21273  0.62828  0.05460  Biso   1.000  C
  C94      1.0000 0.78727  0.62828  0.44540  Biso   1.000  C
  C95      1.0000 0.71273  0.12828  0.05460  Biso   1.000  C
  C96      1.0000 0.28727  0.12828  0.44540  Biso   1.000  C
  H73      1.0000 0.76040  0.30180  0.92340  Biso   1.000  H
  H74      1.0000 0.23960  0.30180  0.57660  Biso   1.000  H
  H75      1.0000 0.26040  0.80180  0.92340  Biso   1.000  H
  H76      1.0000 0.73960  0.80180  0.57660  Biso   1.000  H
  H77      1.0000 0.23960  0.69820  0.07660  Biso   1.000  H
  H78      1.0000 0.76040  0.69820  0.42340  Biso   1.000  H
  H79      1.0000 0.73960  0.19820  0.07660  Biso   1.000  H
  H80      1.0000 0.26040  0.19820  0.42340  Biso   1.000  H
  C97      1.0000 0.76409  0.48954  0.95585  Biso   1.000  C
  C98      1.0000 0.23591  0.48954  0.54415  Biso   1.000  C
  C99      1.0000 0.26409  0.98954  0.95585  Biso   1.000  C
  C100     1.0000 0.73591  0.98954  0.54415  Biso   1.000  C
  C101     1.0000 0.23591  0.51046  0.04415  Biso   1.000  C
  C102     1.0000 0.76409  0.51046  0.45585  Biso   1.000  C
  C103     1.0000 0.73591  0.01046  0.04415  Biso   1.000  C
  C104     1.0000 0.26409  0.01046  0.45585  Biso   1.000  C
  C105     1.0000 0.80392  0.59274  0.99261  Biso   1.000  C
  C106     1.0000 0.19608  0.59274  0.50739  Biso   1.000  C
  C107     1.0000 0.30392  0.09274  0.99261  Biso   1.000  C
  C108     1.0000 0.69608  0.09274  0.50739  Biso   1.000  C
  C109     1.0000 0.19608  0.40726  0.00739  Biso   1.000  C
  C110     1.0000 0.80392  0.40726  0.49261  Biso   1.000  C
  C111     1.0000 0.69608  0.90726  0.00739  Biso   1.000  C
  C112     1.0000 0.30392  0.90726  0.49261  Biso   1.000  C
  H81      1.0000 0.78810  0.67040  0.00090  Biso   1.000  H
  H82      1.0000 0.21190  0.67040  0.49910  Biso   1.000  H
  H83      1.0000 0.28810  0.17040  0.00090  Biso   1.000  H
  H84      1.0000 0.71190  0.17040  0.49910  Biso   1.000  H
  H85      1.0000 0.21190  0.32960  0.99910  Biso   1.000  H
  H86      1.0000 0.78810  0.32960  0.50090  Biso   1.000  H
  H87      1.0000 0.71190  0.82960  0.99910  Biso   1.000  H
  H88      1.0000 0.28810  0.82960  0.50090  Biso   1.000  H
  C113     1.0000 0.86871  0.58023  0.01757  Biso   1.000  C
  C114     1.0000 0.13129  0.58023  0.48243  Biso   1.000  C
  C115     1.0000 0.36871  0.08023  0.01757  Biso   1.000  C
  C116     1.0000 0.63129  0.08023  0.48243  Biso   1.000  C
  C117     1.0000 0.13129  0.41977  0.98243  Biso   1.000  C
  C118     1.0000 0.86871  0.41977  0.51757  Biso   1.000  C
  C119     1.0000 0.63129  0.91977  0.98243  Biso   1.000  C
  C120     1.0000 0.36871  0.91977  0.51757  Biso   1.000  C
  C121     1.0000 0.90804  0.69309  0.05320  Biso   1.000  C
  C122     1.0000 0.09196  0.69309  0.44680  Biso   1.000  C
  C123     1.0000 0.40804  0.19309  0.05320  Biso   1.000  C
  C124     1.0000 0.59196  0.19309  0.44680  Biso   1.000  C
  C125     1.0000 0.09196  0.30691  0.94680  Biso   1.000  C
  C126     1.0000 0.90804  0.30691  0.55320  Biso   1.000  C
  C127     1.0000 0.59196  0.80691  0.94680  Biso   1.000  C
  C128     1.0000 0.40804  0.80691  0.55320  Biso   1.000  C
  H89      1.0000 0.88720  0.76990  0.04750  Biso   1.000  H
  H90      1.0000 0.11280  0.76990  0.45250  Biso   1.000  H
  H91      1.0000 0.38720  0.26990  0.04750  Biso   1.000  H
  H92      1.0000 0.61280  0.26990  0.45250  Biso   1.000  H
  H93      1.0000 0.11280  0.23010  0.95250  Biso   1.000  H
  H94      1.0000 0.88720  0.23010  0.54750  Biso   1.000  H
  H95      1.0000 0.61280  0.73010  0.95250  Biso   1.000  H
  H96      1.0000 0.38720  0.73010  0.54750  Biso   1.000  H
  C129     1.0000 0.99791  0.82531  0.12060  Biso   1.000  C
  C130     1.0000 0.00209  0.82531  0.37940  Biso   1.000  C
  C131     1.0000 0.49791  0.32531  0.12060  Biso   1.000  C
  C132     1.0000 0.50209  0.32531  0.37940  Biso   1.000  C
  C133     1.0000 0.00209  0.17469  0.87940  Biso   1.000  C
  C134     1.0000 0.99791  0.17469  0.62060  Biso   1.000  C
  C135     1.0000 0.50209  0.67469  0.87940  Biso   1.000  C
  C136     1.0000 0.49791  0.67469  0.62060  Biso   1.000  C
  H97      1.0000 0.96620  0.88940  0.08520  Biso   1.000  H
  H98      1.0000 0.03380  0.88940  0.41480  Biso   1.000  H
  H99      1.0000 0.46620  0.38940  0.08520  Biso   1.000  H
  H100     1.0000 0.53380  0.38940  0.41480  Biso   1.000  H
  H101     1.0000 0.03380  0.11060  0.91480  Biso   1.000  H
  H102     1.0000 0.96620  0.11060  0.58520  Biso   1.000  H
  H103     1.0000 0.53380  0.61060  0.91480  Biso   1.000  H
  H104     1.0000 0.46620  0.61060  0.58520  Biso   1.000  H
  H105     1.0000 0.03150  0.83350  0.10150  Biso   1.000  H
  H106     1.0000 0.96850  0.83350  0.39850  Biso   1.000  H
  H107     1.0000 0.53150  0.33350  0.10150  Biso   1.000  H
  H108     1.0000 0.46850  0.33350  0.39850  Biso   1.000  H
  H109     1.0000 0.96850  0.16650  0.89850  Biso   1.000  H
  H110     1.0000 0.03150  0.16650  0.60150  Biso   1.000  H
  H111     1.0000 0.46850  0.66650  0.89850  Biso   1.000  H
  H112     1.0000 0.53150  0.66650  0.60150  Biso   1.000  H
  C137     1.0000 0.02494  0.85016  0.23129  Biso   1.000  C
  C138     1.0000 0.97506  0.85016  0.26871  Biso   1.000  C
  C139     1.0000 0.52494  0.35016  0.23129  Biso   1.000  C
  C140     1.0000 0.47506  0.35016  0.26871  Biso   1.000  C
  C141     1.0000 0.97506  0.14984  0.76871  Biso   1.000  C
  C142     1.0000 0.02494  0.14984  0.73129  Biso   1.000  C
  C143     1.0000 0.47506  0.64984  0.76871  Biso   1.000  C
  C144     1.0000 0.52494  0.64984  0.73129  Biso   1.000  C
  H113     1.0000 0.05630  0.78540  0.26650  Biso   1.000  H
  H114     1.0000 0.94370  0.78540  0.23350  Biso   1.000  H
  H115     1.0000 0.55630  0.28540  0.26650  Biso   1.000  H
  H116     1.0000 0.44370  0.28540  0.23350  Biso   1.000  H
  H117     1.0000 0.94370  0.21460  0.73350  Biso   1.000  H
  H118     1.0000 0.05630  0.21460  0.76650  Biso   1.000  H
  H119     1.0000 0.44370  0.71460  0.73350  Biso   1.000  H
  H120     1.0000 0.55630  0.71460  0.76650  Biso   1.000  H
  H121     1.0000 0.04630  0.93190  0.24620  Biso   1.000  H
  H122     1.0000 0.95370  0.93190  0.25380  Biso   1.000  H
  H123     1.0000 0.54630  0.43190  0.24620  Biso   1.000  H
  H124     1.0000 0.45370  0.43190  0.25380  Biso   1.000  H
  H125     1.0000 0.95370  0.06810  0.75380  Biso   1.000  H
  H126     1.0000 0.04630  0.06810  0.74620  Biso   1.000  H
  H127     1.0000 0.45370  0.56810  0.75380  Biso   1.000  H
  H128     1.0000 0.54630  0.56810  0.74620  Biso   1.000  H
