data_image0
_cell_length_a       24.0964
_cell_length_b       10.5885
_cell_length_c       15.3528
_cell_angle_alpha    90
_cell_angle_beta     117.354
_cell_angle_gamma    90

_symmetry_space_group_name_H-M    "P 1"
_symmetry_int_tables_number       1

loop_
  _symmetry_equiv_pos_as_xyz
  'x, y, z'

loop_
  _atom_site_label
  _atom_site_occupancy
  _atom_site_fract_x
  _atom_site_fract_y
  _atom_site_fract_z
  _atom_site_thermal_displace_type
  _atom_site_B_iso_or_equiv
  _atom_site_type_symbol
  Cu1      1.0000 0.47745  0.96062  0.38413  Biso   1.000  Cu
  Cu2      1.0000 0.52255  0.96062  0.11587  Biso   1.000  Cu
  Cu3      1.0000 0.97745  0.46062  0.38413  Biso   1.000  Cu
  Cu4      1.0000 0.02255  0.46062  0.11587  Biso   1.000  Cu
  Cu5      1.0000 0.52255  0.03938  0.61587  Biso   1.000  Cu
  Cu6      1.0000 0.47745  0.03938  0.88413  Biso   1.000  Cu
  Cu7      1.0000 0.02255  0.53938  0.61587  Biso   1.000  Cu
  Cu8      1.0000 0.97745  0.53938  0.88413  Biso   1.000  Cu
  Br1      1.0000 0.81929  0.00198  0.58443  Biso   1.000  Br
  Br2      1.0000 0.18071  0.00198  0.91557  Biso   1.000  Br
  Br3      1.0000 0.31929  0.50198  0.58443  Biso   1.000  Br
  Br4      1.0000 0.68071  0.50198  0.91557  Biso   1.000  Br
  Br5      1.0000 0.18071  0.99802  0.41557  Biso   1.000  Br
  Br6      1.0000 0.81929  0.99802  0.08443  Biso   1.000  Br
  Br7      1.0000 0.68071  0.49802  0.41557  Biso   1.000  Br
  Br8      1.0000 0.31929  0.49802  0.08443  Biso   1.000  Br
  Br9      1.0000 0.13479  0.00911  0.11824  Biso   1.000  Br
  Br10     1.0000 0.86521  0.00911  0.38176  Biso   1.000  Br
  Br11     1.0000 0.63479  0.50911  0.11824  Biso   1.000  Br
  Br12     1.0000 0.36521  0.50911  0.38176  Biso   1.000  Br
  Br13     1.0000 0.86521  0.99089  0.88176  Biso   1.000  Br
  Br14     1.0000 0.13479  0.99089  0.61824  Biso   1.000  Br
  Br15     1.0000 0.36521  0.49089  0.88176  Biso   1.000  Br
  Br16     1.0000 0.63479  0.49089  0.61824  Biso   1.000  Br
  O1       1.0000 0.54761  0.05060  0.48220  Biso   1.000  O
  O2       1.0000 0.45239  0.05060  0.01780  Biso   1.000  O
  O3       1.0000 0.04761  0.55060  0.48220  Biso   1.000  O
  O4       1.0000 0.95239  0.55060  0.01780  Biso   1.000  O
  O5       1.0000 0.45239  0.94940  0.51780  Biso   1.000  O
  O6       1.0000 0.54761  0.94940  0.98220  Biso   1.000  O
  O7       1.0000 0.95239  0.44940  0.51780  Biso   1.000  O
  O8       1.0000 0.04761  0.44940  0.98220  Biso   1.000  O
  O9       1.0000 0.40617  0.86590  0.29980  Biso   1.000  O
  O10      1.0000 0.59383  0.86590  0.20020  Biso   1.000  O
  O11      1.0000 0.90617  0.36590  0.29980  Biso   1.000  O
  O12      1.0000 0.09383  0.36590  0.20020  Biso   1.000  O
  O13      1.0000 0.59383  0.13410  0.70020  Biso   1.000  O
  O14      1.0000 0.40617  0.13410  0.79980  Biso   1.000  O
  O15      1.0000 0.09383  0.63410  0.70020  Biso   1.000  O
  O16      1.0000 0.90617  0.63410  0.79980  Biso   1.000  O
  N1       1.0000 0.53131  0.80440  0.40800  Biso   1.000  N
  N2       1.0000 0.46869  0.80440  0.09200  Biso   1.000  N
  N3       1.0000 0.03131  0.30440  0.40800  Biso   1.000  N
  N4       1.0000 0.96869  0.30440  0.09200  Biso   1.000  N
  N5       1.0000 0.46869  0.19560  0.59200  Biso   1.000  N
  N6       1.0000 0.53131  0.19560  0.90800  Biso   1.000  N
  N7       1.0000 0.96869  0.69560  0.59200  Biso   1.000  N
  N8       1.0000 0.03131  0.69560  0.90800  Biso   1.000  N
  N9       1.0000 0.43372  0.12520  0.32800  Biso   1.000  N
  N10      1.0000 0.56628  0.12520  0.17200  Biso   1.000  N
  N11      1.0000 0.93372  0.62520  0.32800  Biso   1.000  N
  N12      1.0000 0.06628  0.62520  0.17200  Biso   1.000  N
  N13      1.0000 0.56628  0.87480  0.67200  Biso   1.000  N
  N14      1.0000 0.43372  0.87480  0.82800  Biso   1.000  N
  N15      1.0000 0.06628  0.37480  0.67200  Biso   1.000  N
  N16      1.0000 0.93372  0.37480  0.82800  Biso   1.000  N
  C1       1.0000 0.60593  0.03760  0.49800  Biso   1.000  C
  C2       1.0000 0.39407  0.03760  0.00200  Biso   1.000  C
  C3       1.0000 0.10593  0.53760  0.49800  Biso   1.000  C
  C4       1.0000 0.89407  0.53760  0.00200  Biso   1.000  C
  C5       1.0000 0.39407  0.96240  0.50200  Biso   1.000  C
  C6       1.0000 0.60593  0.96240  0.99800  Biso   1.000  C
  C7       1.0000 0.89407  0.46240  0.50200  Biso   1.000  C
  C8       1.0000 0.10593  0.46240  0.99800  Biso   1.000  C
  C9       1.0000 0.64637  0.14230  0.53240  Biso   1.000  C
  C10      1.0000 0.35363  0.14230  0.96760  Biso   1.000  C
  C11      1.0000 0.14637  0.64230  0.53240  Biso   1.000  C
  C12      1.0000 0.85363  0.64230  0.96760  Biso   1.000  C
  C13      1.0000 0.35363  0.85770  0.46760  Biso   1.000  C
  C14      1.0000 0.64637  0.85770  0.03240  Biso   1.000  C
  C15      1.0000 0.85363  0.35770  0.46760  Biso   1.000  C
  C16      1.0000 0.14637  0.35770  0.03240  Biso   1.000  C
  H1       1.0000 0.63100  0.21950  0.54050  Biso   1.000  H
  H2       1.0000 0.36900  0.21950  0.95950  Biso   1.000  H
  H3       1.0000 0.13100  0.71950  0.54050  Biso   1.000  H
  H4       1.0000 0.86900  0.71950  0.95950  Biso   1.000  H
  H5       1.0000 0.36900  0.78050  0.45950  Biso   1.000  H
  H6       1.0000 0.63100  0.78050  0.04050  Biso   1.000  H
  H7       1.0000 0.86900  0.28050  0.45950  Biso   1.000  H
  H8       1.0000 0.13100  0.28050  0.04050  Biso   1.000  H
  C17      1.0000 0.70866  0.13180  0.55420  Biso   1.000  C
  C18      1.0000 0.29134  0.13180  0.94580  Biso   1.000  C
  C19      1.0000 0.20866  0.63180  0.55420  Biso   1.000  C
  C20      1.0000 0.79134  0.63180  0.94580  Biso   1.000  C
  C21      1.0000 0.29134  0.86820  0.44580  Biso   1.000  C
  C22      1.0000 0.70866  0.86820  0.05420  Biso   1.000  C
  C23      1.0000 0.79134  0.36820  0.44580  Biso   1.000  C
  C24      1.0000 0.20866  0.36820  0.05420  Biso   1.000  C
  H9       1.0000 0.73470  0.20210  0.57550  Biso   1.000  H
  H10      1.0000 0.26530  0.20210  0.92450  Biso   1.000  H
  H11      1.0000 0.23470  0.70210  0.57550  Biso   1.000  H
  H12      1.0000 0.76530  0.70210  0.92450  Biso   1.000  H
  H13      1.0000 0.26530  0.79790  0.42450  Biso   1.000  H
  H14      1.0000 0.73470  0.79790  0.07550  Biso   1.000  H
  H15      1.0000 0.76530  0.29790  0.42450  Biso   1.000  H
  H16      1.0000 0.23470  0.29790  0.07550  Biso   1.000  H
  C25      1.0000 0.73222  0.01560  0.54420  Biso   1.000  C
  C26      1.0000 0.26778  0.01560  0.95580  Biso   1.000  C
  C27      1.0000 0.23222  0.51560  0.54420  Biso   1.000  C
  C28      1.0000 0.76778  0.51560  0.95580  Biso   1.000  C
  C29      1.0000 0.26778  0.98440  0.45580  Biso   1.000  C
  C30      1.0000 0.73222  0.98440  0.04420  Biso   1.000  C
  C31      1.0000 0.76778  0.48440  0.45580  Biso   1.000  C
  C32      1.0000 0.23222  0.48440  0.04420  Biso   1.000  C
  C33      1.0000 0.69348  0.91220  0.50730  Biso   1.000  C
  C34      1.0000 0.30652  0.91220  0.99270  Biso   1.000  C
  C35      1.0000 0.19348  0.41220  0.50730  Biso   1.000  C
  C36      1.0000 0.80652  0.41220  0.99270  Biso   1.000  C
  C37      1.0000 0.30652  0.08780  0.49270  Biso   1.000  C
  C38      1.0000 0.69348  0.08780  0.00730  Biso   1.000  C
  C39      1.0000 0.80652  0.58780  0.49270  Biso   1.000  C
  C40      1.0000 0.19348  0.58780  0.00730  Biso   1.000  C
  H17      1.0000 0.70940  0.83600  0.49870  Biso   1.000  H
  H18      1.0000 0.29060  0.83600  0.00130  Biso   1.000  H
  H19      1.0000 0.20940  0.33600  0.49870  Biso   1.000  H
  H20      1.0000 0.79060  0.33600  0.00130  Biso   1.000  H
  H21      1.0000 0.29060  0.16400  0.50130  Biso   1.000  H
  H22      1.0000 0.70940  0.16400  0.99870  Biso   1.000  H
  H23      1.0000 0.79060  0.66400  0.50130  Biso   1.000  H
  H24      1.0000 0.20940  0.66400  0.99870  Biso   1.000  H
  C41      1.0000 0.62944  0.92250  0.48280  Biso   1.000  C
  C42      1.0000 0.37056  0.92250  0.01720  Biso   1.000  C
  C43      1.0000 0.12944  0.42250  0.48280  Biso   1.000  C
  C44      1.0000 0.87056  0.42250  0.01720  Biso   1.000  C
  C45      1.0000 0.37056  0.07750  0.51720  Biso   1.000  C
  C46      1.0000 0.62944  0.07750  0.98280  Biso   1.000  C
  C47      1.0000 0.87056  0.57750  0.51720  Biso   1.000  C
  C48      1.0000 0.12944  0.57750  0.98280  Biso   1.000  C
  C49      1.0000 0.59134  0.80980  0.44660  Biso   1.000  C
  C50      1.0000 0.40866  0.80980  0.05340  Biso   1.000  C
  C51      1.0000 0.09134  0.30980  0.44660  Biso   1.000  C
  C52      1.0000 0.90866  0.30980  0.05340  Biso   1.000  C
  C53      1.0000 0.40866  0.19020  0.55340  Biso   1.000  C
  C54      1.0000 0.59134  0.19020  0.94660  Biso   1.000  C
  C55      1.0000 0.90866  0.69020  0.55340  Biso   1.000  C
  C56      1.0000 0.09134  0.69020  0.94660  Biso   1.000  C
  H25      1.0000 0.61230  0.73430  0.45170  Biso   1.000  H
  H26      1.0000 0.38770  0.73430  0.04830  Biso   1.000  H
  H27      1.0000 0.11230  0.23430  0.45170  Biso   1.000  H
  H28      1.0000 0.88770  0.23430  0.04830  Biso   1.000  H
  H29      1.0000 0.38770  0.26570  0.54830  Biso   1.000  H
  H30      1.0000 0.61230  0.26570  0.95170  Biso   1.000  H
  H31      1.0000 0.88770  0.76570  0.54830  Biso   1.000  H
  H32      1.0000 0.11230  0.76570  0.95170  Biso   1.000  H
  C57      1.0000 0.50307  0.67700  0.37900  Biso   1.000  C
  C58      1.0000 0.49693  0.67700  0.12100  Biso   1.000  C
  C59      1.0000 0.00307  0.17700  0.37900  Biso   1.000  C
  C60      1.0000 0.99693  0.17700  0.12100  Biso   1.000  C
  C61      1.0000 0.49693  0.32300  0.62100  Biso   1.000  C
  C62      1.0000 0.50307  0.32300  0.87900  Biso   1.000  C
  C63      1.0000 0.99693  0.82300  0.62100  Biso   1.000  C
  C64      1.0000 0.00307  0.82300  0.87900  Biso   1.000  C
  H33      1.0000 0.47020  0.66770  0.39840  Biso   1.000  H
  H34      1.0000 0.52980  0.66770  0.10160  Biso   1.000  H
  H35      1.0000 0.97020  0.16770  0.39840  Biso   1.000  H
  H36      1.0000 0.02980  0.16770  0.10160  Biso   1.000  H
  H37      1.0000 0.52980  0.33230  0.60160  Biso   1.000  H
  H38      1.0000 0.47020  0.33230  0.89840  Biso   1.000  H
  H39      1.0000 0.02980  0.83230  0.60160  Biso   1.000  H
  H40      1.0000 0.97020  0.83230  0.89840  Biso   1.000  H
  H41      1.0000 0.53470  0.61370  0.41380  Biso   1.000  H
  H42      1.0000 0.46530  0.61370  0.08620  Biso   1.000  H
  H43      1.0000 0.03470  0.11370  0.41380  Biso   1.000  H
  H44      1.0000 0.96530  0.11370  0.08620  Biso   1.000  H
  H45      1.0000 0.46530  0.38630  0.58620  Biso   1.000  H
  H46      1.0000 0.53470  0.38630  0.91380  Biso   1.000  H
  H47      1.0000 0.96530  0.88630  0.58620  Biso   1.000  H
  H48      1.0000 0.03470  0.88630  0.91380  Biso   1.000  H
  C65      1.0000 0.47575  0.65350  0.26860  Biso   1.000  C
  C66      1.0000 0.52425  0.65350  0.23140  Biso   1.000  C
  C67      1.0000 0.97575  0.15350  0.26860  Biso   1.000  C
  C68      1.0000 0.02425  0.15350  0.23140  Biso   1.000  C
  C69      1.0000 0.52425  0.34650  0.73140  Biso   1.000  C
  C70      1.0000 0.47575  0.34650  0.76860  Biso   1.000  C
  C71      1.0000 0.02425  0.84650  0.73140  Biso   1.000  C
  C72      1.0000 0.97575  0.84650  0.76860  Biso   1.000  C
  H49      1.0000 0.45440  0.57270  0.25330  Biso   1.000  H
  H50      1.0000 0.54560  0.57270  0.24670  Biso   1.000  H
  H51      1.0000 0.95440  0.07270  0.25330  Biso   1.000  H
  H52      1.0000 0.04560  0.07270  0.24670  Biso   1.000  H
  H53      1.0000 0.54560  0.42730  0.74670  Biso   1.000  H
  H54      1.0000 0.45440  0.42730  0.75330  Biso   1.000  H
  H55      1.0000 0.04560  0.92730  0.74670  Biso   1.000  H
  H56      1.0000 0.95440  0.92730  0.75330  Biso   1.000  H
  H57      1.0000 0.44490  0.71830  0.23410  Biso   1.000  H
  H58      1.0000 0.55510  0.71830  0.26590  Biso   1.000  H
  H59      1.0000 0.94490  0.21830  0.23410  Biso   1.000  H
  H60      1.0000 0.05510  0.21830  0.26590  Biso   1.000  H
  H61      1.0000 0.55510  0.28170  0.76590  Biso   1.000  H
  H62      1.0000 0.44490  0.28170  0.73410  Biso   1.000  H
  H63      1.0000 0.05510  0.78170  0.76590  Biso   1.000  H
  H64      1.0000 0.94490  0.78170  0.73410  Biso   1.000  H
  C73      1.0000 0.34829  0.90320  0.25550  Biso   1.000  C
  C74      1.0000 0.65171  0.90320  0.24450  Biso   1.000  C
  C75      1.0000 0.84829  0.40320  0.25550  Biso   1.000  C
  C76      1.0000 0.15171  0.40320  0.24450  Biso   1.000  C
  C77      1.0000 0.65171  0.09680  0.74450  Biso   1.000  C
  C78      1.0000 0.34829  0.09680  0.75550  Biso   1.000  C
  C79      1.0000 0.15171  0.59680  0.74450  Biso   1.000  C
  C80      1.0000 0.84829  0.59680  0.75550  Biso   1.000  C
  C81      1.0000 0.30077  0.81100  0.21230  Biso   1.000  C
  C82      1.0000 0.69923  0.81100  0.28770  Biso   1.000  C
  C83      1.0000 0.80077  0.31100  0.21230  Biso   1.000  C
  C84      1.0000 0.19923  0.31100  0.28770  Biso   1.000  C
  C85      1.0000 0.69923  0.18900  0.78770  Biso   1.000  C
  C86      1.0000 0.30077  0.18900  0.71230  Biso   1.000  C
  C87      1.0000 0.19923  0.68900  0.78770  Biso   1.000  C
  C88      1.0000 0.80077  0.68900  0.71230  Biso   1.000  C
  H65      1.0000 0.31200  0.72720  0.21150  Biso   1.000  H
  H66      1.0000 0.68800  0.72720  0.28850  Biso   1.000  H
  H67      1.0000 0.81200  0.22720  0.21150  Biso   1.000  H
  H68      1.0000 0.18800  0.22720  0.28850  Biso   1.000  H
  H69      1.0000 0.68800  0.27280  0.78850  Biso   1.000  H
  H70      1.0000 0.31200  0.27280  0.71150  Biso   1.000  H
  H71      1.0000 0.18800  0.77280  0.78850  Biso   1.000  H
  H72      1.0000 0.81200  0.77280  0.71150  Biso   1.000  H
  C89      1.0000 0.23841  0.84250  0.17150  Biso   1.000  C
  C90      1.0000 0.76159  0.84250  0.32850  Biso   1.000  C
  C91      1.0000 0.73841  0.34250  0.17150  Biso   1.000  C
  C92      1.0000 0.26159  0.34250  0.32850  Biso   1.000  C
  C93      1.0000 0.76159  0.15750  0.82850  Biso   1.000  C
  C94      1.0000 0.23841  0.15750  0.67150  Biso   1.000  C
  C95      1.0000 0.26159  0.65750  0.82850  Biso   1.000  C
  C96      1.0000 0.73841  0.65750  0.67150  Biso   1.000  C
  H73      1.0000 0.20800  0.78010  0.14500  Biso   1.000  H
  H74      1.0000 0.79200  0.78010  0.35500  Biso   1.000  H
  H75      1.0000 0.70800  0.28010  0.14500  Biso   1.000  H
  H76      1.0000 0.29200  0.28010  0.35500  Biso   1.000  H
  H77      1.0000 0.79200  0.21990  0.85500  Biso   1.000  H
  H78      1.0000 0.20800  0.21990  0.64500  Biso   1.000  H
  H79      1.0000 0.29200  0.71990  0.85500  Biso   1.000  H
  H80      1.0000 0.70800  0.71990  0.64500  Biso   1.000  H
  C97      1.0000 0.22092  0.96920  0.17030  Biso   1.000  C
  C98      1.0000 0.77908  0.96920  0.32970  Biso   1.000  C
  C99      1.0000 0.72092  0.46920  0.17030  Biso   1.000  C
  C100     1.0000 0.27908  0.46920  0.32970  Biso   1.000  C
  C101     1.0000 0.77908  0.03080  0.82970  Biso   1.000  C
  C102     1.0000 0.22092  0.03080  0.67030  Biso   1.000  C
  C103     1.0000 0.27908  0.53080  0.82970  Biso   1.000  C
  C104     1.0000 0.72092  0.53080  0.67030  Biso   1.000  C
  C105     1.0000 0.26555  0.06250  0.20370  Biso   1.000  C
  C106     1.0000 0.73445  0.06250  0.29630  Biso   1.000  C
  C107     1.0000 0.76555  0.56250  0.20370  Biso   1.000  C
  C108     1.0000 0.23445  0.56250  0.29630  Biso   1.000  C
  C109     1.0000 0.73445  0.93750  0.79630  Biso   1.000  C
  C110     1.0000 0.26555  0.93750  0.70370  Biso   1.000  C
  C111     1.0000 0.23445  0.43750  0.79630  Biso   1.000  C
  C112     1.0000 0.76555  0.43750  0.70370  Biso   1.000  C
  H81      1.0000 0.25340  0.14670  0.19800  Biso   1.000  H
  H82      1.0000 0.74660  0.14670  0.30200  Biso   1.000  H
  H83      1.0000 0.75340  0.64670  0.19800  Biso   1.000  H
  H84      1.0000 0.24660  0.64670  0.30200  Biso   1.000  H
  H85      1.0000 0.74660  0.85330  0.80200  Biso   1.000  H
  H86      1.0000 0.25340  0.85330  0.69800  Biso   1.000  H
  H87      1.0000 0.24660  0.35330  0.80200  Biso   1.000  H
  H88      1.0000 0.75340  0.35330  0.69800  Biso   1.000  H
  C113     1.0000 0.32968  0.03170  0.24660  Biso   1.000  C
  C114     1.0000 0.67032  0.03170  0.25340  Biso   1.000  C
  C115     1.0000 0.82968  0.53170  0.24660  Biso   1.000  C
  C116     1.0000 0.17032  0.53170  0.25340  Biso   1.000  C
  C117     1.0000 0.67032  0.96830  0.75340  Biso   1.000  C
  C118     1.0000 0.32968  0.96830  0.74660  Biso   1.000  C
  C119     1.0000 0.17032  0.46830  0.75340  Biso   1.000  C
  C120     1.0000 0.82968  0.46830  0.74660  Biso   1.000  C
  C121     1.0000 0.37388  0.13470  0.27770  Biso   1.000  C
  C122     1.0000 0.62612  0.13470  0.22230  Biso   1.000  C
  C123     1.0000 0.87388  0.63470  0.27770  Biso   1.000  C
  C124     1.0000 0.12612  0.63470  0.22230  Biso   1.000  C
  C125     1.0000 0.62612  0.86530  0.72230  Biso   1.000  C
  C126     1.0000 0.37388  0.86530  0.77770  Biso   1.000  C
  C127     1.0000 0.12612  0.36530  0.72230  Biso   1.000  C
  C128     1.0000 0.87388  0.36530  0.77770  Biso   1.000  C
  H89      1.0000 0.35760  0.21570  0.25970  Biso   1.000  H
  H90      1.0000 0.64240  0.21570  0.24030  Biso   1.000  H
  H91      1.0000 0.85760  0.71570  0.25970  Biso   1.000  H
  H92      1.0000 0.14240  0.71570  0.24030  Biso   1.000  H
  H93      1.0000 0.64240  0.78430  0.74030  Biso   1.000  H
  H94      1.0000 0.35760  0.78430  0.75970  Biso   1.000  H
  H95      1.0000 0.14240  0.28430  0.74030  Biso   1.000  H
  H96      1.0000 0.85760  0.28430  0.75970  Biso   1.000  H
  C129     1.0000 0.47047  0.24360  0.34950  Biso   1.000  C
  C130     1.0000 0.52953  0.24360  0.15050  Biso   1.000  C
  C131     1.0000 0.97047  0.74360  0.34950  Biso   1.000  C
  C132     1.0000 0.02953  0.74360  0.15050  Biso   1.000  C
  C133     1.0000 0.52953  0.75640  0.65050  Biso   1.000  C
  C134     1.0000 0.47047  0.75640  0.84950  Biso   1.000  C
  C135     1.0000 0.02953  0.25640  0.65050  Biso   1.000  C
  C136     1.0000 0.97047  0.25640  0.84950  Biso   1.000  C
  H97      1.0000 0.49370  0.25430  0.42000  Biso   1.000  H
  H98      1.0000 0.50630  0.25430  0.08000  Biso   1.000  H
  H99      1.0000 0.99370  0.75430  0.42000  Biso   1.000  H
  H100     1.0000 0.00630  0.75430  0.08000  Biso   1.000  H
  H101     1.0000 0.50630  0.74570  0.58000  Biso   1.000  H
  H102     1.0000 0.49370  0.74570  0.92000  Biso   1.000  H
  H103     1.0000 0.00630  0.24570  0.58000  Biso   1.000  H
  H104     1.0000 0.99370  0.24570  0.92000  Biso   1.000  H
  H105     1.0000 0.44210  0.31450  0.32330  Biso   1.000  H
  H106     1.0000 0.55790  0.31450  0.17670  Biso   1.000  H
  H107     1.0000 0.94210  0.81450  0.32330  Biso   1.000  H
  H108     1.0000 0.05790  0.81450  0.17670  Biso   1.000  H
  H109     1.0000 0.55790  0.68550  0.67670  Biso   1.000  H
  H110     1.0000 0.44210  0.68550  0.82330  Biso   1.000  H
  H111     1.0000 0.05790  0.18550  0.67670  Biso   1.000  H
  H112     1.0000 0.94210  0.18550  0.82330  Biso   1.000  H
  C137     1.0000 0.51627  0.24400  0.30570  Biso   1.000  C
  C138     1.0000 0.48373  0.24400  0.19430  Biso   1.000  C
  C139     1.0000 0.01627  0.74400  0.30570  Biso   1.000  C
  C140     1.0000 0.98373  0.74400  0.19430  Biso   1.000  C
  C141     1.0000 0.48373  0.75600  0.69430  Biso   1.000  C
  C142     1.0000 0.51627  0.75600  0.80570  Biso   1.000  C
  C143     1.0000 0.98373  0.25600  0.69430  Biso   1.000  C
  C144     1.0000 0.01627  0.25600  0.80570  Biso   1.000  C
  H113     1.0000 0.54270  0.31810  0.32890  Biso   1.000  H
  H114     1.0000 0.45730  0.31810  0.17110  Biso   1.000  H
  H115     1.0000 0.04270  0.81810  0.32890  Biso   1.000  H
  H116     1.0000 0.95730  0.81810  0.17110  Biso   1.000  H
  H117     1.0000 0.45730  0.68190  0.67110  Biso   1.000  H
  H118     1.0000 0.54270  0.68190  0.82890  Biso   1.000  H
  H119     1.0000 0.95730  0.18190  0.67110  Biso   1.000  H
  H120     1.0000 0.04270  0.18190  0.82890  Biso   1.000  H
  H121     1.0000 0.54290  0.17010  0.32890  Biso   1.000  H
  H122     1.0000 0.45710  0.17010  0.17110  Biso   1.000  H
  H123     1.0000 0.04290  0.67010  0.32890  Biso   1.000  H
  H124     1.0000 0.95710  0.67010  0.17110  Biso   1.000  H
  H125     1.0000 0.45710  0.82990  0.67110  Biso   1.000  H
  H126     1.0000 0.54290  0.82990  0.82890  Biso   1.000  H
  H127     1.0000 0.95710  0.32990  0.67110  Biso   1.000  H
  H128     1.0000 0.04290  0.32990  0.82890  Biso   1.000  H
