data_image0
_cell_length_a       13.151
_cell_length_b       7.9995
_cell_length_c       18.864
_cell_angle_alpha    90
_cell_angle_beta     95.464
_cell_angle_gamma    90

_symmetry_space_group_name_H-M    "P 1"
_symmetry_int_tables_number       1

loop_
  _symmetry_equiv_pos_as_xyz
  'x, y, z'

loop_
  _atom_site_label
  _atom_site_occupancy
  _atom_site_fract_x
  _atom_site_fract_y
  _atom_site_fract_z
  _atom_site_thermal_displace_type
  _atom_site_B_iso_or_equiv
  _atom_site_type_symbol
  Cu1      1.0000 0.61652  0.27989  0.83122  Biso   1.000  Cu
  Cu2      1.0000 0.88348  0.77989  0.66878  Biso   1.000  Cu
  Cu3      1.0000 0.38348  0.72011  0.16878  Biso   1.000  Cu
  Cu4      1.0000 0.11652  0.22011  0.33122  Biso   1.000  Cu
  N1       1.0000 0.50030  0.32020  0.89101  Biso   1.000  N
  N2       1.0000 0.99970  0.82020  0.60899  Biso   1.000  N
  N3       1.0000 0.49970  0.67980  0.10899  Biso   1.000  N
  N4       1.0000 0.00030  0.17980  0.39101  Biso   1.000  N
  C1       1.0000 0.44770  0.46510  0.88520  Biso   1.000  C
  C2       1.0000 0.05230  0.96510  0.61480  Biso   1.000  C
  C3       1.0000 0.55230  0.53490  0.11480  Biso   1.000  C
  C4       1.0000 0.94770  0.03490  0.38520  Biso   1.000  C
  H1       1.0000 0.45830  0.53810  0.84830  Biso   1.000  H
  H2       1.0000 0.04170  0.03810  0.65170  Biso   1.000  H
  H3       1.0000 0.54170  0.46190  0.15170  Biso   1.000  H
  H4       1.0000 0.95830  0.96190  0.34830  Biso   1.000  H
  C5       1.0000 0.37770  0.50800  0.93340  Biso   1.000  C
  C6       1.0000 0.12230  0.00800  0.56660  Biso   1.000  C
  C7       1.0000 0.62230  0.49200  0.06660  Biso   1.000  C
  C8       1.0000 0.87770  0.99200  0.43340  Biso   1.000  C
  C9       1.0000 0.36340  0.39710  0.98770  Biso   1.000  C
  C10      1.0000 0.13660  0.89710  0.51230  Biso   1.000  C
  C11      1.0000 0.63660  0.60290  0.01230  Biso   1.000  C
  C12      1.0000 0.86340  0.10290  0.48770  Biso   1.000  C
  H5       1.0000 0.31750  0.42260  0.02080  Biso   1.000  H
  H6       1.0000 0.18250  0.92260  0.47920  Biso   1.000  H
  H7       1.0000 0.68250  0.57740  0.97920  Biso   1.000  H
  H8       1.0000 0.81750  0.07740  0.52080  Biso   1.000  H
  C13      1.0000 0.41640  0.25050  0.99300  Biso   1.000  C
  C14      1.0000 0.08360  0.75050  0.50700  Biso   1.000  C
  C15      1.0000 0.58360  0.74950  0.00700  Biso   1.000  C
  C16      1.0000 0.91640  0.24950  0.49300  Biso   1.000  C
  H9       1.0000 0.40670  0.17470  0.02920  Biso   1.000  H
  H10      1.0000 0.09330  0.67470  0.47080  Biso   1.000  H
  H11      1.0000 0.59330  0.82530  0.97080  Biso   1.000  H
  H12      1.0000 0.90670  0.32530  0.52920  Biso   1.000  H
  C17      1.0000 0.48500  0.21640  0.94350  Biso   1.000  C
  C18      1.0000 0.01500  0.71640  0.55650  Biso   1.000  C
  C19      1.0000 0.51500  0.78360  0.05650  Biso   1.000  C
  C20      1.0000 0.98500  0.28360  0.44350  Biso   1.000  C
  H13      1.0000 0.52160  0.11680  0.94730  Biso   1.000  H
  H14      1.0000 0.97840  0.61680  0.55270  Biso   1.000  H
  H15      1.0000 0.47840  0.88320  0.05270  Biso   1.000  H
  H16      1.0000 0.02160  0.38320  0.44730  Biso   1.000  H
  N5       1.0000 0.32440  0.65970  0.93144  Biso   1.000  N
  N6       1.0000 0.17560  0.15970  0.56856  Biso   1.000  N
  N7       1.0000 0.67560  0.34030  0.06856  Biso   1.000  N
  N8       1.0000 0.82440  0.84030  0.43144  Biso   1.000  N
  H17      1.0000 0.29450  0.68350  0.96880  Biso   1.000  H
  H18      1.0000 0.20550  0.18350  0.53120  Biso   1.000  H
  H19      1.0000 0.70550  0.31650  0.03120  Biso   1.000  H
  H20      1.0000 0.79450  0.81650  0.46880  Biso   1.000  H
  C21      1.0000 0.31400  0.77380  0.87800  Biso   1.000  C
  C22      1.0000 0.18600  0.27380  0.62200  Biso   1.000  C
  C23      1.0000 0.68600  0.22620  0.12200  Biso   1.000  C
  C24      1.0000 0.81400  0.72620  0.37800  Biso   1.000  C
  O1       1.0000 0.35550  0.76050  0.82329  Biso   1.000  O
  O2       1.0000 0.14450  0.26050  0.67671  Biso   1.000  O
  O3       1.0000 0.64450  0.23950  0.17671  Biso   1.000  O
  O4       1.0000 0.85550  0.73950  0.32329  Biso   1.000  O
  C25      1.0000 0.24380  0.91710  0.88900  Biso   1.000  C
  C26      1.0000 0.25620  0.41710  0.61100  Biso   1.000  C
  C27      1.0000 0.75620  0.08290  0.11100  Biso   1.000  C
  C28      1.0000 0.74380  0.58290  0.38900  Biso   1.000  C
  C29      1.0000 0.19670  0.99730  0.82900  Biso   1.000  C
  C30      1.0000 0.30330  0.49730  0.67100  Biso   1.000  C
  C31      1.0000 0.80330  0.00270  0.17100  Biso   1.000  C
  C32      1.0000 0.69670  0.50270  0.32900  Biso   1.000  C
  H21      1.0000 0.21460  0.96900  0.78400  Biso   1.000  H
  H22      1.0000 0.28540  0.46900  0.71600  Biso   1.000  H
  H23      1.0000 0.78540  0.03100  0.21600  Biso   1.000  H
  H24      1.0000 0.71460  0.53100  0.28400  Biso   1.000  H
  C33      1.0000 0.12420  0.11770  0.83590  Biso   1.000  C
  C34      1.0000 0.37580  0.61770  0.66410  Biso   1.000  C
  C35      1.0000 0.87580  0.88230  0.16410  Biso   1.000  C
  C36      1.0000 0.62420  0.38230  0.33590  Biso   1.000  C
  H25      1.0000 0.09190  0.16850  0.79550  Biso   1.000  H
  H26      1.0000 0.40810  0.66850  0.70450  Biso   1.000  H
  H27      1.0000 0.90810  0.83150  0.20450  Biso   1.000  H
  H28      1.0000 0.59190  0.33150  0.29550  Biso   1.000  H
  C37      1.0000 0.09850  0.16440  0.90290  Biso   1.000  C
  C38      1.0000 0.40150  0.66440  0.59710  Biso   1.000  C
  C39      1.0000 0.90150  0.83560  0.09710  Biso   1.000  C
  C40      1.0000 0.59850  0.33560  0.40290  Biso   1.000  C
  H29      1.0000 0.04800  0.24410  0.90710  Biso   1.000  H
  H30      1.0000 0.45200  0.74410  0.59290  Biso   1.000  H
  H31      1.0000 0.95200  0.75590  0.09290  Biso   1.000  H
  H32      1.0000 0.54800  0.25590  0.40710  Biso   1.000  H
  C41      1.0000 0.14790  0.09240  0.96310  Biso   1.000  C
  C42      1.0000 0.35210  0.59240  0.53690  Biso   1.000  C
  C43      1.0000 0.85210  0.90760  0.03690  Biso   1.000  C
  C44      1.0000 0.64790  0.40760  0.46310  Biso   1.000  C
  C45      1.0000 0.21970  0.96690  0.95540  Biso   1.000  C
  C46      1.0000 0.28030  0.46690  0.54460  Biso   1.000  C
  C47      1.0000 0.78030  0.03310  0.04460  Biso   1.000  C
  C48      1.0000 0.71970  0.53310  0.45540  Biso   1.000  C
  H33      1.0000 0.25180  0.91580  0.99570  Biso   1.000  H
  H34      1.0000 0.24820  0.41580  0.50430  Biso   1.000  H
  H35      1.0000 0.74820  0.08420  0.00430  Biso   1.000  H
  H36      1.0000 0.75180  0.58420  0.49570  Biso   1.000  H
  C49      1.0000 0.12940  0.13690  0.03760  Biso   1.000  C
  C50      1.0000 0.37060  0.63690  0.46240  Biso   1.000  C
  C51      1.0000 0.87060  0.86310  0.96240  Biso   1.000  C
  C52      1.0000 0.62940  0.36310  0.53760  Biso   1.000  C
  O5       1.0000 0.19070  0.09560  0.08699  Biso   1.000  O
  O6       1.0000 0.30930  0.59560  0.41301  Biso   1.000  O
  O7       1.0000 0.80930  0.90440  0.91301  Biso   1.000  O
  O8       1.0000 0.69070  0.40440  0.58699  Biso   1.000  O
  N9       1.0000 0.04390  0.22140  0.04847  Biso   1.000  N
  N10      1.0000 0.45610  0.72140  0.45153  Biso   1.000  N
  N11      1.0000 0.95610  0.77860  0.95153  Biso   1.000  N
  N12      1.0000 0.54390  0.27860  0.54847  Biso   1.000  N
  H37      1.0000 0.00400  0.24720  0.01130  Biso   1.000  H
  H38      1.0000 0.49600  0.74720  0.48870  Biso   1.000  H
  H39      1.0000 0.99600  0.75280  0.98870  Biso   1.000  H
  H40      1.0000 0.50400  0.25280  0.51130  Biso   1.000  H
  C53      1.0000 0.01300  0.27180  0.11440  Biso   1.000  C
  C54      1.0000 0.48700  0.77180  0.38560  Biso   1.000  C
  C55      1.0000 0.98700  0.72820  0.88560  Biso   1.000  C
  C56      1.0000 0.51300  0.22820  0.61440  Biso   1.000  C
  C57      1.0000 0.93180  0.38250  0.11450  Biso   1.000  C
  C58      1.0000 0.56820  0.88250  0.38550  Biso   1.000  C
  C59      1.0000 0.06820  0.61750  0.88550  Biso   1.000  C
  C60      1.0000 0.43180  0.11750  0.61450  Biso   1.000  C
  H41      1.0000 0.90030  0.42380  0.07190  Biso   1.000  H
  H42      1.0000 0.59970  0.92380  0.42810  Biso   1.000  H
  H43      1.0000 0.09970  0.57620  0.92810  Biso   1.000  H
  H44      1.0000 0.40030  0.07620  0.57190  Biso   1.000  H
  C61      1.0000 0.89810  0.43070  0.17850  Biso   1.000  C
  C62      1.0000 0.60190  0.93070  0.32150  Biso   1.000  C
  C63      1.0000 0.10190  0.56930  0.82150  Biso   1.000  C
  C64      1.0000 0.39810  0.06930  0.67850  Biso   1.000  C
  H45      1.0000 0.84260  0.50260  0.17940  Biso   1.000  H
  H46      1.0000 0.65740  0.00260  0.32060  Biso   1.000  H
  H47      1.0000 0.15740  0.49740  0.82060  Biso   1.000  H
  H48      1.0000 0.34260  0.99740  0.67940  Biso   1.000  H
  C65      1.0000 0.94760  0.37090  0.24070  Biso   1.000  C
  C66      1.0000 0.55240  0.87090  0.25930  Biso   1.000  C
  C67      1.0000 0.05240  0.62910  0.75930  Biso   1.000  C
  C68      1.0000 0.44760  0.12910  0.74070  Biso   1.000  C
  H49      1.0000 0.92500  0.40360  0.28390  Biso   1.000  H
  H50      1.0000 0.57500  0.90360  0.21610  Biso   1.000  H
  H51      1.0000 0.07500  0.59640  0.71610  Biso   1.000  H
  H52      1.0000 0.42500  0.09640  0.78390  Biso   1.000  H
  N13      1.0000 0.02710  0.26760  0.24127  Biso   1.000  N
  N14      1.0000 0.47290  0.76760  0.25873  Biso   1.000  N
  N15      1.0000 0.97290  0.73240  0.75873  Biso   1.000  N
  N16      1.0000 0.52710  0.23240  0.74127  Biso   1.000  N
  C69      1.0000 0.05870  0.21840  0.17970  Biso   1.000  C
  C70      1.0000 0.44130  0.71840  0.32030  Biso   1.000  C
  C71      1.0000 0.94130  0.78160  0.82030  Biso   1.000  C
  C72      1.0000 0.55870  0.28160  0.67970  Biso   1.000  C
  H53      1.0000 0.11380  0.14520  0.18050  Biso   1.000  H
  H54      1.0000 0.38620  0.64520  0.31950  Biso   1.000  H
  H55      1.0000 0.88620  0.85480  0.81950  Biso   1.000  H
  H56      1.0000 0.61380  0.35480  0.68050  Biso   1.000  H
  O9       1.0000 0.74000  0.26700  0.78191  Biso   1.000  O
  O10      1.0000 0.76000  0.76700  0.71809  Biso   1.000  O
  O11      1.0000 0.26000  0.73300  0.21809  Biso   1.000  O
  O12      1.0000 0.24000  0.23300  0.28191  Biso   1.000  O
  C73      1.0000 0.82170  0.30250  0.82100  Biso   1.000  C
  C74      1.0000 0.67830  0.80250  0.67900  Biso   1.000  C
  C75      1.0000 0.17830  0.69750  0.17900  Biso   1.000  C
  C76      1.0000 0.32170  0.19750  0.32100  Biso   1.000  C
  O13      1.0000 0.90550  0.32100  0.79972  Biso   1.000  O
  O14      1.0000 0.59450  0.82100  0.70028  Biso   1.000  O
  O15      1.0000 0.09450  0.67900  0.20028  Biso   1.000  O
  O16      1.0000 0.40550  0.17900  0.29972  Biso   1.000  O
  C77      1.0000 0.80710  0.31960  0.90140  Biso   1.000  C
  C78      1.0000 0.69290  0.81960  0.59860  Biso   1.000  C
  C79      1.0000 0.19290  0.68040  0.09860  Biso   1.000  C
  C80      1.0000 0.30710  0.18040  0.40140  Biso   1.000  C
  O17      1.0000 0.71490  0.30590  0.91619  Biso   1.000  O
  O18      1.0000 0.78510  0.80590  0.58381  Biso   1.000  O
  O19      1.0000 0.28510  0.69410  0.08381  Biso   1.000  O
  O20      1.0000 0.21490  0.19410  0.41619  Biso   1.000  O
  O21      1.0000 0.87990  0.34430  0.94523  Biso   1.000  O
  O22      1.0000 0.62010  0.84430  0.55477  Biso   1.000  O
  O23      1.0000 0.12010  0.65570  0.05477  Biso   1.000  O
  O24      1.0000 0.37990  0.15570  0.44523  Biso   1.000  O
  O25      1.0000 0.61750  0.97420  0.84826  Biso   1.000  O
  O26      1.0000 0.88250  0.47420  0.65174  Biso   1.000  O
  O27      1.0000 0.38250  0.02580  0.15174  Biso   1.000  O
  O28      1.0000 0.11750  0.52580  0.34826  Biso   1.000  O
  O29      1.0000 0.64030  0.58680  0.81640  Biso   1.000  O
  O30      1.0000 0.85970  0.08680  0.68360  Biso   1.000  O
  O31      1.0000 0.35970  0.41320  0.18360  Biso   1.000  O
  O32      1.0000 0.14030  0.91320  0.31640  Biso   1.000  O
