data_image0
_cell_length_a       9.282
_cell_length_b       26.13
_cell_length_c       9.799
_cell_angle_alpha    90
_cell_angle_beta     109.55
_cell_angle_gamma    90

_symmetry_space_group_name_H-M    "P 1"
_symmetry_int_tables_number       1

loop_
  _symmetry_equiv_pos_as_xyz
  'x, y, z'

loop_
  _atom_site_label
  _atom_site_occupancy
  _atom_site_fract_x
  _atom_site_fract_y
  _atom_site_fract_z
  _atom_site_thermal_displace_type
  _atom_site_B_iso_or_equiv
  _atom_site_type_symbol
  Cu1      1.0000 0.25000  0.25000  0.00000  Biso   1.000  Cu
  Cu2      1.0000 0.75000  0.25000  0.50000  Biso   1.000  Cu
  Cu3      1.0000 0.75000  0.75000  0.00000  Biso   1.000  Cu
  Cu4      1.0000 0.25000  0.75000  0.50000  Biso   1.000  Cu
  N1       1.0000 0.18360  0.17550  0.98840  Biso   1.000  N
  N2       1.0000 0.81640  0.17550  0.51160  Biso   1.000  N
  N3       1.0000 0.68360  0.67550  0.98840  Biso   1.000  N
  N4       1.0000 0.31640  0.67550  0.51160  Biso   1.000  N
  N5       1.0000 0.81640  0.82450  0.01160  Biso   1.000  N
  N6       1.0000 0.18360  0.82450  0.48840  Biso   1.000  N
  N7       1.0000 0.31640  0.32450  0.01160  Biso   1.000  N
  N8       1.0000 0.68360  0.32450  0.48840  Biso   1.000  N
  C1       1.0000 0.07380  0.16020  0.04170  Biso   1.000  C
  C2       1.0000 0.92620  0.16020  0.45830  Biso   1.000  C
  C3       1.0000 0.57380  0.66020  0.04170  Biso   1.000  C
  C4       1.0000 0.42620  0.66020  0.45830  Biso   1.000  C
  C5       1.0000 0.92620  0.83980  0.95830  Biso   1.000  C
  C6       1.0000 0.07380  0.83980  0.54170  Biso   1.000  C
  C7       1.0000 0.42620  0.33980  0.95830  Biso   1.000  C
  C8       1.0000 0.57380  0.33980  0.54170  Biso   1.000  C
  H1       1.0000 0.03130  0.18380  0.08840  Biso   1.000  H
  H2       1.0000 0.96870  0.18380  0.41160  Biso   1.000  H
  H3       1.0000 0.53130  0.68380  0.08840  Biso   1.000  H
  H4       1.0000 0.46870  0.68380  0.41160  Biso   1.000  H
  H5       1.0000 0.96870  0.81620  0.91160  Biso   1.000  H
  H6       1.0000 0.03130  0.81620  0.58840  Biso   1.000  H
  H7       1.0000 0.46870  0.31620  0.91160  Biso   1.000  H
  H8       1.0000 0.53130  0.31620  0.58840  Biso   1.000  H
  C9       1.0000 0.02340  0.10990  0.02810  Biso   1.000  C
  C10      1.0000 0.97660  0.10990  0.47190  Biso   1.000  C
  C11      1.0000 0.52340  0.60990  0.02810  Biso   1.000  C
  C12      1.0000 0.47660  0.60990  0.47190  Biso   1.000  C
  C13      1.0000 0.97660  0.89010  0.97190  Biso   1.000  C
  C14      1.0000 0.02340  0.89010  0.52810  Biso   1.000  C
  C15      1.0000 0.47660  0.39010  0.97190  Biso   1.000  C
  C16      1.0000 0.52340  0.39010  0.52810  Biso   1.000  C
  H9       1.0000 0.94550  0.10060  0.06300  Biso   1.000  H
  H10      1.0000 0.05450  0.10060  0.43700  Biso   1.000  H
  H11      1.0000 0.44550  0.60060  0.06300  Biso   1.000  H
  H12      1.0000 0.55450  0.60060  0.43700  Biso   1.000  H
  H13      1.0000 0.05450  0.89940  0.93700  Biso   1.000  H
  H14      1.0000 0.94550  0.89940  0.56300  Biso   1.000  H
  H15      1.0000 0.55450  0.39940  0.93700  Biso   1.000  H
  H16      1.0000 0.44550  0.39940  0.56300  Biso   1.000  H
  C17      1.0000 0.08600  0.07390  0.96440  Biso   1.000  C
  C18      1.0000 0.91400  0.07390  0.53560  Biso   1.000  C
  C19      1.0000 0.58600  0.57390  0.96440  Biso   1.000  C
  C20      1.0000 0.41400  0.57390  0.53560  Biso   1.000  C
  C21      1.0000 0.91400  0.92610  0.03560  Biso   1.000  C
  C22      1.0000 0.08600  0.92610  0.46440  Biso   1.000  C
  C23      1.0000 0.41400  0.42610  0.03560  Biso   1.000  C
  C24      1.0000 0.58600  0.42610  0.46440  Biso   1.000  C
  H17      1.0000 0.05110  0.04020  0.95480  Biso   1.000  H
  H18      1.0000 0.94890  0.04020  0.54520  Biso   1.000  H
  H19      1.0000 0.55110  0.54020  0.95480  Biso   1.000  H
  H20      1.0000 0.44890  0.54020  0.54520  Biso   1.000  H
  H21      1.0000 0.94890  0.95980  0.04520  Biso   1.000  H
  H22      1.0000 0.05110  0.95980  0.45480  Biso   1.000  H
  H23      1.0000 0.44890  0.45980  0.04520  Biso   1.000  H
  H24      1.0000 0.55110  0.45980  0.45480  Biso   1.000  H
  C25      1.0000 0.20330  0.08850  0.91390  Biso   1.000  C
  C26      1.0000 0.79670  0.08850  0.58610  Biso   1.000  C
  C27      1.0000 0.70330  0.58850  0.91390  Biso   1.000  C
  C28      1.0000 0.29670  0.58850  0.58610  Biso   1.000  C
  C29      1.0000 0.79670  0.91150  0.08610  Biso   1.000  C
  C30      1.0000 0.20330  0.91150  0.41390  Biso   1.000  C
  C31      1.0000 0.29670  0.41150  0.08610  Biso   1.000  C
  C32      1.0000 0.70330  0.41150  0.41390  Biso   1.000  C
  C33      1.0000 0.24670  0.13970  0.92590  Biso   1.000  C
  C34      1.0000 0.75330  0.13970  0.57410  Biso   1.000  C
  C35      1.0000 0.74670  0.63970  0.92590  Biso   1.000  C
  C36      1.0000 0.25330  0.63970  0.57410  Biso   1.000  C
  C37      1.0000 0.75330  0.86030  0.07410  Biso   1.000  C
  C38      1.0000 0.24670  0.86030  0.42590  Biso   1.000  C
  C39      1.0000 0.25330  0.36030  0.07410  Biso   1.000  C
  C40      1.0000 0.74670  0.36030  0.42590  Biso   1.000  C
  H25      1.0000 0.32270  0.14980  0.88940  Biso   1.000  H
  H26      1.0000 0.67730  0.14980  0.61060  Biso   1.000  H
  H27      1.0000 0.82270  0.64980  0.88940  Biso   1.000  H
  H28      1.0000 0.17730  0.64980  0.61060  Biso   1.000  H
  H29      1.0000 0.67730  0.85020  0.11060  Biso   1.000  H
  H30      1.0000 0.32270  0.85020  0.38940  Biso   1.000  H
  H31      1.0000 0.17730  0.35020  0.11060  Biso   1.000  H
  H32      1.0000 0.82270  0.35020  0.38940  Biso   1.000  H
  N9       1.0000 0.28410  0.05470  0.85280  Biso   1.000  N
  N10      1.0000 0.71590  0.05470  0.64720  Biso   1.000  N
  N11      1.0000 0.78410  0.55470  0.85280  Biso   1.000  N
  N12      1.0000 0.21590  0.55470  0.64720  Biso   1.000  N
  N13      1.0000 0.71590  0.94530  0.14720  Biso   1.000  N
  N14      1.0000 0.28410  0.94530  0.35280  Biso   1.000  N
  N15      1.0000 0.21590  0.44530  0.14720  Biso   1.000  N
  N16      1.0000 0.78410  0.44530  0.35280  Biso   1.000  N
  H33      1.0000 0.33810  0.06880  0.80690  Biso   1.000  H
  H34      1.0000 0.66190  0.06880  0.69310  Biso   1.000  H
  H35      1.0000 0.83810  0.56880  0.80690  Biso   1.000  H
  H36      1.0000 0.16190  0.56880  0.69310  Biso   1.000  H
  H37      1.0000 0.66190  0.93120  0.19310  Biso   1.000  H
  H38      1.0000 0.33810  0.93120  0.30690  Biso   1.000  H
  H39      1.0000 0.16190  0.43120  0.19310  Biso   1.000  H
  H40      1.0000 0.83810  0.43120  0.30690  Biso   1.000  H
  C41      1.0000 0.28700  0.00250  0.85760  Biso   1.000  C
  C42      1.0000 0.71300  0.00250  0.64240  Biso   1.000  C
  C43      1.0000 0.78700  0.50250  0.85760  Biso   1.000  C
  C44      1.0000 0.21300  0.50250  0.64240  Biso   1.000  C
  C45      1.0000 0.71300  0.99750  0.14240  Biso   1.000  C
  C46      1.0000 0.28700  0.99750  0.35760  Biso   1.000  C
  C47      1.0000 0.21300  0.49750  0.14240  Biso   1.000  C
  C48      1.0000 0.78700  0.49750  0.35760  Biso   1.000  C
  O1       1.0000 0.20280  0.97850  0.90800  Biso   1.000  O
  O2       1.0000 0.79720  0.97850  0.59200  Biso   1.000  O
  O3       1.0000 0.70280  0.47850  0.90800  Biso   1.000  O
  O4       1.0000 0.29720  0.47850  0.59200  Biso   1.000  O
  O5       1.0000 0.79720  0.02150  0.09200  Biso   1.000  O
  O6       1.0000 0.20280  0.02150  0.40800  Biso   1.000  O
  O7       1.0000 0.29720  0.52150  0.09200  Biso   1.000  O
  O8       1.0000 0.70280  0.52150  0.40800  Biso   1.000  O
  C49      1.0000 0.39630  0.97610  0.79970  Biso   1.000  C
  C50      1.0000 0.60370  0.97610  0.70030  Biso   1.000  C
  C51      1.0000 0.89630  0.47610  0.79970  Biso   1.000  C
  C52      1.0000 0.10370  0.47610  0.70030  Biso   1.000  C
  C53      1.0000 0.60370  0.02390  0.20030  Biso   1.000  C
  C54      1.0000 0.39630  0.02390  0.29970  Biso   1.000  C
  C55      1.0000 0.10370  0.52390  0.20030  Biso   1.000  C
  C56      1.0000 0.89630  0.52390  0.29970  Biso   1.000  C
  C57      1.0000 0.40000  0.92270  0.80330  Biso   1.000  C
  C58      1.0000 0.60000  0.92270  0.69670  Biso   1.000  C
  C59      1.0000 0.90000  0.42270  0.80330  Biso   1.000  C
  C60      1.0000 0.10000  0.42270  0.69670  Biso   1.000  C
  C61      1.0000 0.60000  0.07730  0.19670  Biso   1.000  C
  C62      1.0000 0.40000  0.07730  0.30330  Biso   1.000  C
  C63      1.0000 0.10000  0.57730  0.19670  Biso   1.000  C
  C64      1.0000 0.90000  0.57730  0.30330  Biso   1.000  C
  H41      1.0000 0.33610  0.90440  0.84110  Biso   1.000  H
  H42      1.0000 0.66390  0.90440  0.65890  Biso   1.000  H
  H43      1.0000 0.83610  0.40440  0.84110  Biso   1.000  H
  H44      1.0000 0.16390  0.40440  0.65890  Biso   1.000  H
  H45      1.0000 0.66390  0.09560  0.15890  Biso   1.000  H
  H46      1.0000 0.33610  0.09560  0.34110  Biso   1.000  H
  H47      1.0000 0.16390  0.59560  0.15890  Biso   1.000  H
  H48      1.0000 0.83610  0.59560  0.34110  Biso   1.000  H
  C65      1.0000 0.50000  0.89760  0.75000  Biso   1.000  C
  C66      1.0000 0.00000  0.39760  0.75000  Biso   1.000  C
  C67      1.0000 0.50000  0.10240  0.25000  Biso   1.000  C
  C68      1.0000 0.00000  0.60240  0.25000  Biso   1.000  C
  H49      1.0000 0.50000  0.86200  0.75000  Biso   1.000  H
  H50      1.0000 0.00000  0.36200  0.75000  Biso   1.000  H
  H51      1.0000 0.50000  0.13800  0.25000  Biso   1.000  H
  H52      1.0000 0.00000  0.63800  0.25000  Biso   1.000  H
  C69      1.0000 0.50000  0.00150  0.75000  Biso   1.000  C
  C70      1.0000 0.00000  0.50150  0.75000  Biso   1.000  C
  C71      1.0000 0.50000  0.99850  0.25000  Biso   1.000  C
  C72      1.0000 0.00000  0.49850  0.25000  Biso   1.000  C
  H53      1.0000 0.50000  0.03710  0.75000  Biso   1.000  H
  H54      1.0000 0.00000  0.53710  0.75000  Biso   1.000  H
  H55      1.0000 0.50000  0.96290  0.25000  Biso   1.000  H
  H56      1.0000 0.00000  0.46290  0.25000  Biso   1.000  H
  O9       1.0000 0.19580  0.25321  0.77690  Biso   1.000  O
  O10      1.0000 0.80420  0.25321  0.72310  Biso   1.000  O
  O11      1.0000 0.69580  0.75321  0.77690  Biso   1.000  O
  O12      1.0000 0.30420  0.75321  0.72310  Biso   1.000  O
  O13      1.0000 0.80420  0.74679  0.22310  Biso   1.000  O
  O14      1.0000 0.19580  0.74679  0.27690  Biso   1.000  O
  O15      1.0000 0.30420  0.24679  0.22310  Biso   1.000  O
  O16      1.0000 0.69580  0.24679  0.27690  Biso   1.000  O
  O17      1.0000 0.00120  0.26964  0.57280  Biso   1.000  O
  O18      1.0000 0.99880  0.26964  0.92720  Biso   1.000  O
  O19      1.0000 0.50120  0.76964  0.57280  Biso   1.000  O
  O20      1.0000 0.49880  0.76964  0.92720  Biso   1.000  O
  O21      1.0000 0.99880  0.73036  0.42720  Biso   1.000  O
  O22      1.0000 0.00120  0.73036  0.07280  Biso   1.000  O
  O23      1.0000 0.49880  0.23036  0.42720  Biso   1.000  O
  O24      1.0000 0.50120  0.23036  0.07280  Biso   1.000  O
  C73      1.0000 0.05610  0.26130  0.70600  Biso   1.000  C
  C74      1.0000 0.94390  0.26130  0.79400  Biso   1.000  C
  C75      1.0000 0.55610  0.76130  0.70600  Biso   1.000  C
  C76      1.0000 0.44390  0.76130  0.79400  Biso   1.000  C
  C77      1.0000 0.94390  0.73870  0.29400  Biso   1.000  C
  C78      1.0000 0.05610  0.73870  0.20600  Biso   1.000  C
  C79      1.0000 0.44390  0.23870  0.29400  Biso   1.000  C
  C80      1.0000 0.55610  0.23870  0.20600  Biso   1.000  C
  O25      1.0000 0.81580  0.30810  0.07950  Biso   1.000  O
  O26      1.0000 0.18420  0.30810  0.42050  Biso   1.000  O
  O27      1.0000 0.31580  0.80810  0.07950  Biso   1.000  O
  O28      1.0000 0.68420  0.80810  0.42050  Biso   1.000  O
  O29      1.0000 0.18420  0.69190  0.92050  Biso   1.000  O
  O30      1.0000 0.81580  0.69190  0.57950  Biso   1.000  O
  O31      1.0000 0.68420  0.19190  0.92050  Biso   1.000  O
  O32      1.0000 0.31580  0.19190  0.57950  Biso   1.000  O
  O33      1.0000 0.50000  0.12040  0.75000  Biso   1.000  O
  O34      1.0000 0.00000  0.62040  0.75000  Biso   1.000  O
  O35      1.0000 0.50000  0.87960  0.25000  Biso   1.000  O
  O36      1.0000 0.00000  0.37960  0.25000  Biso   1.000  O
