data_image0
_cell_length_a       12.1211
_cell_length_b       13.0168
_cell_length_c       14.4926
_cell_angle_alpha    108.003
_cell_angle_beta     98.586
_cell_angle_gamma    106.562

_symmetry_space_group_name_H-M    "P 1"
_symmetry_int_tables_number       1

loop_
  _symmetry_equiv_pos_as_xyz
  'x, y, z'

loop_
  _atom_site_label
  _atom_site_occupancy
  _atom_site_fract_x
  _atom_site_fract_y
  _atom_site_fract_z
  _atom_site_thermal_displace_type
  _atom_site_B_iso_or_equiv
  _atom_site_type_symbol
  Cu1      1.0000 0.78970  0.91119  0.40324  Biso   1.000  Cu
  Cu2      1.0000 0.21030  0.08881  0.59676  Biso   1.000  Cu
  N1       1.0000 0.69146  0.80900  0.23656  Biso   1.000  N
  N2       1.0000 0.30854  0.19100  0.76344  Biso   1.000  N
  C1       1.0000 0.66930  0.69560  0.19916  Biso   1.000  C
  C2       1.0000 0.33070  0.30440  0.80084  Biso   1.000  C
  H1       1.0000 0.66570  0.65650  0.24330  Biso   1.000  H
  H2       1.0000 0.33430  0.34350  0.75670  Biso   1.000  H
  C3       1.0000 0.65130  0.63270  0.09802  Biso   1.000  C
  C4       1.0000 0.34870  0.36730  0.90198  Biso   1.000  C
  C5       1.0000 0.65450  0.68990  0.03205  Biso   1.000  C
  C6       1.0000 0.34550  0.31010  0.96795  Biso   1.000  C
  H3       1.0000 0.64200  0.65040  0.96370  Biso   1.000  H
  H4       1.0000 0.35800  0.34960  0.03630  Biso   1.000  H
  C7       1.0000 0.67650  0.80700  0.07000  Biso   1.000  C
  C8       1.0000 0.32350  0.19300  0.93000  Biso   1.000  C
  H5       1.0000 0.67890  0.84770  0.02720  Biso   1.000  H
  H6       1.0000 0.32110  0.15230  0.97280  Biso   1.000  H
  C9       1.0000 0.69500  0.86370  0.17196  Biso   1.000  C
  C10      1.0000 0.30500  0.13630  0.82804  Biso   1.000  C
  H7       1.0000 0.71050  0.94270  0.19660  Biso   1.000  H
  H8       1.0000 0.28950  0.05730  0.80340  Biso   1.000  H
  N3       1.0000 0.63092  0.51341  0.07071  Biso   1.000  N
  N4       1.0000 0.36908  0.48659  0.92929  Biso   1.000  N
  H9       1.0000 0.59950  0.48050  0.10840  Biso   1.000  H
  H10      1.0000 0.40050  0.51950  0.89160  Biso   1.000  H
  C11      1.0000 0.65620  0.44590  0.99058  Biso   1.000  C
  C12      1.0000 0.34380  0.55410  0.00942  Biso   1.000  C
  O1       1.0000 0.69100  0.47925  0.92633  Biso   1.000  O
  O2       1.0000 0.30900  0.52075  0.07367  Biso   1.000  O
  C13      1.0000 0.64000  0.32550  0.98577  Biso   1.000  C
  C14      1.0000 0.36000  0.67450  0.01423  Biso   1.000  C
  C15      1.0000 0.64930  0.29680  0.07110  Biso   1.000  C
  C16      1.0000 0.35070  0.70320  0.92890  Biso   1.000  C
  H11      1.0000 0.66690  0.35410  0.13410  Biso   1.000  H
  H12      1.0000 0.33310  0.64590  0.86590  Biso   1.000  H
  C17      1.0000 0.63290  0.18570  0.06360  Biso   1.000  C
  C18      1.0000 0.36710  0.81430  0.93640  Biso   1.000  C
  H13      1.0000 0.63920  0.16790  0.12110  Biso   1.000  H
  H14      1.0000 0.36080  0.83210  0.87890  Biso   1.000  H
  C19      1.0000 0.60690  0.09990  0.97010  Biso   1.000  C
  C20      1.0000 0.39310  0.90010  0.02990  Biso   1.000  C
  H15      1.0000 0.59460  0.02420  0.96490  Biso   1.000  H
  H16      1.0000 0.40540  0.97580  0.03510  Biso   1.000  H
  C21      1.0000 0.59900  0.12630  0.88406  Biso   1.000  C
  C22      1.0000 0.40100  0.87370  0.11594  Biso   1.000  C
  C23      1.0000 0.61670  0.23920  0.89222  Biso   1.000  C
  C24      1.0000 0.38330  0.76080  0.10778  Biso   1.000  C
  H17      1.0000 0.61290  0.25740  0.83490  Biso   1.000  H
  H18      1.0000 0.38710  0.74260  0.16510  Biso   1.000  H
  C25      1.0000 0.56470  0.02730  0.78521  Biso   1.000  C
  C26      1.0000 0.43530  0.97270  0.21479  Biso   1.000  C
  O3       1.0000 0.50225  0.93026  0.77476  Biso   1.000  O
  O4       1.0000 0.49775  0.06974  0.22524  Biso   1.000  O
  N5       1.0000 0.60767  0.05407  0.71106  Biso   1.000  N
  N6       1.0000 0.39233  0.94593  0.28894  Biso   1.000  N
  H19      1.0000 0.65260  0.12400  0.72450  Biso   1.000  H
  H20      1.0000 0.34740  0.87600  0.27550  Biso   1.000  H
  C27      1.0000 0.58210  0.97240  0.61266  Biso   1.000  C
  C28      1.0000 0.41790  0.02760  0.38734  Biso   1.000  C
  C29      1.0000 0.67150  0.97820  0.56302  Biso   1.000  C
  C30      1.0000 0.32850  0.02180  0.43698  Biso   1.000  C
  H21      1.0000 0.74640  0.03460  0.59590  Biso   1.000  H
  H22      1.0000 0.25360  0.96540  0.40410  Biso   1.000  H
  N7       1.0000 0.65356  0.90500  0.46888  Biso   1.000  N
  N8       1.0000 0.34644  0.09500  0.53112  Biso   1.000  N
  C31      1.0000 0.54530  0.82320  0.42269  Biso   1.000  C
  C32      1.0000 0.45470  0.17680  0.57731  Biso   1.000  C
  H23      1.0000 0.53260  0.77120  0.35810  Biso   1.000  H
  H24      1.0000 0.46740  0.22880  0.64190  Biso   1.000  H
  C33      1.0000 0.45280  0.81350  0.46750  Biso   1.000  C
  C34      1.0000 0.54720  0.18650  0.53250  Biso   1.000  C
  H25      1.0000 0.37870  0.75630  0.43310  Biso   1.000  H
  H26      1.0000 0.62130  0.24370  0.56690  Biso   1.000  H
  C35      1.0000 0.46990  0.88890  0.56381  Biso   1.000  C
  C36      1.0000 0.53010  0.11110  0.43619  Biso   1.000  C
  H27      1.0000 0.40790  0.88390  0.59510  Biso   1.000  H
  H28      1.0000 0.59210  0.11610  0.40490  Biso   1.000  H
  O5       1.0000 0.79039  0.05502  0.38848  Biso   1.000  O
  O6       1.0000 0.20961  0.94498  0.61152  Biso   1.000  O
  C37      1.0000 0.84830  0.14890  0.46398  Biso   1.000  C
  C38      1.0000 0.15170  0.85110  0.53602  Biso   1.000  C
  O7       1.0000 0.91080  0.15591  0.54356  Biso   1.000  O
  O8       1.0000 0.08920  0.84409  0.45644  Biso   1.000  O
  C39      1.0000 0.83450  0.25660  0.45454  Biso   1.000  C
  C40      1.0000 0.16550  0.74340  0.54546  Biso   1.000  C
  C41      1.0000 0.77470  0.25480  0.36253  Biso   1.000  C
  C42      1.0000 0.22530  0.74520  0.63747  Biso   1.000  C
  H29      1.0000 0.74410  0.18630  0.30660  Biso   1.000  H
  H30      1.0000 0.25590  0.81370  0.69340  Biso   1.000  H
  C43      1.0000 0.76140  0.35270  0.35488  Biso   1.000  C
  C44      1.0000 0.23860  0.64730  0.64512  Biso   1.000  C
  H31      1.0000 0.72190  0.35000  0.29350  Biso   1.000  H
  H32      1.0000 0.27810  0.65000  0.70650  Biso   1.000  H
  C45      1.0000 0.80660  0.45810  0.43842  Biso   1.000  C
  C46      1.0000 0.19340  0.54190  0.56158  Biso   1.000  C
  C47      1.0000 0.79700  0.56150  0.43227  Biso   1.000  C
  C48      1.0000 0.20300  0.43850  0.56773  Biso   1.000  C
  H33      1.0000 0.75750  0.56070  0.37170  Biso   1.000  H
  H34      1.0000 0.24250  0.43930  0.62830  Biso   1.000  H
  C49      1.0000 0.84510  0.66320  0.51411  Biso   1.000  C
  C50      1.0000 0.15490  0.33680  0.48589  Biso   1.000  C
  C51      1.0000 0.83970  0.77410  0.50580  Biso   1.000  C
  C52      1.0000 0.16030  0.22590  0.49420  Biso   1.000  C
  O9       1.0000 0.79242  0.76827  0.41890  Biso   1.000  O
  O10      1.0000 0.20758  0.23173  0.58110  Biso   1.000  O
  O11      1.0000 0.88076  0.86409  0.58337  Biso   1.000  O
  O12      1.0000 0.11924  0.13591  0.41663  Biso   1.000  O
  C53      1.0000 0.90410  0.66440  0.60655  Biso   1.000  C
  C54      1.0000 0.09590  0.33560  0.39345  Biso   1.000  C
  H35      1.0000 0.93690  0.73340  0.66200  Biso   1.000  H
  H36      1.0000 0.06310  0.26660  0.33800  Biso   1.000  H
  C55      1.0000 0.91350  0.56620  0.61508  Biso   1.000  C
  C56      1.0000 0.08650  0.43380  0.38492  Biso   1.000  C
  H37      1.0000 0.95130  0.56850  0.67680  Biso   1.000  H
  H38      1.0000 0.04870  0.43150  0.32320  Biso   1.000  H
  C57      1.0000 0.86640  0.46000  0.53138  Biso   1.000  C
  C58      1.0000 0.13360  0.54000  0.46862  Biso   1.000  C
  C59      1.0000 0.87860  0.35730  0.53678  Biso   1.000  C
  C60      1.0000 0.12140  0.64270  0.46322  Biso   1.000  C
  H39      1.0000 0.91740  0.35810  0.59750  Biso   1.000  H
  H40      1.0000 0.08260  0.64190  0.40250  Biso   1.000  H
  O13      1.0000 0.94741  0.93260  0.37329  Biso   1.000  O
  O14      1.0000 0.05259  0.06740  0.62671  Biso   1.000  O
  O15      1.0000 0.20016  0.74476  0.25712  Biso   1.000  O
  O16      1.0000 0.79984  0.25524  0.74288  Biso   1.000  O
  C61      1.0000 0.14600  0.64230  0.20740  Biso   1.000  C
  C62      1.0000 0.85400  0.35770  0.79260  Biso   1.000  C
  H41      1.0000 0.19090  0.59680  0.18570  Biso   1.000  H
  H42      1.0000 0.80910  0.40320  0.81430  Biso   1.000  H
  N9       1.0000 0.02860  0.59060  0.18176  Biso   1.000  N
  N10      1.0000 0.97140  0.40940  0.81824  Biso   1.000  N
  C63      1.0000 0.95110  0.65230  0.21260  Biso   1.000  C
  C64      1.0000 0.04890  0.34770  0.78740  Biso   1.000  C
  H43      1.0000 0.99790  0.72900  0.25920  Biso   1.000  H
  H44      1.0000 0.00210  0.27100  0.74080  Biso   1.000  H
  H45      1.0000 0.89890  0.61290  0.24430  Biso   1.000  H
  H46      1.0000 0.10110  0.38710  0.75570  Biso   1.000  H
  H47      1.0000 0.90460  0.65620  0.15490  Biso   1.000  H
  H48      1.0000 0.09540  0.34380  0.84510  Biso   1.000  H
  C65      1.0000 0.97160  0.46920  0.12070  Biso   1.000  C
  C66      1.0000 0.02840  0.53080  0.87930  Biso   1.000  C
  H49      1.0000 0.03110  0.43420  0.11230  Biso   1.000  H
  H50      1.0000 0.96890  0.56580  0.88770  Biso   1.000  H
  H51      1.0000 0.92770  0.46030  0.05610  Biso   1.000  H
  H52      1.0000 0.07230  0.53970  0.94390  Biso   1.000  H
  H53      1.0000 0.91810  0.43250  0.15310  Biso   1.000  H
  H54      1.0000 0.08190  0.56750  0.84690  Biso   1.000  H
  O17      1.0000 0.53462  0.44976  0.22110  Biso   1.000  O
  O18      1.0000 0.46538  0.55024  0.77890  Biso   1.000  O
  C67      1.0000 0.48590  0.37200  0.24900  Biso   1.000  C
  C68      1.0000 0.51410  0.62800  0.75100  Biso   1.000  C
  H55      1.0000 0.49180  0.30010  0.21890  Biso   1.000  H
  H56      1.0000 0.50820  0.69990  0.78110  Biso   1.000  H
  N11      1.0000 0.42670  0.38240  0.31756  Biso   1.000  N
  N12      1.0000 0.57330  0.61760  0.68244  Biso   1.000  N
  C69      1.0000 0.41110  0.49150  0.36550  Biso   1.000  C
  C70      1.0000 0.58890  0.50850  0.63450  Biso   1.000  C
  H57      1.0000 0.47950  0.55400  0.36980  Biso   1.000  H
  H58      1.0000 0.52050  0.44600  0.63020  Biso   1.000  H
  H59      1.0000 0.40260  0.49890  0.43180  Biso   1.000  H
  H60      1.0000 0.59740  0.50110  0.56820  Biso   1.000  H
  H61      1.0000 0.34100  0.49350  0.32640  Biso   1.000  H
  H62      1.0000 0.65900  0.50650  0.67360  Biso   1.000  H
  C71      1.0000 0.37060  0.28550  0.34520  Biso   1.000  C
  C72      1.0000 0.62940  0.71450  0.65480  Biso   1.000  C
  H63      1.0000 0.39020  0.22030  0.30990  Biso   1.000  H
  H64      1.0000 0.60980  0.77970  0.69010  Biso   1.000  H
  H65      1.0000 0.28570  0.26610  0.32760  Biso   1.000  H
  H66      1.0000 0.71430  0.73390  0.67240  Biso   1.000  H
  H67      1.0000 0.39900  0.30630  0.41630  Biso   1.000  H
  H68      1.0000 0.60100  0.69370  0.58370  Biso   1.000  H
  H69      1.0000 0.99200  0.90400  0.40100  Biso   1.000  H
  H70      1.0000 0.00800  0.09600  0.59900  Biso   1.000  H
  H71      1.0000 0.98600  0.99500  0.38500  Biso   1.000  H
  H72      1.0000 0.01400  0.00500  0.61500  Biso   1.000  H
