data_image0
_cell_length_a       13.156
_cell_length_b       7.855
_cell_length_c       19.135
_cell_angle_alpha    90
_cell_angle_beta     92.521
_cell_angle_gamma    90

_symmetry_space_group_name_H-M    "P 1"
_symmetry_int_tables_number       1

loop_
  _symmetry_equiv_pos_as_xyz
  'x, y, z'

loop_
  _atom_site_label
  _atom_site_occupancy
  _atom_site_fract_x
  _atom_site_fract_y
  _atom_site_fract_z
  _atom_site_thermal_displace_type
  _atom_site_B_iso_or_equiv
  _atom_site_type_symbol
  Cu1      1.0000 0.61849  0.24614  0.82564  Biso   1.000  Cu
  Cu2      1.0000 0.88151  0.74614  0.67436  Biso   1.000  Cu
  Cu3      1.0000 0.38151  0.75386  0.17436  Biso   1.000  Cu
  Cu4      1.0000 0.11849  0.25386  0.32564  Biso   1.000  Cu
  N1       1.0000 0.53830  0.22300  0.55071  Biso   1.000  N
  N2       1.0000 0.96170  0.72300  0.94929  Biso   1.000  N
  N3       1.0000 0.46170  0.77700  0.44929  Biso   1.000  N
  N4       1.0000 0.03830  0.27700  0.05071  Biso   1.000  N
  H1       1.0000 0.49680  0.23940  0.51540  Biso   1.000  H
  H2       1.0000 0.00320  0.73940  0.98460  Biso   1.000  H
  H3       1.0000 0.50320  0.76060  0.48460  Biso   1.000  H
  H4       1.0000 0.99680  0.26060  0.01540  Biso   1.000  H
  O1       1.0000 0.71168  0.20790  0.90620  Biso   1.000  O
  O2       1.0000 0.78832  0.70790  0.59380  Biso   1.000  O
  O3       1.0000 0.28832  0.79210  0.09380  Biso   1.000  O
  O4       1.0000 0.21168  0.29210  0.40620  Biso   1.000  O
  N5       1.0000 0.52340  0.27990  0.74113  Biso   1.000  N
  N6       1.0000 0.97660  0.77990  0.75887  Biso   1.000  N
  N7       1.0000 0.47660  0.72010  0.25887  Biso   1.000  N
  N8       1.0000 0.02340  0.22010  0.24113  Biso   1.000  N
  C1       1.0000 0.50620  0.27640  0.61648  Biso   1.000  C
  C2       1.0000 0.99380  0.77640  0.88352  Biso   1.000  C
  C3       1.0000 0.49380  0.72360  0.38352  Biso   1.000  C
  C4       1.0000 0.00620  0.22360  0.11648  Biso   1.000  C
  C5       1.0000 0.55430  0.22460  0.67944  Biso   1.000  C
  C6       1.0000 0.94570  0.72460  0.82056  Biso   1.000  C
  C7       1.0000 0.44570  0.77540  0.32056  Biso   1.000  C
  C8       1.0000 0.05430  0.27540  0.17944  Biso   1.000  C
  H5       1.0000 0.60910  0.14990  0.67850  Biso   1.000  H
  H6       1.0000 0.89090  0.64990  0.82150  Biso   1.000  H
  H7       1.0000 0.39090  0.85010  0.32150  Biso   1.000  H
  H8       1.0000 0.10910  0.35010  0.17850  Biso   1.000  H
  O5       1.0000 0.72543  0.32010  0.76836  Biso   1.000  O
  O6       1.0000 0.77457  0.82010  0.73164  Biso   1.000  O
  O7       1.0000 0.27457  0.67990  0.23164  Biso   1.000  O
  O8       1.0000 0.22543  0.17990  0.26836  Biso   1.000  O
  C9       1.0000 0.80700  0.17690  0.90283  Biso   1.000  C
  C10      1.0000 0.69300  0.67690  0.59717  Biso   1.000  C
  C11      1.0000 0.19300  0.82310  0.09717  Biso   1.000  C
  C12      1.0000 0.30700  0.32310  0.40283  Biso   1.000  C
  O9       1.0000 0.86300  0.16250  0.95584  Biso   1.000  O
  O10      1.0000 0.63700  0.66250  0.54416  Biso   1.000  O
  O11      1.0000 0.13700  0.83750  0.04416  Biso   1.000  O
  O12      1.0000 0.36300  0.33750  0.45584  Biso   1.000  O
  C13      1.0000 0.39060  0.43560  0.68316  Biso   1.000  C
  C14      1.0000 0.10940  0.93560  0.81684  Biso   1.000  C
  C15      1.0000 0.60940  0.56440  0.31684  Biso   1.000  C
  C16      1.0000 0.89060  0.06440  0.18316  Biso   1.000  C
  H9       1.0000 0.33390  0.50560  0.68580  Biso   1.000  H
  H10      1.0000 0.16610  0.00560  0.81420  Biso   1.000  H
  H11      1.0000 0.66610  0.49440  0.31420  Biso   1.000  H
  H12      1.0000 0.83390  0.99440  0.18580  Biso   1.000  H
  C17      1.0000 0.42380  0.38440  0.61872  Biso   1.000  C
  C18      1.0000 0.07620  0.88440  0.88128  Biso   1.000  C
  C19      1.0000 0.57620  0.61560  0.38128  Biso   1.000  C
  C20      1.0000 0.92380  0.11560  0.11872  Biso   1.000  C
  H13      1.0000 0.39090  0.42240  0.57760  Biso   1.000  H
  H14      1.0000 0.10910  0.92240  0.92240  Biso   1.000  H
  H15      1.0000 0.60910  0.57760  0.42240  Biso   1.000  H
  H16      1.0000 0.89090  0.07760  0.07760  Biso   1.000  H
  O13      1.0000 0.69150  0.11590  0.58427  Biso   1.000  O
  O14      1.0000 0.80850  0.61590  0.91573  Biso   1.000  O
  O15      1.0000 0.30850  0.88410  0.41573  Biso   1.000  O
  O16      1.0000 0.19150  0.38410  0.08427  Biso   1.000  O
  O17      1.0000 0.88450  0.34280  0.73908  Biso   1.000  O
  O18      1.0000 0.61550  0.84280  0.76092  Biso   1.000  O
  O19      1.0000 0.11550  0.65720  0.26092  Biso   1.000  O
  O20      1.0000 0.38450  0.15720  0.23908  Biso   1.000  O
  C21      1.0000 0.81980  0.28260  0.77637  Biso   1.000  C
  C22      1.0000 0.68020  0.78260  0.72363  Biso   1.000  C
  C23      1.0000 0.18020  0.71740  0.22363  Biso   1.000  C
  C24      1.0000 0.31980  0.21740  0.27637  Biso   1.000  C
  C25      1.0000 0.59350  0.16800  0.40576  Biso   1.000  C
  C26      1.0000 0.90650  0.66800  0.09424  Biso   1.000  C
  C27      1.0000 0.40650  0.83200  0.59424  Biso   1.000  C
  C28      1.0000 0.09350  0.33200  0.90576  Biso   1.000  C
  H17      1.0000 0.54180  0.24670  0.41180  Biso   1.000  H
  H18      1.0000 0.95820  0.74670  0.08820  Biso   1.000  H
  H19      1.0000 0.45820  0.75330  0.58820  Biso   1.000  H
  H20      1.0000 0.04180  0.25330  0.91180  Biso   1.000  H
  C29      1.0000 0.62800  0.14850  0.53786  Biso   1.000  C
  C30      1.0000 0.87200  0.64850  0.96214  Biso   1.000  C
  C31      1.0000 0.37200  0.85150  0.46214  Biso   1.000  C
  C32      1.0000 0.12800  0.35150  0.03786  Biso   1.000  C
  C33      1.0000 0.64650  0.10000  0.46404  Biso   1.000  C
  C34      1.0000 0.85350  0.60000  0.03596  Biso   1.000  C
  C35      1.0000 0.35350  0.90000  0.53596  Biso   1.000  C
  C36      1.0000 0.14650  0.40000  0.96404  Biso   1.000  C
  C37      1.0000 0.84850  0.15090  0.83080  Biso   1.000  C
  C38      1.0000 0.65150  0.65090  0.66920  Biso   1.000  C
  C39      1.0000 0.15150  0.84910  0.16920  Biso   1.000  C
  C40      1.0000 0.34850  0.34910  0.33080  Biso   1.000  C
  H21      1.0000 0.92220  0.14680  0.83580  Biso   1.000  H
  H22      1.0000 0.57780  0.64680  0.66420  Biso   1.000  H
  H23      1.0000 0.07780  0.85320  0.16420  Biso   1.000  H
  H24      1.0000 0.42220  0.35320  0.33580  Biso   1.000  H
  H25      1.0000 0.82560  0.04070  0.81340  Biso   1.000  H
  H26      1.0000 0.67440  0.54070  0.68660  Biso   1.000  H
  H27      1.0000 0.17440  0.95930  0.18660  Biso   1.000  H
  H28      1.0000 0.32560  0.45930  0.31340  Biso   1.000  H
  C41      1.0000 0.44220  0.38190  0.74323  Biso   1.000  C
  C42      1.0000 0.05780  0.88190  0.75677  Biso   1.000  C
  C43      1.0000 0.55780  0.61810  0.25677  Biso   1.000  C
  C44      1.0000 0.94220  0.11810  0.24323  Biso   1.000  C
  H29      1.0000 0.42010  0.41740  0.78640  Biso   1.000  H
  H30      1.0000 0.07990  0.91740  0.71360  Biso   1.000  H
  H31      1.0000 0.57990  0.58260  0.21360  Biso   1.000  H
  H32      1.0000 0.92010  0.08260  0.28640  Biso   1.000  H
  C45      1.0000 0.61740  0.11870  0.33887  Biso   1.000  C
  C46      1.0000 0.88260  0.61870  0.16113  Biso   1.000  C
  C47      1.0000 0.38260  0.88130  0.66113  Biso   1.000  C
  C48      1.0000 0.11740  0.38130  0.83887  Biso   1.000  C
  H33      1.0000 0.58220  0.16510  0.30020  Biso   1.000  H
  H34      1.0000 0.91780  0.66510  0.19980  Biso   1.000  H
  H35      1.0000 0.41780  0.83490  0.69980  Biso   1.000  H
  H36      1.0000 0.08220  0.33490  0.80020  Biso   1.000  H
  O21      1.0000 0.60810  0.55590  0.85872  Biso   1.000  O
  O22      1.0000 0.89190  0.05590  0.64128  Biso   1.000  O
  O23      1.0000 0.39190  0.44410  0.14128  Biso   1.000  O
  O24      1.0000 0.10810  0.94410  0.35872  Biso   1.000  O
  C49      1.0000 0.72100  0.97940  0.45415  Biso   1.000  C
  C50      1.0000 0.77900  0.47940  0.04585  Biso   1.000  C
  C51      1.0000 0.27900  0.02060  0.54585  Biso   1.000  C
  C52      1.0000 0.22100  0.52060  0.95415  Biso   1.000  C
  H37      1.0000 0.75610  0.93240  0.49280  Biso   1.000  H
  H38      1.0000 0.74390  0.43240  0.00720  Biso   1.000  H
  H39      1.0000 0.24390  0.06760  0.50720  Biso   1.000  H
  H40      1.0000 0.25610  0.56760  0.99280  Biso   1.000  H
  C53      1.0000 0.74420  0.92760  0.38749  Biso   1.000  C
  C54      1.0000 0.75580  0.42760  0.11251  Biso   1.000  C
  C55      1.0000 0.25580  0.07240  0.61251  Biso   1.000  C
  C56      1.0000 0.24420  0.57240  0.88749  Biso   1.000  C
  C57      1.0000 0.69310  0.00110  0.32990  Biso   1.000  C
  C58      1.0000 0.80690  0.50110  0.17010  Biso   1.000  C
  C59      1.0000 0.30690  0.99890  0.67010  Biso   1.000  C
  C60      1.0000 0.19310  0.49890  0.82990  Biso   1.000  C
  H41      1.0000 0.71030  0.97050  0.28500  Biso   1.000  H
  H42      1.0000 0.78970  0.47050  0.21500  Biso   1.000  H
  H43      1.0000 0.28970  0.02950  0.71500  Biso   1.000  H
  H44      1.0000 0.21030  0.52950  0.78500  Biso   1.000  H
  N9       1.0000 0.82860  0.67250  0.42841  Biso   1.000  N
  N10      1.0000 0.67140  0.17250  0.07159  Biso   1.000  N
  N11      1.0000 0.17140  0.32750  0.57159  Biso   1.000  N
  N12      1.0000 0.32860  0.82750  0.92841  Biso   1.000  N
  H45      1.0000 0.79960  0.69890  0.46630  Biso   1.000  H
  H46      1.0000 0.70040  0.19890  0.03370  Biso   1.000  H
  H47      1.0000 0.20040  0.30110  0.53370  Biso   1.000  H
  H48      1.0000 0.29960  0.80110  0.96630  Biso   1.000  H
  C61      1.0000 0.81660  0.78500  0.37453  Biso   1.000  C
  C62      1.0000 0.68340  0.28500  0.12547  Biso   1.000  C
  C63      1.0000 0.18340  0.21500  0.62547  Biso   1.000  C
  C64      1.0000 0.31660  0.71500  0.87453  Biso   1.000  C
  C65      1.0000 0.88300  0.51760  0.42940  Biso   1.000  C
  C66      1.0000 0.61700  0.01760  0.07060  Biso   1.000  C
  C67      1.0000 0.11700  0.48240  0.57060  Biso   1.000  C
  C68      1.0000 0.38300  0.98240  0.92940  Biso   1.000  C
  C69      1.0000 0.86610  0.40740  0.48429  Biso   1.000  C
  C70      1.0000 0.63390  0.90740  0.01571  Biso   1.000  C
  C71      1.0000 0.13390  0.59260  0.51571  Biso   1.000  C
  C72      1.0000 0.36610  0.09260  0.98429  Biso   1.000  C
  H49      1.0000 0.81950  0.43560  0.51750  Biso   1.000  H
  H50      1.0000 0.68050  0.93560  0.98250  Biso   1.000  H
  H51      1.0000 0.18050  0.56440  0.48250  Biso   1.000  H
  H52      1.0000 0.31950  0.06440  0.01750  Biso   1.000  H
  C73      1.0000 0.91850  0.25660  0.48940  Biso   1.000  C
  C74      1.0000 0.58150  0.75660  0.01060  Biso   1.000  C
  C75      1.0000 0.08150  0.74340  0.51060  Biso   1.000  C
  C76      1.0000 0.41850  0.24340  0.98940  Biso   1.000  C
  H53      1.0000 0.90740  0.18120  0.52570  Biso   1.000  H
  H54      1.0000 0.59260  0.68120  0.97430  Biso   1.000  H
  H55      1.0000 0.09260  0.81880  0.47430  Biso   1.000  H
  H56      1.0000 0.40740  0.31880  0.02570  Biso   1.000  H
  C77      1.0000 0.98780  0.21890  0.43980  Biso   1.000  C
  C78      1.0000 0.51220  0.71890  0.06020  Biso   1.000  C
  C79      1.0000 0.01220  0.78110  0.56020  Biso   1.000  C
  C80      1.0000 0.48780  0.28110  0.93980  Biso   1.000  C
  H57      1.0000 0.02380  0.11720  0.44350  Biso   1.000  H
  H58      1.0000 0.47620  0.61720  0.05650  Biso   1.000  H
  H59      1.0000 0.97620  0.88280  0.55650  Biso   1.000  H
  H60      1.0000 0.52380  0.38280  0.94350  Biso   1.000  H
  O25      1.0000 0.85750  0.76880  0.31933  Biso   1.000  O
  O26      1.0000 0.64250  0.26880  0.18067  Biso   1.000  O
  O27      1.0000 0.14250  0.23120  0.68067  Biso   1.000  O
  O28      1.0000 0.35750  0.73120  0.81933  Biso   1.000  O
  N13      1.0000 0.00480  0.32250  0.38713  Biso   1.000  N
  N14      1.0000 0.49520  0.82250  0.11287  Biso   1.000  N
  N15      1.0000 0.99520  0.67750  0.61287  Biso   1.000  N
  N16      1.0000 0.50480  0.17750  0.88713  Biso   1.000  N
  C81      1.0000 0.95390  0.47150  0.38113  Biso   1.000  C
  C82      1.0000 0.54610  0.97150  0.11887  Biso   1.000  C
  C83      1.0000 0.04610  0.52850  0.61887  Biso   1.000  C
  C84      1.0000 0.45390  0.02850  0.88113  Biso   1.000  C
  H61      1.0000 0.96650  0.54420  0.34420  Biso   1.000  H
  H62      1.0000 0.53350  0.04420  0.15580  Biso   1.000  H
  H63      1.0000 0.03350  0.45580  0.65580  Biso   1.000  H
  H64      1.0000 0.46650  0.95580  0.84420  Biso   1.000  H
