data_image0
_cell_length_a       10.842
_cell_length_b       16.505
_cell_length_c       14.595
_cell_angle_alpha    90
_cell_angle_beta     107.125
_cell_angle_gamma    90

_symmetry_space_group_name_H-M    "P 1"
_symmetry_int_tables_number       1

loop_
  _symmetry_equiv_pos_as_xyz
  'x, y, z'

loop_
  _atom_site_label
  _atom_site_occupancy
  _atom_site_fract_x
  _atom_site_fract_y
  _atom_site_fract_z
  _atom_site_thermal_displace_type
  _atom_site_B_iso_or_equiv
  _atom_site_type_symbol
  Cu1      1.0000 0.94914  0.13952  0.94836  Biso   1.000  Cu
  Cu2      1.0000 0.55086  0.63952  0.55164  Biso   1.000  Cu
  Cu3      1.0000 0.05086  0.86048  0.05164  Biso   1.000  Cu
  Cu4      1.0000 0.44914  0.36048  0.44836  Biso   1.000  Cu
  N1       1.0000 0.86510  0.18649  0.81900  Biso   1.000  N
  N2       1.0000 0.63490  0.68649  0.68100  Biso   1.000  N
  N3       1.0000 0.13490  0.81351  0.18100  Biso   1.000  N
  N4       1.0000 0.36510  0.31351  0.31900  Biso   1.000  N
  C1       1.0000 0.77110  0.24280  0.80530  Biso   1.000  C
  C2       1.0000 0.72890  0.74280  0.69470  Biso   1.000  C
  C3       1.0000 0.22890  0.75720  0.19470  Biso   1.000  C
  C4       1.0000 0.27110  0.25720  0.30530  Biso   1.000  C
  H1       1.0000 0.74010  0.25630  0.85640  Biso   1.000  H
  H2       1.0000 0.75990  0.75630  0.64360  Biso   1.000  H
  H3       1.0000 0.25990  0.74370  0.14360  Biso   1.000  H
  H4       1.0000 0.24010  0.24370  0.35640  Biso   1.000  H
  C5       1.0000 0.71960  0.28060  0.71880  Biso   1.000  C
  C6       1.0000 0.78040  0.78060  0.78120  Biso   1.000  C
  C7       1.0000 0.28040  0.71940  0.28120  Biso   1.000  C
  C8       1.0000 0.21960  0.21940  0.21880  Biso   1.000  C
  H5       1.0000 0.65390  0.31840  0.71150  Biso   1.000  H
  H6       1.0000 0.84610  0.81840  0.78850  Biso   1.000  H
  H7       1.0000 0.34610  0.68160  0.28850  Biso   1.000  H
  H8       1.0000 0.15390  0.18160  0.21150  Biso   1.000  H
  C9       1.0000 0.76580  0.26230  0.64240  Biso   1.000  C
  C10      1.0000 0.73420  0.76230  0.85760  Biso   1.000  C
  C11      1.0000 0.23420  0.73770  0.35760  Biso   1.000  C
  C12      1.0000 0.26580  0.23770  0.14240  Biso   1.000  C
  H9       1.0000 0.73390  0.28850  0.58380  Biso   1.000  H
  H10      1.0000 0.76610  0.78850  0.91620  Biso   1.000  H
  H11      1.0000 0.26610  0.71150  0.41620  Biso   1.000  H
  H12      1.0000 0.23390  0.21150  0.08380  Biso   1.000  H
  C13      1.0000 0.86060  0.20400  0.65570  Biso   1.000  C
  C14      1.0000 0.63940  0.70400  0.84430  Biso   1.000  C
  C15      1.0000 0.13940  0.79600  0.34430  Biso   1.000  C
  C16      1.0000 0.36060  0.29600  0.15570  Biso   1.000  C
  C17      1.0000 0.90730  0.16690  0.74410  Biso   1.000  C
  C18      1.0000 0.59270  0.66690  0.75590  Biso   1.000  C
  C19      1.0000 0.09270  0.83310  0.25590  Biso   1.000  C
  C20      1.0000 0.40730  0.33310  0.24410  Biso   1.000  C
  H13      1.0000 0.97020  0.12700  0.75200  Biso   1.000  H
  H14      1.0000 0.52980  0.62700  0.74800  Biso   1.000  H
  H15      1.0000 0.02980  0.87300  0.24800  Biso   1.000  H
  H16      1.0000 0.47020  0.37300  0.25200  Biso   1.000  H
  N5       1.0000 0.90970  0.17810  0.57970  Biso   1.000  N
  N6       1.0000 0.59030  0.67810  0.92030  Biso   1.000  N
  N7       1.0000 0.09030  0.82190  0.42030  Biso   1.000  N
  N8       1.0000 0.40970  0.32190  0.07970  Biso   1.000  N
  H17      1.0000 0.85670  0.17230  0.52330  Biso   1.000  H
  H18      1.0000 0.64330  0.67230  0.97670  Biso   1.000  H
  H19      1.0000 0.14330  0.82770  0.47670  Biso   1.000  H
  H20      1.0000 0.35670  0.32770  0.02330  Biso   1.000  H
  C21      1.0000 0.03670  0.16230  0.59310  Biso   1.000  C
  C22      1.0000 0.46330  0.66230  0.90690  Biso   1.000  C
  C23      1.0000 0.96330  0.83770  0.40690  Biso   1.000  C
  C24      1.0000 0.53670  0.33770  0.09310  Biso   1.000  C
  O1       1.0000 0.12110  0.17897  0.66640  Biso   1.000  O
  O2       1.0000 0.37890  0.67897  0.83360  Biso   1.000  O
  O3       1.0000 0.87890  0.82103  0.33360  Biso   1.000  O
  O4       1.0000 0.62110  0.32103  0.16640  Biso   1.000  O
  C25      1.0000 0.06580  0.12090  0.51020  Biso   1.000  C
  C26      1.0000 0.43420  0.62090  0.98980  Biso   1.000  C
  C27      1.0000 0.93420  0.87910  0.48980  Biso   1.000  C
  C28      1.0000 0.56580  0.37910  0.01020  Biso   1.000  C
  C29      1.0000 0.99750  0.13520  0.41460  Biso   1.000  C
  C30      1.0000 0.50250  0.63520  0.08540  Biso   1.000  C
  C31      1.0000 0.00250  0.86480  0.58540  Biso   1.000  C
  C32      1.0000 0.49750  0.36480  0.91460  Biso   1.000  C
  H21      1.0000 0.93000  0.17230  0.39990  Biso   1.000  H
  H22      1.0000 0.57000  0.67230  0.10010  Biso   1.000  H
  H23      1.0000 0.07000  0.82770  0.60010  Biso   1.000  H
  H24      1.0000 0.43000  0.32770  0.89990  Biso   1.000  H
  C33      1.0000 0.02850  0.09510  0.34170  Biso   1.000  C
  C34      1.0000 0.47150  0.59510  0.15830  Biso   1.000  C
  C35      1.0000 0.97150  0.90490  0.65830  Biso   1.000  C
  C36      1.0000 0.52850  0.40490  0.84170  Biso   1.000  C
  H25      1.0000 0.98150  0.10470  0.27830  Biso   1.000  H
  H26      1.0000 0.51850  0.60470  0.22170  Biso   1.000  H
  H27      1.0000 0.01850  0.89530  0.72170  Biso   1.000  H
  H28      1.0000 0.48150  0.39530  0.77830  Biso   1.000  H
  C37      1.0000 0.12920  0.04060  0.36300  Biso   1.000  C
  C38      1.0000 0.37080  0.54060  0.13700  Biso   1.000  C
  C39      1.0000 0.87080  0.95940  0.63700  Biso   1.000  C
  C40      1.0000 0.62920  0.45940  0.86300  Biso   1.000  C
  H29      1.0000 0.15130  0.01440  0.31360  Biso   1.000  H
  H30      1.0000 0.34870  0.51440  0.18640  Biso   1.000  H
  H31      1.0000 0.84870  0.98560  0.68640  Biso   1.000  H
  H32      1.0000 0.65130  0.48560  0.81360  Biso   1.000  H
  C41      1.0000 0.19830  0.02430  0.45790  Biso   1.000  C
  C42      1.0000 0.30170  0.52430  0.04210  Biso   1.000  C
  C43      1.0000 0.80170  0.97570  0.54210  Biso   1.000  C
  C44      1.0000 0.69830  0.47570  0.95790  Biso   1.000  C
  C45      1.0000 0.16480  0.06430  0.53080  Biso   1.000  C
  C46      1.0000 0.33520  0.56430  0.96920  Biso   1.000  C
  C47      1.0000 0.83520  0.93570  0.46920  Biso   1.000  C
  C48      1.0000 0.66480  0.43570  0.03080  Biso   1.000  C
  H33      1.0000 0.20940  0.05310  0.59440  Biso   1.000  H
  H34      1.0000 0.29060  0.55310  0.90560  Biso   1.000  H
  H35      1.0000 0.79060  0.94690  0.40560  Biso   1.000  H
  H36      1.0000 0.70940  0.44690  0.09440  Biso   1.000  H
  C49      1.0000 0.29760  0.95920  0.48380  Biso   1.000  C
  C50      1.0000 0.20240  0.45920  0.01620  Biso   1.000  C
  C51      1.0000 0.70240  0.04080  0.51620  Biso   1.000  C
  C52      1.0000 0.79760  0.54080  0.98380  Biso   1.000  C
  O5       1.0000 0.30120  0.91179  0.55090  Biso   1.000  O
  O6       1.0000 0.19880  0.41179  0.94910  Biso   1.000  O
  O7       1.0000 0.69880  0.08821  0.44910  Biso   1.000  O
  O8       1.0000 0.80120  0.58821  0.05090  Biso   1.000  O
  N9       1.0000 0.37600  0.95229  0.42770  Biso   1.000  N
  N10      1.0000 0.12400  0.45229  0.07230  Biso   1.000  N
  N11      1.0000 0.62400  0.04771  0.57230  Biso   1.000  N
  N12      1.0000 0.87600  0.54771  0.92770  Biso   1.000  N
  H37      1.0000 0.37620  0.99270  0.39050  Biso   1.000  H
  H38      1.0000 0.12380  0.49270  0.10950  Biso   1.000  H
  H39      1.0000 0.62380  0.00730  0.60950  Biso   1.000  H
  H40      1.0000 0.87620  0.50730  0.89050  Biso   1.000  H
  C53      1.0000 0.45790  0.88730  0.42220  Biso   1.000  C
  C54      1.0000 0.04210  0.38730  0.07780  Biso   1.000  C
  C55      1.0000 0.54210  0.11270  0.57780  Biso   1.000  C
  C56      1.0000 0.95790  0.61270  0.92220  Biso   1.000  C
  C57      1.0000 0.51030  0.88650  0.34670  Biso   1.000  C
  C58      1.0000 0.98970  0.38650  0.15330  Biso   1.000  C
  C59      1.0000 0.48970  0.11350  0.65330  Biso   1.000  C
  C60      1.0000 0.01030  0.61350  0.84670  Biso   1.000  C
  H41      1.0000 0.49550  0.92960  0.30370  Biso   1.000  H
  H42      1.0000 0.00450  0.42960  0.19630  Biso   1.000  H
  H43      1.0000 0.50450  0.07040  0.69630  Biso   1.000  H
  H44      1.0000 0.99550  0.57040  0.80370  Biso   1.000  H
  C61      1.0000 0.58460  0.82180  0.33510  Biso   1.000  C
  C62      1.0000 0.91540  0.32180  0.16490  Biso   1.000  C
  C63      1.0000 0.41540  0.17820  0.66490  Biso   1.000  C
  C64      1.0000 0.08460  0.67820  0.83510  Biso   1.000  C
  H45      1.0000 0.62090  0.82080  0.28480  Biso   1.000  H
  H46      1.0000 0.87910  0.32080  0.21520  Biso   1.000  H
  H47      1.0000 0.37910  0.17920  0.71520  Biso   1.000  H
  H48      1.0000 0.12090  0.67920  0.78480  Biso   1.000  H
  C65      1.0000 0.60400  0.75850  0.39970  Biso   1.000  C
  C66      1.0000 0.89600  0.25850  0.10030  Biso   1.000  C
  C67      1.0000 0.39600  0.24150  0.60030  Biso   1.000  C
  C68      1.0000 0.10400  0.74150  0.89970  Biso   1.000  C
  H49      1.0000 0.65350  0.71450  0.39160  Biso   1.000  H
  H50      1.0000 0.84650  0.21450  0.10840  Biso   1.000  H
  H51      1.0000 0.34650  0.28550  0.60840  Biso   1.000  H
  H52      1.0000 0.15350  0.78550  0.89160  Biso   1.000  H
  N13      1.0000 0.55420  0.75803  0.47360  Biso   1.000  N
  N14      1.0000 0.94580  0.25803  0.02640  Biso   1.000  N
  N15      1.0000 0.44580  0.24197  0.52640  Biso   1.000  N
  N16      1.0000 0.05420  0.74197  0.97360  Biso   1.000  N
  C69      1.0000 0.48470  0.82250  0.48580  Biso   1.000  C
  C70      1.0000 0.01530  0.32250  0.01420  Biso   1.000  C
  C71      1.0000 0.51530  0.17750  0.51420  Biso   1.000  C
  C72      1.0000 0.98470  0.67750  0.98580  Biso   1.000  C
  H53      1.0000 0.45350  0.82360  0.53860  Biso   1.000  H
  H54      1.0000 0.04650  0.32360  0.96140  Biso   1.000  H
  H55      1.0000 0.54650  0.17640  0.46140  Biso   1.000  H
  H56      1.0000 0.95350  0.67640  0.03860  Biso   1.000  H
  O9       1.0000 0.77770  0.11734  0.96346  Biso   1.000  O
  O10      1.0000 0.72230  0.61734  0.53654  Biso   1.000  O
  O11      1.0000 0.22230  0.88266  0.03654  Biso   1.000  O
  O12      1.0000 0.27770  0.38266  0.46346  Biso   1.000  O
  O13      1.0000 0.74260  0.99857  0.88512  Biso   1.000  O
  O14      1.0000 0.75740  0.49857  0.61488  Biso   1.000  O
  O15      1.0000 0.25740  0.00143  0.11488  Biso   1.000  O
  O16      1.0000 0.24260  0.50143  0.38512  Biso   1.000  O
  C73      1.0000 0.70530  0.05980  0.92090  Biso   1.000  C
  C74      1.0000 0.79470  0.55980  0.57910  Biso   1.000  C
  C75      1.0000 0.29470  0.94020  0.07910  Biso   1.000  C
  C76      1.0000 0.20530  0.44020  0.42090  Biso   1.000  C
  C77      1.0000 0.56380  0.06820  0.91260  Biso   1.000  C
  C78      1.0000 0.93620  0.56820  0.58740  Biso   1.000  C
  C79      1.0000 0.43620  0.93180  0.08740  Biso   1.000  C
  C80      1.0000 0.06380  0.43180  0.41260  Biso   1.000  C
  C81      1.0000 0.51640  0.13830  0.94240  Biso   1.000  C
  C82      1.0000 0.98360  0.63830  0.55760  Biso   1.000  C
  C83      1.0000 0.48360  0.86170  0.05760  Biso   1.000  C
  C84      1.0000 0.01640  0.36170  0.44240  Biso   1.000  C
  H57      1.0000 0.57230  0.18110  0.96670  Biso   1.000  H
  H58      1.0000 0.92770  0.68110  0.53330  Biso   1.000  H
  H59      1.0000 0.42770  0.81890  0.03330  Biso   1.000  H
  H60      1.0000 0.07230  0.31890  0.46670  Biso   1.000  H
  C85      1.0000 0.38800  0.14530  0.93660  Biso   1.000  C
  C86      1.0000 0.11200  0.64530  0.56340  Biso   1.000  C
  C87      1.0000 0.61200  0.85470  0.06340  Biso   1.000  C
  C88      1.0000 0.88800  0.35470  0.43660  Biso   1.000  C
  H61      1.0000 0.35820  0.19260  0.95760  Biso   1.000  H
  H62      1.0000 0.14180  0.69260  0.54240  Biso   1.000  H
  H63      1.0000 0.64180  0.80740  0.04240  Biso   1.000  H
  H64      1.0000 0.85820  0.30740  0.45760  Biso   1.000  H
  C89      1.0000 0.30200  0.08240  0.89940  Biso   1.000  C
  C90      1.0000 0.19800  0.58240  0.60060  Biso   1.000  C
  C91      1.0000 0.69800  0.91760  0.10060  Biso   1.000  C
  C92      1.0000 0.80200  0.41760  0.39940  Biso   1.000  C
  C93      1.0000 0.16260  0.08680  0.89710  Biso   1.000  C
  C94      1.0000 0.33740  0.58680  0.60290  Biso   1.000  C
  C95      1.0000 0.83740  0.91320  0.10290  Biso   1.000  C
  C96      1.0000 0.66260  0.41320  0.39710  Biso   1.000  C
  O17      1.0000 0.12410  0.14943  0.93219  Biso   1.000  O
  O18      1.0000 0.37590  0.64943  0.56781  Biso   1.000  O
  O19      1.0000 0.87590  0.85057  0.06781  Biso   1.000  O
  O20      1.0000 0.62410  0.35057  0.43219  Biso   1.000  O
  O21      1.0000 0.09000  0.02871  0.86041  Biso   1.000  O
  O22      1.0000 0.41000  0.52871  0.63959  Biso   1.000  O
  O23      1.0000 0.91000  0.97129  0.13959  Biso   1.000  O
  O24      1.0000 0.59000  0.47129  0.36041  Biso   1.000  O
  C97      1.0000 0.34850  0.01230  0.86940  Biso   1.000  C
  C98      1.0000 0.15150  0.51230  0.63060  Biso   1.000  C
  C99      1.0000 0.65150  0.98770  0.13060  Biso   1.000  C
  C100     1.0000 0.84850  0.48770  0.36940  Biso   1.000  C
  H65      1.0000 0.29260  0.96960  0.84470  Biso   1.000  H
  H66      1.0000 0.20740  0.46960  0.65530  Biso   1.000  H
  H67      1.0000 0.70740  0.03040  0.15530  Biso   1.000  H
  H68      1.0000 0.79260  0.53040  0.34470  Biso   1.000  H
  C101     1.0000 0.47860  0.00550  0.87590  Biso   1.000  C
  C102     1.0000 0.02140  0.50550  0.62410  Biso   1.000  C
  C103     1.0000 0.52140  0.99450  0.12410  Biso   1.000  C
  C104     1.0000 0.97860  0.49450  0.37590  Biso   1.000  C
  H69      1.0000 0.50890  0.95820  0.85540  Biso   1.000  H
  H70      1.0000 0.99110  0.45820  0.64460  Biso   1.000  H
  H71      1.0000 0.49110  0.04180  0.14460  Biso   1.000  H
  H72      1.0000 0.00890  0.54180  0.35540  Biso   1.000  H
  O25      1.0000 0.03060  0.08213  0.06960  Biso   1.000  O
  O26      1.0000 0.46940  0.58213  0.43040  Biso   1.000  O
  O27      1.0000 0.96940  0.91787  0.93040  Biso   1.000  O
  O28      1.0000 0.53060  0.41787  0.56960  Biso   1.000  O
  O29      1.0000 0.61490  0.93200  0.70890  Biso   1.000  O
  O30      1.0000 0.88510  0.43200  0.79110  Biso   1.000  O
  O31      1.0000 0.38510  0.06800  0.29110  Biso   1.000  O
  O32      1.0000 0.11490  0.56800  0.20890  Biso   1.000  O
  O33      1.0000 0.40650  0.83540  0.73330  Biso   1.000  O
  O34      1.0000 0.09350  0.33540  0.76670  Biso   1.000  O
  O35      1.0000 0.59350  0.16460  0.26670  Biso   1.000  O
  O36      1.0000 0.90650  0.66460  0.23330  Biso   1.000  O
  H73      1.0000 0.09500  0.05800  0.07300  Biso   1.000  H
  H74      1.0000 0.40500  0.55800  0.42700  Biso   1.000  H
  H75      1.0000 0.90500  0.94200  0.92700  Biso   1.000  H
  H76      1.0000 0.59500  0.44200  0.57300  Biso   1.000  H
  H77      1.0000 0.97900  0.04800  0.08500  Biso   1.000  H
  H78      1.0000 0.52100  0.54800  0.41500  Biso   1.000  H
  H79      1.0000 0.02100  0.95200  0.91500  Biso   1.000  H
  H80      1.0000 0.47900  0.45200  0.58500  Biso   1.000  H
  H81      1.0000 0.65400  0.95100  0.76900  Biso   1.000  H
  H82      1.0000 0.84600  0.45100  0.73100  Biso   1.000  H
  H83      1.0000 0.34600  0.04900  0.23100  Biso   1.000  H
  H84      1.0000 0.15400  0.54900  0.26900  Biso   1.000  H
  H85      1.0000 0.55500  0.89900  0.71100  Biso   1.000  H
  H86      1.0000 0.94500  0.39900  0.78900  Biso   1.000  H
  H87      1.0000 0.44500  0.10100  0.28900  Biso   1.000  H
  H88      1.0000 0.05500  0.60100  0.21100  Biso   1.000  H
  H89      1.0000 0.37700  0.79100  0.75100  Biso   1.000  H
  H90      1.0000 0.12300  0.29100  0.74900  Biso   1.000  H
  H91      1.0000 0.62300  0.20900  0.24900  Biso   1.000  H
  H92      1.0000 0.87700  0.70900  0.25100  Biso   1.000  H
  H93      1.0000 0.34900  0.83400  0.66700  Biso   1.000  H
  H94      1.0000 0.15100  0.33400  0.83300  Biso   1.000  H
  H95      1.0000 0.65100  0.16600  0.33300  Biso   1.000  H
  H96      1.0000 0.84900  0.66600  0.16700  Biso   1.000  H
