data_image0
_cell_length_a       9.5535
_cell_length_b       8.5649
_cell_length_c       9.4012
_cell_angle_alpha    90
_cell_angle_beta     106.289
_cell_angle_gamma    90

_symmetry_space_group_name_H-M    "P 1"
_symmetry_int_tables_number       1

loop_
  _symmetry_equiv_pos_as_xyz
  'x, y, z'

loop_
  _atom_site_label
  _atom_site_occupancy
  _atom_site_fract_x
  _atom_site_fract_y
  _atom_site_fract_z
  _atom_site_thermal_displace_type
  _atom_site_B_iso_or_equiv
  _atom_site_type_symbol
  Cu1      1.0000 0.00000  0.00000  0.00000  Biso   1.000  Cu
  Cu2      1.0000 0.00000  0.50000  0.50000  Biso   1.000  Cu
  C1       1.0000 0.31160  0.05920  0.99890  Biso   1.000  C
  C2       1.0000 0.68840  0.55920  0.50110  Biso   1.000  C
  C3       1.0000 0.68840  0.94080  0.00110  Biso   1.000  C
  C4       1.0000 0.31160  0.44080  0.49890  Biso   1.000  C
  H1       1.0000 0.31510  0.96510  0.95070  Biso   1.000  H
  H2       1.0000 0.68490  0.46510  0.54930  Biso   1.000  H
  H3       1.0000 0.68490  0.03490  0.04930  Biso   1.000  H
  H4       1.0000 0.31510  0.53490  0.45070  Biso   1.000  H
  C5       1.0000 0.23100  0.24720  0.09790  Biso   1.000  C
  C6       1.0000 0.76900  0.74720  0.40210  Biso   1.000  C
  C7       1.0000 0.76900  0.75280  0.90210  Biso   1.000  C
  C8       1.0000 0.23100  0.25280  0.59790  Biso   1.000  C
  H5       1.0000 0.17180  0.31340  0.13410  Biso   1.000  H
  H6       1.0000 0.82820  0.81340  0.36590  Biso   1.000  H
  H7       1.0000 0.82820  0.68660  0.86590  Biso   1.000  H
  H8       1.0000 0.17180  0.18660  0.63410  Biso   1.000  H
  C9       1.0000 0.46470  0.40280  0.17350  Biso   1.000  C
  C10      1.0000 0.53530  0.90280  0.32650  Biso   1.000  C
  C11      1.0000 0.53530  0.59720  0.82650  Biso   1.000  C
  C12      1.0000 0.46470  0.09720  0.67350  Biso   1.000  C
  H9       1.0000 0.53310  0.36630  0.26440  Biso   1.000  H
  H10      1.0000 0.46690  0.86630  0.23560  Biso   1.000  H
  H11      1.0000 0.46690  0.63370  0.73560  Biso   1.000  H
  H12      1.0000 0.53310  0.13370  0.76440  Biso   1.000  H
  H13      1.0000 0.40630  0.48500  0.19910  Biso   1.000  H
  H14      1.0000 0.59370  0.98500  0.30090  Biso   1.000  H
  H15      1.0000 0.59370  0.51500  0.80090  Biso   1.000  H
  H16      1.0000 0.40630  0.01500  0.69910  Biso   1.000  H
  C13      1.0000 0.54890  0.46880  0.07220  Biso   1.000  C
  C14      1.0000 0.45110  0.96880  0.42780  Biso   1.000  C
  C15      1.0000 0.45110  0.53120  0.92780  Biso   1.000  C
  C16      1.0000 0.54890  0.03120  0.57220  Biso   1.000  C
  H17      1.0000 0.61160  0.55230  0.12350  Biso   1.000  H
  H18      1.0000 0.38840  0.05230  0.37650  Biso   1.000  H
  H19      1.0000 0.38840  0.44770  0.87650  Biso   1.000  H
  H20      1.0000 0.61160  0.94770  0.62350  Biso   1.000  H
  H21      1.0000 0.61070  0.38760  0.05070  Biso   1.000  H
  H22      1.0000 0.38930  0.88760  0.44930  Biso   1.000  H
  H23      1.0000 0.38930  0.61240  0.94930  Biso   1.000  H
  H24      1.0000 0.61070  0.11240  0.55070  Biso   1.000  H
  C17      1.0000 0.92780  0.12990  0.27540  Biso   1.000  C
  C18      1.0000 0.07220  0.62990  0.22460  Biso   1.000  C
  C19      1.0000 0.07220  0.87010  0.72460  Biso   1.000  C
  C20      1.0000 0.92780  0.37010  0.77540  Biso   1.000  C
  N1       1.0000 0.19010  0.11070  0.03130  Biso   1.000  N
  N2       1.0000 0.80990  0.61070  0.46870  Biso   1.000  N
  N3       1.0000 0.80990  0.88930  0.96870  Biso   1.000  N
  N4       1.0000 0.19010  0.38930  0.53130  Biso   1.000  N
  N5       1.0000 0.36940  0.27380  0.10460  Biso   1.000  N
  N6       1.0000 0.63060  0.77380  0.39540  Biso   1.000  N
  N7       1.0000 0.63060  0.72620  0.89540  Biso   1.000  N
  N8       1.0000 0.36940  0.22620  0.60460  Biso   1.000  N
  N9       1.0000 0.42360  0.15310  0.04110  Biso   1.000  N
  N10      1.0000 0.57640  0.65310  0.45890  Biso   1.000  N
  N11      1.0000 0.57640  0.84690  0.95890  Biso   1.000  N
  N12      1.0000 0.42360  0.34690  0.54110  Biso   1.000  N
  N13      1.0000 0.98380  0.07600  0.19280  Biso   1.000  N
  N14      1.0000 0.01620  0.57600  0.30720  Biso   1.000  N
  N15      1.0000 0.01620  0.92400  0.80720  Biso   1.000  N
  N16      1.0000 0.98380  0.42400  0.69280  Biso   1.000  N
  S1       1.0000 0.84902  0.19922  0.39501  Biso   1.000  S
  S2       1.0000 0.15098  0.69922  0.10499  Biso   1.000  S
  S3       1.0000 0.15098  0.80078  0.60499  Biso   1.000  S
  S4       1.0000 0.84902  0.30078  0.89501  Biso   1.000  S
