data_image0
_cell_length_a       6.0103
_cell_length_b       14.1095
_cell_length_c       14.5486
_cell_angle_alpha    90
_cell_angle_beta     99.379
_cell_angle_gamma    90

_symmetry_space_group_name_H-M    "P 1"
_symmetry_int_tables_number       1

loop_
  _symmetry_equiv_pos_as_xyz
  'x, y, z'

loop_
  _atom_site_label
  _atom_site_occupancy
  _atom_site_fract_x
  _atom_site_fract_y
  _atom_site_fract_z
  _atom_site_thermal_displace_type
  _atom_site_B_iso_or_equiv
  _atom_site_type_symbol
  C1       1.0000 0.59020  0.74820  0.96090  Biso   1.000  C
  C2       1.0000 0.90980  0.24820  0.53910  Biso   1.000  C
  C3       1.0000 0.40980  0.25180  0.03910  Biso   1.000  C
  C4       1.0000 0.09020  0.75180  0.46090  Biso   1.000  C
  C5       1.0000 0.70880  0.82350  0.92762  Biso   1.000  C
  C6       1.0000 0.79120  0.32350  0.57238  Biso   1.000  C
  C7       1.0000 0.29120  0.17650  0.07238  Biso   1.000  C
  C8       1.0000 0.20880  0.67650  0.42762  Biso   1.000  C
  C9       1.0000 0.61310  0.64320  0.94720  Biso   1.000  C
  C10      1.0000 0.88690  0.14320  0.55280  Biso   1.000  C
  C11      1.0000 0.38690  0.35680  0.05280  Biso   1.000  C
  C12      1.0000 0.11310  0.85680  0.44720  Biso   1.000  C
  H1       1.0000 0.76520  0.62280  0.97480  Biso   1.000  H
  H2       1.0000 0.73480  0.12280  0.52520  Biso   1.000  H
  H3       1.0000 0.23480  0.37720  0.02520  Biso   1.000  H
  H4       1.0000 0.26520  0.87720  0.47480  Biso   1.000  H
  H5       1.0000 0.58700  0.62870  0.88040  Biso   1.000  H
  H6       1.0000 0.91300  0.12870  0.61960  Biso   1.000  H
  H7       1.0000 0.41300  0.37130  0.11960  Biso   1.000  H
  H8       1.0000 0.08700  0.87130  0.38040  Biso   1.000  H
  H9       1.0000 0.50190  0.60950  0.97740  Biso   1.000  H
  H10      1.0000 0.99810  0.10950  0.52260  Biso   1.000  H
  H11      1.0000 0.49810  0.39050  0.02260  Biso   1.000  H
  H12      1.0000 0.00190  0.89050  0.47740  Biso   1.000  H
  C13      1.0000 0.44340  0.79440  0.01190  Biso   1.000  C
  C14      1.0000 0.05660  0.29440  0.48810  Biso   1.000  C
  C15      1.0000 0.55660  0.20560  0.98810  Biso   1.000  C
  C16      1.0000 0.94340  0.70560  0.51190  Biso   1.000  C
  C17      1.0000 0.26660  0.76530  0.06510  Biso   1.000  C
  C18      1.0000 0.23340  0.26530  0.43490  Biso   1.000  C
  C19      1.0000 0.73340  0.23470  0.93490  Biso   1.000  C
  C20      1.0000 0.76660  0.73470  0.56510  Biso   1.000  C
  C21      1.0000 0.22490  0.66450  0.08880  Biso   1.000  C
  C22      1.0000 0.27510  0.16450  0.41120  Biso   1.000  C
  C23      1.0000 0.77510  0.33550  0.91120  Biso   1.000  C
  C24      1.0000 0.72490  0.83550  0.58880  Biso   1.000  C
  H13      1.0000 0.17690  0.62860  0.03140  Biso   1.000  H
  H14      1.0000 0.32310  0.12860  0.46860  Biso   1.000  H
  H15      1.0000 0.82310  0.37140  0.96860  Biso   1.000  H
  H16      1.0000 0.67690  0.87140  0.53140  Biso   1.000  H
  H17      1.0000 0.36400  0.63690  0.12280  Biso   1.000  H
  H18      1.0000 0.13600  0.13690  0.37720  Biso   1.000  H
  H19      1.0000 0.63600  0.36310  0.87720  Biso   1.000  H
  H20      1.0000 0.86400  0.86310  0.62280  Biso   1.000  H
  H21      1.0000 0.10650  0.66200  0.12780  Biso   1.000  H
  H22      1.0000 0.39350  0.16200  0.37220  Biso   1.000  H
  H23      1.0000 0.89350  0.33800  0.87220  Biso   1.000  H
  H24      1.0000 0.60650  0.83800  0.62780  Biso   1.000  H
  C25      1.0000 0.88430  0.82320  0.86940  Biso   1.000  C
  C26      1.0000 0.61570  0.32320  0.63060  Biso   1.000  C
  C27      1.0000 0.11570  0.17680  0.13060  Biso   1.000  C
  C28      1.0000 0.38430  0.67680  0.36940  Biso   1.000  C
  C29      1.0000 0.93290  0.73800  0.81600  Biso   1.000  C
  C30      1.0000 0.56710  0.23800  0.68400  Biso   1.000  C
  C31      1.0000 0.06710  0.26200  0.18400  Biso   1.000  C
  C32      1.0000 0.43290  0.76200  0.31600  Biso   1.000  C
  H25      1.0000 0.04220  0.75430  0.77540  Biso   1.000  H
  H26      1.0000 0.45780  0.25430  0.72460  Biso   1.000  H
  H27      1.0000 0.95780  0.24570  0.22460  Biso   1.000  H
  H28      1.0000 0.54220  0.74570  0.27540  Biso   1.000  H
  H29      1.0000 0.79310  0.71550  0.77800  Biso   1.000  H
  H30      1.0000 0.70690  0.21550  0.72200  Biso   1.000  H
  H31      1.0000 0.20690  0.28450  0.22200  Biso   1.000  H
  H32      1.0000 0.29310  0.78450  0.27800  Biso   1.000  H
  H33      1.0000 0.99530  0.68800  0.85940  Biso   1.000  H
  H34      1.0000 0.50470  0.18800  0.64060  Biso   1.000  H
  H35      1.0000 0.00470  0.31200  0.14060  Biso   1.000  H
  H36      1.0000 0.49530  0.81200  0.35940  Biso   1.000  H
  Cl1      1.0000 0.60735  0.99988  0.28414  Biso   1.000  Cl
  Cl2      1.0000 0.89265  0.49988  0.21586  Biso   1.000  Cl
  Cl3      1.0000 0.39265  0.00012  0.71586  Biso   1.000  Cl
  Cl4      1.0000 0.10735  0.50012  0.78414  Biso   1.000  Cl
  Cu1      1.0000 0.25665  0.96710  0.06052  Biso   1.000  Cu
  Cu2      1.0000 0.24335  0.46710  0.43948  Biso   1.000  Cu
  Cu3      1.0000 0.74335  0.03290  0.93948  Biso   1.000  Cu
  Cu4      1.0000 0.75665  0.53290  0.56052  Biso   1.000  Cu
  H37      1.0000 0.10700  0.89400  0.82300  Biso   1.000  H
  H38      1.0000 0.39300  0.39400  0.67700  Biso   1.000  H
  H39      1.0000 0.89300  0.10600  0.17700  Biso   1.000  H
  H40      1.0000 0.60700  0.60600  0.32300  Biso   1.000  H
  H41      1.0000 0.92800  0.86900  0.16400  Biso   1.000  H
  H42      1.0000 0.57200  0.36900  0.33600  Biso   1.000  H
  H43      1.0000 0.07200  0.13100  0.83600  Biso   1.000  H
  H44      1.0000 0.42800  0.63100  0.66400  Biso   1.000  H
  N1       1.0000 0.47550  0.88953  0.00904  Biso   1.000  N
  N2       1.0000 0.02450  0.38953  0.49096  Biso   1.000  N
  N3       1.0000 0.52450  0.11047  0.99096  Biso   1.000  N
  N4       1.0000 0.97550  0.61047  0.50904  Biso   1.000  N
  N5       1.0000 0.63570  0.90779  0.95830  Biso   1.000  N
  N6       1.0000 0.86430  0.40779  0.54170  Biso   1.000  N
  N7       1.0000 0.36430  0.09221  0.04170  Biso   1.000  N
  N8       1.0000 0.13570  0.59221  0.45830  Biso   1.000  N
  N9       1.0000 0.15740  0.83702  0.08928  Biso   1.000  N
  N10      1.0000 0.34260  0.33702  0.41072  Biso   1.000  N
  N11      1.0000 0.84260  0.16298  0.91072  Biso   1.000  N
  N12      1.0000 0.65740  0.66298  0.58928  Biso   1.000  N
  N13      1.0000 0.00810  0.89628  0.85965  Biso   1.000  N
  N14      1.0000 0.49190  0.39628  0.64035  Biso   1.000  N
  N15      1.0000 0.99190  0.10372  0.14035  Biso   1.000  N
  N16      1.0000 0.50810  0.60372  0.35965  Biso   1.000  N
  O1       1.0000 0.98940  0.81829  0.14206  Biso   1.000  O
  O2       1.0000 0.51060  0.31829  0.35794  Biso   1.000  O
  O3       1.0000 0.01060  0.18171  0.85794  Biso   1.000  O
  O4       1.0000 0.48940  0.68171  0.64206  Biso   1.000  O
  O5       1.0000 0.01370  0.97904  0.90463  Biso   1.000  O
  O6       1.0000 0.48630  0.47904  0.59537  Biso   1.000  O
  O7       1.0000 0.98630  0.02096  0.09537  Biso   1.000  O
  O8       1.0000 0.51370  0.52096  0.40463  Biso   1.000  O
  O9       1.0000 0.67890  0.09581  0.26606  Biso   1.000  O
  O10      1.0000 0.82110  0.59581  0.23394  Biso   1.000  O
  O11      1.0000 0.32110  0.90419  0.73394  Biso   1.000  O
  O12      1.0000 0.17890  0.40419  0.76606  Biso   1.000  O
  O13      1.0000 0.61850  0.98615  0.38203  Biso   1.000  O
  O14      1.0000 0.88150  0.48615  0.11797  Biso   1.000  O
  O15      1.0000 0.38150  0.01385  0.61797  Biso   1.000  O
  O16      1.0000 0.11850  0.51385  0.88203  Biso   1.000  O
  O17      1.0000 0.74990  0.93335  0.24763  Biso   1.000  O
  O18      1.0000 0.75010  0.43335  0.25237  Biso   1.000  O
  O19      1.0000 0.25010  0.06665  0.75237  Biso   1.000  O
  O20      1.0000 0.24990  0.56665  0.74763  Biso   1.000  O
  O21      1.0000 0.37830  0.98745  0.23845  Biso   1.000  O
  O22      1.0000 0.12170  0.48745  0.26155  Biso   1.000  O
  O23      1.0000 0.62170  0.01255  0.76155  Biso   1.000  O
  O24      1.0000 0.87830  0.51255  0.73845  Biso   1.000  O
