data_image0
_cell_length_a       5.9943
_cell_length_b       13.8734
_cell_length_c       14.4575
_cell_angle_alpha    90
_cell_angle_beta     98.793
_cell_angle_gamma    90

_symmetry_space_group_name_H-M    "P 1"
_symmetry_int_tables_number       1

loop_
  _symmetry_equiv_pos_as_xyz
  'x, y, z'

loop_
  _atom_site_label
  _atom_site_occupancy
  _atom_site_fract_x
  _atom_site_fract_y
  _atom_site_fract_z
  _atom_site_thermal_displace_type
  _atom_site_B_iso_or_equiv
  _atom_site_type_symbol
  F1       1.0000 0.68000  0.40577  0.76484  Biso   1.000  F
  F2       1.0000 0.82000  0.90577  0.73516  Biso   1.000  F
  F3       1.0000 0.32000  0.59423  0.23516  Biso   1.000  F
  F4       1.0000 0.18000  0.09423  0.26484  Biso   1.000  F
  F5       1.0000 0.61900  0.51536  0.87606  Biso   1.000  F
  F6       1.0000 0.88100  0.01536  0.62394  Biso   1.000  F
  F7       1.0000 0.38100  0.48464  0.12394  Biso   1.000  F
  F8       1.0000 0.11900  0.98464  0.37606  Biso   1.000  F
  F9       1.0000 0.38570  0.51074  0.73704  Biso   1.000  F
  F10      1.0000 0.11430  0.01074  0.76296  Biso   1.000  F
  F11      1.0000 0.61430  0.48926  0.26296  Biso   1.000  F
  F12      1.0000 0.88570  0.98926  0.23704  Biso   1.000  F
  F13      1.0000 0.74280  0.56568  0.74322  Biso   1.000  F
  F14      1.0000 0.75720  0.06568  0.75678  Biso   1.000  F
  F15      1.0000 0.25720  0.43432  0.25678  Biso   1.000  F
  F16      1.0000 0.24280  0.93432  0.24322  Biso   1.000  F
  B1       1.0000 0.60650  0.50040  0.78080  Biso   1.000  B
  B2       1.0000 0.89350  0.00040  0.71920  Biso   1.000  B
  B3       1.0000 0.39350  0.49960  0.21920  Biso   1.000  B
  B4       1.0000 0.10650  0.99960  0.28080  Biso   1.000  B
  C1       1.0000 0.58870  0.75621  0.45975  Biso   1.000  C
  C2       1.0000 0.91130  0.25621  0.04025  Biso   1.000  C
  C3       1.0000 0.41130  0.24379  0.54025  Biso   1.000  C
  C4       1.0000 0.08870  0.74379  0.95975  Biso   1.000  C
  C5       1.0000 0.70940  0.67951  0.42707  Biso   1.000  C
  C6       1.0000 0.79060  0.17951  0.07293  Biso   1.000  C
  C7       1.0000 0.29060  0.32049  0.57293  Biso   1.000  C
  C8       1.0000 0.20940  0.82049  0.92707  Biso   1.000  C
  C9       1.0000 0.61120  0.86309  0.44579  Biso   1.000  C
  C10      1.0000 0.88880  0.36309  0.05421  Biso   1.000  C
  C11      1.0000 0.38880  0.13691  0.55421  Biso   1.000  C
  C12      1.0000 0.11120  0.63691  0.94579  Biso   1.000  C
  H1       1.0000 0.57490  0.87830  0.37900  Biso   1.000  H
  H2       1.0000 0.92510  0.37830  0.12100  Biso   1.000  H
  H3       1.0000 0.42510  0.12170  0.62100  Biso   1.000  H
  H4       1.0000 0.07490  0.62170  0.87900  Biso   1.000  H
  H5       1.0000 0.76640  0.88310  0.46900  Biso   1.000  H
  H6       1.0000 0.73360  0.38310  0.03100  Biso   1.000  H
  H7       1.0000 0.23360  0.11690  0.53100  Biso   1.000  H
  H8       1.0000 0.26640  0.61690  0.96900  Biso   1.000  H
  H9       1.0000 0.50700  0.89740  0.48020  Biso   1.000  H
  H10      1.0000 0.99300  0.39740  0.01980  Biso   1.000  H
  H11      1.0000 0.49300  0.10260  0.51980  Biso   1.000  H
  H12      1.0000 0.00700  0.60260  0.98020  Biso   1.000  H
  C13      1.0000 0.44070  0.70902  0.51130  Biso   1.000  C
  C14      1.0000 0.05930  0.20902  0.98870  Biso   1.000  C
  C15      1.0000 0.55930  0.29098  0.48870  Biso   1.000  C
  C16      1.0000 0.94070  0.79098  0.01130  Biso   1.000  C
  C17      1.0000 0.26170  0.73854  0.56444  Biso   1.000  C
  C18      1.0000 0.23830  0.23854  0.93556  Biso   1.000  C
  C19      1.0000 0.73830  0.26146  0.43556  Biso   1.000  C
  C20      1.0000 0.76170  0.76146  0.06444  Biso   1.000  C
  C21      1.0000 0.21760  0.84111  0.58787  Biso   1.000  C
  C22      1.0000 0.28240  0.34111  0.91213  Biso   1.000  C
  C23      1.0000 0.78240  0.15889  0.41213  Biso   1.000  C
  C24      1.0000 0.71760  0.65889  0.08787  Biso   1.000  C
  H13      1.0000 0.17020  0.87740  0.53000  Biso   1.000  H
  H14      1.0000 0.32980  0.37740  0.97000  Biso   1.000  H
  H15      1.0000 0.82980  0.12260  0.47000  Biso   1.000  H
  H16      1.0000 0.67020  0.62260  0.03000  Biso   1.000  H
  H17      1.0000 0.35580  0.86970  0.62190  Biso   1.000  H
  H18      1.0000 0.14420  0.36970  0.87810  Biso   1.000  H
  H19      1.0000 0.64420  0.13030  0.37810  Biso   1.000  H
  H20      1.0000 0.85580  0.63030  0.12190  Biso   1.000  H
  H21      1.0000 0.09790  0.84350  0.62700  Biso   1.000  H
  H22      1.0000 0.40210  0.34350  0.87300  Biso   1.000  H
  H23      1.0000 0.90210  0.15650  0.37300  Biso   1.000  H
  H24      1.0000 0.59790  0.65650  0.12700  Biso   1.000  H
  C25      1.0000 0.88580  0.67938  0.36810  Biso   1.000  C
  C26      1.0000 0.61420  0.17938  0.13190  Biso   1.000  C
  C27      1.0000 0.11420  0.32062  0.63190  Biso   1.000  C
  C28      1.0000 0.38580  0.82062  0.86810  Biso   1.000  C
  C29      1.0000 0.93420  0.76696  0.31390  Biso   1.000  C
  C30      1.0000 0.56580  0.26696  0.18610  Biso   1.000  C
  C31      1.0000 0.06580  0.23304  0.68610  Biso   1.000  C
  C32      1.0000 0.43420  0.73304  0.81390  Biso   1.000  C
  H25      1.0000 0.04000  0.75010  0.27110  Biso   1.000  H
  H26      1.0000 0.46000  0.25010  0.22890  Biso   1.000  H
  H27      1.0000 0.96000  0.24990  0.72890  Biso   1.000  H
  H28      1.0000 0.54000  0.74990  0.77110  Biso   1.000  H
  H29      1.0000 0.00090  0.81710  0.35730  Biso   1.000  H
  H30      1.0000 0.49910  0.31710  0.14270  Biso   1.000  H
  H31      1.0000 0.99910  0.18290  0.64270  Biso   1.000  H
  H32      1.0000 0.50090  0.68290  0.85730  Biso   1.000  H
  H33      1.0000 0.79330  0.79090  0.27790  Biso   1.000  H
  H34      1.0000 0.70670  0.29090  0.22210  Biso   1.000  H
  H35      1.0000 0.20670  0.20910  0.72210  Biso   1.000  H
  H36      1.0000 0.29330  0.70910  0.77790  Biso   1.000  H
  Cu1      1.0000 0.25401  0.53333  0.56032  Biso   1.000  Cu
  Cu2      1.0000 0.24599  0.03333  0.93968  Biso   1.000  Cu
  Cu3      1.0000 0.74599  0.46667  0.43968  Biso   1.000  Cu
  Cu4      1.0000 0.75401  0.96667  0.06032  Biso   1.000  Cu
  H37      1.0000 0.11600  0.60900  0.31500  Biso   1.000  H
  H38      1.0000 0.38400  0.10900  0.18500  Biso   1.000  H
  H39      1.0000 0.88400  0.39100  0.68500  Biso   1.000  H
  H40      1.0000 0.61600  0.89100  0.81500  Biso   1.000  H
  H41      1.0000 0.92900  0.62900  0.67100  Biso   1.000  H
  H42      1.0000 0.57100  0.12900  0.82900  Biso   1.000  H
  H43      1.0000 0.07100  0.37100  0.32900  Biso   1.000  H
  H44      1.0000 0.42900  0.87100  0.17100  Biso   1.000  H
  N1       1.0000 0.47320  0.61223  0.50843  Biso   1.000  N
  N2       1.0000 0.02680  0.11223  0.99157  Biso   1.000  N
  N3       1.0000 0.52680  0.38777  0.49157  Biso   1.000  N
  N4       1.0000 0.97320  0.88777  0.00843  Biso   1.000  N
  N5       1.0000 0.63530  0.59386  0.45802  Biso   1.000  N
  N6       1.0000 0.86470  0.09386  0.04198  Biso   1.000  N
  N7       1.0000 0.36470  0.40614  0.54198  Biso   1.000  N
  N8       1.0000 0.13530  0.90614  0.95802  Biso   1.000  N
  N9       1.0000 0.15260  0.66516  0.58967  Biso   1.000  N
  N10      1.0000 0.34740  0.16516  0.91033  Biso   1.000  N
  N11      1.0000 0.84740  0.33484  0.41033  Biso   1.000  N
  N12      1.0000 0.65260  0.83484  0.08967  Biso   1.000  N
  N13      1.0000 0.01090  0.60501  0.35830  Biso   1.000  N
  N14      1.0000 0.48910  0.10501  0.14170  Biso   1.000  N
  N15      1.0000 0.98910  0.39499  0.64170  Biso   1.000  N
  N16      1.0000 0.51090  0.89499  0.85830  Biso   1.000  N
  O1       1.0000 0.98370  0.68435  0.64264  Biso   1.000  O
  O2       1.0000 0.51630  0.18435  0.85736  Biso   1.000  O
  O3       1.0000 0.01630  0.31565  0.35736  Biso   1.000  O
  O4       1.0000 0.48370  0.81565  0.14264  Biso   1.000  O
  O5       1.0000 0.01590  0.52143  0.40367  Biso   1.000  O
  O6       1.0000 0.48410  0.02143  0.09633  Biso   1.000  O
  O7       1.0000 0.98410  0.47857  0.59633  Biso   1.000  O
  O8       1.0000 0.51590  0.97857  0.90367  Biso   1.000  O
