data_image0
_cell_length_a       6.0192
_cell_length_b       9.7767
_cell_length_c       12.6325
_cell_angle_alpha    95.15
_cell_angle_beta     91.284
_cell_angle_gamma    106.387

_symmetry_space_group_name_H-M    "P 1"
_symmetry_int_tables_number       1

loop_
  _symmetry_equiv_pos_as_xyz
  'x, y, z'

loop_
  _atom_site_label
  _atom_site_occupancy
  _atom_site_fract_x
  _atom_site_fract_y
  _atom_site_fract_z
  _atom_site_thermal_displace_type
  _atom_site_B_iso_or_equiv
  _atom_site_type_symbol
  C1       1.0000 0.34020  0.73550  0.19056  Biso   1.000  C
  C2       1.0000 0.65980  0.26450  0.80944  Biso   1.000  C
  C3       1.0000 0.23940  0.84830  0.17852  Biso   1.000  C
  C4       1.0000 0.76060  0.15170  0.82148  Biso   1.000  C
  C5       1.0000 0.29450  0.62730  0.27130  Biso   1.000  C
  C6       1.0000 0.70550  0.37270  0.72870  Biso   1.000  C
  H1       1.0000 0.31790  0.53750  0.23960  Biso   1.000  H
  H2       1.0000 0.68210  0.46250  0.76040  Biso   1.000  H
  H3       1.0000 0.13440  0.60960  0.29300  Biso   1.000  H
  H4       1.0000 0.86560  0.39040  0.70700  Biso   1.000  H
  H5       1.0000 0.40140  0.66450  0.33360  Biso   1.000  H
  H6       1.0000 0.59860  0.33550  0.66640  Biso   1.000  H
  C7       1.0000 0.49360  0.74760  0.10934  Biso   1.000  C
  C8       1.0000 0.50640  0.25240  0.89066  Biso   1.000  C
  C9       1.0000 0.66500  0.67320  0.07292  Biso   1.000  C
  C10      1.0000 0.33500  0.32680  0.92708  Biso   1.000  C
  C11      1.0000 0.69770  0.54560  0.12068  Biso   1.000  C
  C12      1.0000 0.30230  0.45440  0.87932  Biso   1.000  C
  H7       1.0000 0.80000  0.50420  0.07720  Biso   1.000  H
  H8       1.0000 0.20000  0.49580  0.92280  Biso   1.000  H
  H9       1.0000 0.54710  0.47400  0.12330  Biso   1.000  H
  H10      1.0000 0.45290  0.52600  0.87670  Biso   1.000  H
  H11      1.0000 0.76760  0.57470  0.19300  Biso   1.000  H
  H12      1.0000 0.23240  0.42530  0.80700  Biso   1.000  H
  C13      1.0000 0.07540  0.89790  0.24299  Biso   1.000  C
  C14      1.0000 0.92460  0.10210  0.75701  Biso   1.000  C
  C15      1.0000 0.02480  0.85710  0.35310  Biso   1.000  C
  C16      1.0000 0.97520  0.14290  0.64690  Biso   1.000  C
  H13      1.0000 0.94400  0.75450  0.34980  Biso   1.000  H
  H14      1.0000 0.05600  0.24550  0.65020  Biso   1.000  H
  H15      1.0000 0.17050  0.87780  0.39580  Biso   1.000  H
  H16      1.0000 0.82950  0.12220  0.60420  Biso   1.000  H
  H17      1.0000 0.92660  0.91220  0.38580  Biso   1.000  H
  H18      1.0000 0.07340  0.08780  0.61420  Biso   1.000  H
  C17      1.0000 0.36120  0.66620  0.59380  Biso   1.000  C
  C18      1.0000 0.63880  0.33380  0.40620  Biso   1.000  C
  Cu1      1.0000 0.72538  0.91071  0.95150  Biso   1.000  Cu
  Cu2      1.0000 0.27462  0.08929  0.04850  Biso   1.000  Cu
  F1       1.0000 0.55050  0.72140  0.54214  Biso   1.000  F
  F2       1.0000 0.44950  0.27860  0.45786  Biso   1.000  F
  F3       1.0000 0.35570  0.53242  0.61080  Biso   1.000  F
  F4       1.0000 0.64430  0.46758  0.38920  Biso   1.000  F
  F5       1.0000 0.17670  0.65897  0.53116  Biso   1.000  F
  F6       1.0000 0.82330  0.34103  0.46884  Biso   1.000  F
  H19      1.0000 0.88000  0.00500  0.25200  Biso   1.000  H
  H20      1.0000 0.12000  0.99500  0.74800  Biso   1.000  H
  H21      1.0000 0.00000  0.70900  0.89900  Biso   1.000  H
  H22      1.0000 0.00000  0.29100  0.10100  Biso   1.000  H
  N1       1.0000 0.48420  0.85800  0.05275  Biso   1.000  N
  N2       1.0000 0.51580  0.14200  0.94725  Biso   1.000  N
  N3       1.0000 0.33090  0.91865  0.09470  Biso   1.000  N
  N4       1.0000 0.66910  0.08135  0.90530  Biso   1.000  N
  N5       1.0000 0.78090  0.73174  0.99640  Biso   1.000  N
  N6       1.0000 0.21910  0.26826  0.00360  Biso   1.000  N
  N7       1.0000 0.96910  0.98622  0.21009  Biso   1.000  N
  N8       1.0000 0.03090  0.01378  0.78991  Biso   1.000  N
  O1       1.0000 0.94000  0.66562  0.95526  Biso   1.000  O
  O2       1.0000 0.06000  0.33438  0.04474  Biso   1.000  O
  O3       1.0000 0.98310  0.04140  0.11698  Biso   1.000  O
  O4       1.0000 0.01690  0.95860  0.88302  Biso   1.000  O
  O5       1.0000 0.36030  0.91221  0.68403  Biso   1.000  O
  O6       1.0000 0.63970  0.08779  0.31597  Biso   1.000  O
  O7       1.0000 0.14380  0.69913  0.76335  Biso   1.000  O
  O8       1.0000 0.85620  0.30087  0.23665  Biso   1.000  O
  O9       1.0000 0.56650  0.77297  0.77728  Biso   1.000  O
  O10      1.0000 0.43350  0.22703  0.22272  Biso   1.000  O
  S1       1.0000 0.35777  0.77422  0.71923  Biso   1.000  S
  S2       1.0000 0.64223  0.22578  0.28077  Biso   1.000  S
