data_image0
_cell_length_a       10.2678
_cell_length_b       17.737
_cell_length_c       8.0378
_cell_angle_alpha    90
_cell_angle_beta     98.275
_cell_angle_gamma    90

_symmetry_space_group_name_H-M    "P 1"
_symmetry_int_tables_number       1

loop_
  _symmetry_equiv_pos_as_xyz
  'x, y, z'

loop_
  _atom_site_label
  _atom_site_occupancy
  _atom_site_fract_x
  _atom_site_fract_y
  _atom_site_fract_z
  _atom_site_thermal_displace_type
  _atom_site_B_iso_or_equiv
  _atom_site_type_symbol
  N1       1.0000 0.63790  0.52863  0.86440  Biso   1.000  N
  N2       1.0000 0.36210  0.02863  0.63560  Biso   1.000  N
  N3       1.0000 0.36210  0.47137  0.13560  Biso   1.000  N
  N4       1.0000 0.63790  0.97137  0.36440  Biso   1.000  N
  C1       1.0000 0.73040  0.54360  0.61530  Biso   1.000  C
  C2       1.0000 0.26960  0.04360  0.88470  Biso   1.000  C
  C3       1.0000 0.26960  0.45640  0.38470  Biso   1.000  C
  C4       1.0000 0.73040  0.95640  0.11530  Biso   1.000  C
  C5       1.0000 0.84740  0.56430  0.70650  Biso   1.000  C
  C6       1.0000 0.15260  0.06430  0.79350  Biso   1.000  C
  C7       1.0000 0.15260  0.43570  0.29350  Biso   1.000  C
  C8       1.0000 0.84740  0.93570  0.20650  Biso   1.000  C
  C9       1.0000 0.86100  0.56600  0.87980  Biso   1.000  C
  C10      1.0000 0.13900  0.06600  0.62020  Biso   1.000  C
  C11      1.0000 0.13900  0.43400  0.12020  Biso   1.000  C
  C12      1.0000 0.86100  0.93400  0.37980  Biso   1.000  C
  C13      1.0000 0.75340  0.54707  0.95700  Biso   1.000  C
  C14      1.0000 0.24660  0.04707  0.54300  Biso   1.000  C
  C15      1.0000 0.24660  0.45293  0.04300  Biso   1.000  C
  C16      1.0000 0.75340  0.95293  0.45700  Biso   1.000  C
  Cu1      1.0000 0.56995  0.65901  0.17667  Biso   1.000  Cu
  Cu2      1.0000 0.43005  0.15901  0.32333  Biso   1.000  Cu
  Cu3      1.0000 0.43005  0.34099  0.82333  Biso   1.000  Cu
  Cu4      1.0000 0.56995  0.84099  0.67667  Biso   1.000  Cu
  Cu5      1.0000 0.50000  0.50000  0.00000  Biso   1.000  Cu
  Cu6      1.0000 0.50000  0.00000  0.50000  Biso   1.000  Cu
  N5       1.0000 0.75830  0.66925  0.26110  Biso   1.000  N
  N6       1.0000 0.24170  0.16925  0.23890  Biso   1.000  N
  N7       1.0000 0.24170  0.33075  0.73890  Biso   1.000  N
  N8       1.0000 0.75830  0.83075  0.76110  Biso   1.000  N
  O1       1.0000 0.62160  0.54778  0.17680  Biso   1.000  O
  O2       1.0000 0.37840  0.04778  0.32320  Biso   1.000  O
  O3       1.0000 0.37840  0.45222  0.82320  Biso   1.000  O
  O4       1.0000 0.62160  0.95222  0.67680  Biso   1.000  O
  O5       1.0000 0.81370  0.47678  0.21200  Biso   1.000  O
  O6       1.0000 0.18630  0.97678  0.28800  Biso   1.000  O
  O7       1.0000 0.18630  0.52322  0.78800  Biso   1.000  O
  O8       1.0000 0.81370  0.02322  0.71200  Biso   1.000  O
  H1       1.0000 0.80270  0.44350  0.14060  Biso   1.000  H
  H2       1.0000 0.19730  0.94350  0.35940  Biso   1.000  H
  H3       1.0000 0.19730  0.55650  0.85940  Biso   1.000  H
  H4       1.0000 0.80270  0.05650  0.64060  Biso   1.000  H
  O9       1.0000 0.57690  0.75373  0.05340  Biso   1.000  O
  O10      1.0000 0.42310  0.25373  0.44660  Biso   1.000  O
  O11      1.0000 0.42310  0.24627  0.94660  Biso   1.000  O
  O12      1.0000 0.57690  0.74627  0.55340  Biso   1.000  O
  O13      1.0000 0.48150  0.84783  0.90730  Biso   1.000  O
  O14      1.0000 0.51850  0.34783  0.59270  Biso   1.000  O
  O15      1.0000 0.51850  0.15217  0.09270  Biso   1.000  O
  O16      1.0000 0.48150  0.65217  0.40730  Biso   1.000  O
  O17      1.0000 0.40290  0.63424  0.04690  Biso   1.000  O
  O18      1.0000 0.59710  0.13424  0.45310  Biso   1.000  O
  O19      1.0000 0.59710  0.36576  0.95310  Biso   1.000  O
  O20      1.0000 0.40290  0.86576  0.54690  Biso   1.000  O
  O21      1.0000 0.18670  0.63998  0.99690  Biso   1.000  O
  O22      1.0000 0.81330  0.13998  0.50310  Biso   1.000  O
  O23      1.0000 0.81330  0.36002  0.00310  Biso   1.000  O
  O24      1.0000 0.18670  0.86002  0.49690  Biso   1.000  O
  C17      1.0000 0.75240  0.54270  0.14710  Biso   1.000  C
  C18      1.0000 0.24760  0.04270  0.35290  Biso   1.000  C
  C19      1.0000 0.24760  0.45730  0.85290  Biso   1.000  C
  C20      1.0000 0.75240  0.95730  0.64710  Biso   1.000  C
  C21      1.0000 0.82970  0.60820  0.23760  Biso   1.000  C
  C22      1.0000 0.17030  0.10820  0.26240  Biso   1.000  C
  C23      1.0000 0.17030  0.39180  0.76240  Biso   1.000  C
  C24      1.0000 0.82970  0.89180  0.73760  Biso   1.000  C
  C25      1.0000 0.96370  0.60610  0.29180  Biso   1.000  C
  C26      1.0000 0.03630  0.10610  0.20820  Biso   1.000  C
  C27      1.0000 0.03630  0.39390  0.70820  Biso   1.000  C
  C28      1.0000 0.96370  0.89390  0.79180  Biso   1.000  C
  H5       1.0000 0.01260  0.56350  0.27410  Biso   1.000  H
  H6       1.0000 0.98740  0.06350  0.22590  Biso   1.000  H
  H7       1.0000 0.98740  0.43650  0.72590  Biso   1.000  H
  H8       1.0000 0.01260  0.93650  0.77410  Biso   1.000  H
  C29      1.0000 0.02320  0.66810  0.37220  Biso   1.000  C
  C30      1.0000 0.97680  0.16810  0.12780  Biso   1.000  C
  C31      1.0000 0.97680  0.33190  0.62780  Biso   1.000  C
  C32      1.0000 0.02320  0.83190  0.87220  Biso   1.000  C
  H9       1.0000 0.11300  0.66740  0.41120  Biso   1.000  H
  H10      1.0000 0.88700  0.16740  0.08880  Biso   1.000  H
  H11      1.0000 0.88700  0.33260  0.58880  Biso   1.000  H
  H12      1.0000 0.11300  0.83260  0.91120  Biso   1.000  H
  C33      1.0000 0.95070  0.73060  0.39490  Biso   1.000  C
  C34      1.0000 0.04930  0.23060  0.10510  Biso   1.000  C
  C35      1.0000 0.04930  0.26940  0.60510  Biso   1.000  C
  C36      1.0000 0.95070  0.76940  0.89490  Biso   1.000  C
  H13      1.0000 0.99060  0.77320  0.44700  Biso   1.000  H
  H14      1.0000 0.00940  0.27320  0.05300  Biso   1.000  H
  H15      1.0000 0.00940  0.22680  0.55300  Biso   1.000  H
  H16      1.0000 0.99060  0.72680  0.94700  Biso   1.000  H
  C37      1.0000 0.81720  0.72970  0.33920  Biso   1.000  C
  C38      1.0000 0.18280  0.22970  0.16080  Biso   1.000  C
  C39      1.0000 0.18280  0.27030  0.66080  Biso   1.000  C
  C40      1.0000 0.81720  0.77030  0.83920  Biso   1.000  C
  H17      1.0000 0.76690  0.77180  0.35620  Biso   1.000  H
  H18      1.0000 0.23310  0.27180  0.14380  Biso   1.000  H
  H19      1.0000 0.23310  0.22820  0.64380  Biso   1.000  H
  H20      1.0000 0.76690  0.72820  0.85620  Biso   1.000  H
  C41      1.0000 0.48480  0.80090  0.01880  Biso   1.000  C
  C42      1.0000 0.51520  0.30090  0.48120  Biso   1.000  C
  C43      1.0000 0.51520  0.19910  0.98120  Biso   1.000  C
  C44      1.0000 0.48480  0.69910  0.51880  Biso   1.000  C
  C45      1.0000 0.37250  0.80030  0.12140  Biso   1.000  C
  C46      1.0000 0.62750  0.30030  0.37860  Biso   1.000  C
  C47      1.0000 0.62750  0.19970  0.87860  Biso   1.000  C
  C48      1.0000 0.37250  0.69970  0.62140  Biso   1.000  C
  H21      1.0000 0.35780  0.84450  0.17820  Biso   1.000  H
  H22      1.0000 0.64220  0.34450  0.32180  Biso   1.000  H
  H23      1.0000 0.64220  0.15550  0.82180  Biso   1.000  H
  H24      1.0000 0.35780  0.65550  0.67820  Biso   1.000  H
  C49      1.0000 0.29310  0.74300  0.13820  Biso   1.000  C
  C50      1.0000 0.70690  0.24300  0.36180  Biso   1.000  C
  C51      1.0000 0.70690  0.25700  0.86180  Biso   1.000  C
  C52      1.0000 0.29310  0.75700  0.63820  Biso   1.000  C
  H25      1.0000 0.22960  0.75050  0.20820  Biso   1.000  H
  H26      1.0000 0.77040  0.25050  0.29180  Biso   1.000  H
  H27      1.0000 0.77040  0.24950  0.79180  Biso   1.000  H
  H28      1.0000 0.22960  0.74950  0.70820  Biso   1.000  H
  C53      1.0000 0.29440  0.66760  0.05690  Biso   1.000  C
  C54      1.0000 0.70560  0.16760  0.44310  Biso   1.000  C
  C55      1.0000 0.70560  0.33240  0.94310  Biso   1.000  C
  C56      1.0000 0.29440  0.83240  0.55690  Biso   1.000  C
  C57      1.0000 0.62820  0.52600  0.69820  Biso   1.000  C
  C58      1.0000 0.37180  0.02600  0.80180  Biso   1.000  C
  C59      1.0000 0.37180  0.47400  0.30180  Biso   1.000  C
  C60      1.0000 0.62820  0.97400  0.19820  Biso   1.000  C
  H29      1.0000 0.54860  0.51160  0.63620  Biso   1.000  H
  H30      1.0000 0.45140  0.01160  0.86380  Biso   1.000  H
  H31      1.0000 0.45140  0.48840  0.36380  Biso   1.000  H
  H32      1.0000 0.54860  0.98840  0.13620  Biso   1.000  H
  H33      1.0000 0.72070  0.54150  0.49870  Biso   1.000  H
  H34      1.0000 0.27930  0.04150  0.00130  Biso   1.000  H
  H35      1.0000 0.27930  0.45850  0.50130  Biso   1.000  H
  H36      1.0000 0.72070  0.95850  0.99870  Biso   1.000  H
  H37      1.0000 0.91800  0.57730  0.65200  Biso   1.000  H
  H38      1.0000 0.08200  0.07730  0.84800  Biso   1.000  H
  H39      1.0000 0.08200  0.42270  0.34800  Biso   1.000  H
  H40      1.0000 0.91800  0.92270  0.15200  Biso   1.000  H
  H41      1.0000 0.94040  0.57960  0.94330  Biso   1.000  H
  H42      1.0000 0.05960  0.07960  0.55670  Biso   1.000  H
  H43      1.0000 0.05960  0.42040  0.05670  Biso   1.000  H
  H44      1.0000 0.94040  0.92040  0.44330  Biso   1.000  H
