data_image0
_cell_length_a       7.8843
_cell_length_b       11.5998
_cell_length_c       13.955
_cell_angle_alpha    112.214
_cell_angle_beta     95.105
_cell_angle_gamma    97.616

_symmetry_space_group_name_H-M    "P 1"
_symmetry_int_tables_number       1

loop_
  _symmetry_equiv_pos_as_xyz
  'x, y, z'

loop_
  _atom_site_label
  _atom_site_occupancy
  _atom_site_fract_x
  _atom_site_fract_y
  _atom_site_fract_z
  _atom_site_thermal_displace_type
  _atom_site_B_iso_or_equiv
  _atom_site_type_symbol
  Cu1      1.0000 0.41145  0.30039  0.23859  Biso   1.000  Cu
  Cu2      1.0000 0.58855  0.69961  0.76141  Biso   1.000  Cu
  N1       1.0000 0.26520  0.54190  0.50660  Biso   1.000  N
  N2       1.0000 0.73480  0.45810  0.49340  Biso   1.000  N
  H1       1.0000 0.27730  0.62290  0.53670  Biso   1.000  H
  H2       1.0000 0.72270  0.37710  0.46330  Biso   1.000  H
  N3       1.0000 0.46970  0.57380  0.29210  Biso   1.000  N
  N4       1.0000 0.53030  0.42620  0.70790  Biso   1.000  N
  N5       1.0000 0.48130  0.46110  0.23093  Biso   1.000  N
  N6       1.0000 0.51870  0.53890  0.76907  Biso   1.000  N
  N7       1.0000 0.79390  0.62710  0.00890  Biso   1.000  N
  N8       1.0000 0.20610  0.37290  0.99110  Biso   1.000  N
  O1       1.0000 0.32380  0.38340  0.36746  Biso   1.000  O
  O2       1.0000 0.67620  0.61660  0.63254  Biso   1.000  O
  O3       1.0000 0.36980  0.77660  0.52820  Biso   1.000  O
  O4       1.0000 0.63020  0.22340  0.47180  Biso   1.000  O
  O5       1.0000 0.76610  0.73340  0.05960  Biso   1.000  O
  O6       1.0000 0.23390  0.26660  0.94040  Biso   1.000  O
  O7       1.0000 0.87380  0.60440  0.93400  Biso   1.000  O
  O8       1.0000 0.12620  0.39560  0.06600  Biso   1.000  O
  O9       1.0000 0.54070  0.06900  0.88647  Biso   1.000  O
  O10      1.0000 0.45930  0.93100  0.11353  Biso   1.000  O
  O11      1.0000 0.80970  0.11040  0.99920  Biso   1.000  O
  O12      1.0000 0.19030  0.88960  0.00080  Biso   1.000  O
  O13      1.0000 0.80620  0.15730  0.84505  Biso   1.000  O
  O14      1.0000 0.19380  0.84270  0.15495  Biso   1.000  O
  O15      1.0000 0.51910  0.23360  0.11291  Biso   1.000  O
  O16      1.0000 0.48090  0.76640  0.88709  Biso   1.000  O
  O17      1.0000 0.15580  0.18870  0.13371  Biso   1.000  O
  O18      1.0000 0.84420  0.81130  0.86629  Biso   1.000  O
  H3       1.0000 0.09480  0.13470  0.14640  Biso   1.000  H
  H4       1.0000 0.90520  0.86530  0.85360  Biso   1.000  H
  O19      1.0000 0.42970  0.15150  0.27515  Biso   1.000  O
  O20      1.0000 0.57030  0.84850  0.72485  Biso   1.000  O
  H5       1.0000 0.48250  0.16330  0.33260  Biso   1.000  H
  H6       1.0000 0.51750  0.83670  0.66740  Biso   1.000  H
  H7       1.0000 0.45570  0.08790  0.23200  Biso   1.000  H
  H8       1.0000 0.54430  0.91210  0.76800  Biso   1.000  H
  S1       1.0000 0.71298  0.14892  0.92691  Biso   1.000  S
  S2       1.0000 0.28702  0.85108  0.07309  Biso   1.000  S
  C1       1.0000 0.18230  0.47580  0.56090  Biso   1.000  C
  C2       1.0000 0.81770  0.52420  0.43910  Biso   1.000  C
  C3       1.0000 0.15170  0.34510  0.52790  Biso   1.000  C
  C4       1.0000 0.84830  0.65490  0.47210  Biso   1.000  C
  H9       1.0000 0.18590  0.29460  0.46580  Biso   1.000  H
  H10      1.0000 0.81410  0.70540  0.53420  Biso   1.000  H
  C5       1.0000 0.07030  0.29110  0.58800  Biso   1.000  C
  C6       1.0000 0.92970  0.70890  0.41200  Biso   1.000  C
  H11      1.0000 0.04960  0.20350  0.56640  Biso   1.000  H
  H12      1.0000 0.95040  0.79650  0.43360  Biso   1.000  H
  C7       1.0000 0.01870  0.36600  0.68060  Biso   1.000  C
  C8       1.0000 0.98130  0.63400  0.31940  Biso   1.000  C
  H13      1.0000 0.96370  0.32860  0.72070  Biso   1.000  H
  H14      1.0000 0.03630  0.67140  0.27930  Biso   1.000  H
  C9       1.0000 0.04850  0.49330  0.71240  Biso   1.000  C
  C10      1.0000 0.95150  0.50670  0.28760  Biso   1.000  C
  H15      1.0000 0.01380  0.54310  0.77450  Biso   1.000  H
  H16      1.0000 0.98620  0.45690  0.22550  Biso   1.000  H
  C11      1.0000 0.13020  0.55050  0.65350  Biso   1.000  C
  C12      1.0000 0.86980  0.44950  0.34650  Biso   1.000  C
  H17      1.0000 0.15000  0.63810  0.67590  Biso   1.000  H
  H18      1.0000 0.85000  0.36190  0.32410  Biso   1.000  H
  C13      1.0000 0.32850  0.50020  0.41610  Biso   1.000  C
  C14      1.0000 0.67150  0.49980  0.58390  Biso   1.000  C
  C15      1.0000 0.40070  0.59720  0.38010  Biso   1.000  C
  C16      1.0000 0.59930  0.40280  0.61990  Biso   1.000  C
  C17      1.0000 0.40940  0.73250  0.43980  Biso   1.000  C
  C18      1.0000 0.59060  0.26750  0.56020  Biso   1.000  C
  C19      1.0000 0.47150  0.82120  0.38970  Biso   1.000  C
  C20      1.0000 0.52850  0.17880  0.61030  Biso   1.000  C
  H19      1.0000 0.47180  0.90680  0.43660  Biso   1.000  H
  H20      1.0000 0.52820  0.09320  0.56340  Biso   1.000  H
  H21      1.0000 0.39560  0.80150  0.32570  Biso   1.000  H
  H22      1.0000 0.60440  0.19850  0.67430  Biso   1.000  H
  H23      1.0000 0.58670  0.81200  0.37480  Biso   1.000  H
  H24      1.0000 0.41330  0.18800  0.62520  Biso   1.000  H
  C21      1.0000 0.56970  0.45160  0.14610  Biso   1.000  C
  C22      1.0000 0.43030  0.54840  0.85390  Biso   1.000  C
  C23      1.0000 0.63850  0.55000  0.12200  Biso   1.000  C
  C24      1.0000 0.36150  0.45000  0.87800  Biso   1.000  C
  H25      1.0000 0.62620  0.63240  0.16190  Biso   1.000  H
  H26      1.0000 0.37380  0.36760  0.83810  Biso   1.000  H
  C25      1.0000 0.72660  0.52460  0.03720  Biso   1.000  C
  C26      1.0000 0.27340  0.47540  0.96280  Biso   1.000  C
  C27      1.0000 0.74770  0.40260  0.97620  Biso   1.000  C
  C28      1.0000 0.25230  0.59740  0.02380  Biso   1.000  C
  H27      1.0000 0.80750  0.38830  0.91940  Biso   1.000  H
  H28      1.0000 0.19250  0.61170  0.08060  Biso   1.000  H
  C29      1.0000 0.67930  0.30300  0.00040  Biso   1.000  C
  C30      1.0000 0.32070  0.69700  0.99960  Biso   1.000  C
  C31      1.0000 0.58770  0.32430  0.08670  Biso   1.000  C
  C32      1.0000 0.41230  0.67570  0.91330  Biso   1.000  C
  O21      1.0000 0.94070  0.00450  0.17171  Biso   1.000  O
  O22      1.0000 0.05930  0.99550  0.82829  Biso   1.000  O
  H29      1.0000 0.99500  0.94670  0.16370  Biso   1.000  H
  H30      1.0000 0.00500  0.05330  0.83630  Biso   1.000  H
  C33      1.0000 0.87000  0.96590  0.32466  Biso   1.000  C
  C34      1.0000 0.13000  0.03410  0.67534  Biso   1.000  C
  H31      1.0000 0.85810  0.01040  0.39660  Biso   1.000  H
  H32      1.0000 0.14190  0.98960  0.60340  Biso   1.000  H
  H33      1.0000 0.96030  0.91700  0.32090  Biso   1.000  H
  H34      1.0000 0.03970  0.08300  0.67910  Biso   1.000  H
  H35      1.0000 0.76290  0.91040  0.28750  Biso   1.000  H
  H36      1.0000 0.23710  0.08960  0.71250  Biso   1.000  H
  C35      1.0000 0.91580  0.06090  0.27533  Biso   1.000  C
  C36      1.0000 0.08420  0.93910  0.72467  Biso   1.000  C
  H37      1.0000 0.82360  0.10930  0.27900  Biso   1.000  H
  H38      1.0000 0.17640  0.89070  0.72100  Biso   1.000  H
  H39      1.0000 0.02060  0.11940  0.31580  Biso   1.000  H
  H40      1.0000 0.97940  0.88060  0.68420  Biso   1.000  H
  Na1      1.0000 0.70675  0.92752  0.02473  Biso   1.000  Na
  Na2      1.0000 0.29325  0.07248  0.97527  Biso   1.000  Na
