data_image0
_cell_length_a       12.599
_cell_length_b       15.28
_cell_length_c       11.233
_cell_angle_alpha    90
_cell_angle_beta     91.936
_cell_angle_gamma    90

_symmetry_space_group_name_H-M    "P 1"
_symmetry_int_tables_number       1

loop_
  _symmetry_equiv_pos_as_xyz
  'x, y, z'

loop_
  _atom_site_label
  _atom_site_occupancy
  _atom_site_fract_x
  _atom_site_fract_y
  _atom_site_fract_z
  _atom_site_thermal_displace_type
  _atom_site_B_iso_or_equiv
  _atom_site_type_symbol
  Cu1      1.0000 0.00000  0.09184  0.75000  Biso   1.000  Cu
  Cu2      1.0000 0.50000  0.59184  0.75000  Biso   1.000  Cu
  Cu3      1.0000 0.00000  0.90816  0.25000  Biso   1.000  Cu
  Cu4      1.0000 0.50000  0.40816  0.25000  Biso   1.000  Cu
  Cl1      1.0000 0.98903  0.18252  0.59365  Biso   1.000  Cl
  Cl2      1.0000 0.01097  0.18252  0.90635  Biso   1.000  Cl
  Cl3      1.0000 0.48903  0.68252  0.59365  Biso   1.000  Cl
  Cl4      1.0000 0.51097  0.68252  0.90635  Biso   1.000  Cl
  Cl5      1.0000 0.01097  0.81748  0.40635  Biso   1.000  Cl
  Cl6      1.0000 0.98903  0.81748  0.09365  Biso   1.000  Cl
  Cl7      1.0000 0.51097  0.31748  0.40635  Biso   1.000  Cl
  Cl8      1.0000 0.48903  0.31748  0.09365  Biso   1.000  Cl
  N1       1.0000 0.89293  0.01051  0.81368  Biso   1.000  N
  N2       1.0000 0.10707  0.01051  0.68632  Biso   1.000  N
  N3       1.0000 0.39293  0.51051  0.81368  Biso   1.000  N
  N4       1.0000 0.60707  0.51051  0.68632  Biso   1.000  N
  N5       1.0000 0.10707  0.98949  0.18632  Biso   1.000  N
  N6       1.0000 0.89293  0.98949  0.31368  Biso   1.000  N
  N7       1.0000 0.60707  0.48949  0.18632  Biso   1.000  N
  N8       1.0000 0.39293  0.48949  0.31368  Biso   1.000  N
  N9       1.0000 0.75910  0.96997  0.92601  Biso   1.000  N
  N10      1.0000 0.24090  0.96997  0.57399  Biso   1.000  N
  N11      1.0000 0.25910  0.46997  0.92601  Biso   1.000  N
  N12      1.0000 0.74090  0.46997  0.57399  Biso   1.000  N
  N13      1.0000 0.24090  0.03003  0.07399  Biso   1.000  N
  N14      1.0000 0.75910  0.03003  0.42601  Biso   1.000  N
  N15      1.0000 0.74090  0.53003  0.07399  Biso   1.000  N
  N16      1.0000 0.25910  0.53003  0.42601  Biso   1.000  N
  C1       1.0000 0.83320  0.03097  0.90401  Biso   1.000  C
  C2       1.0000 0.16680  0.03097  0.59599  Biso   1.000  C
  C3       1.0000 0.33320  0.53097  0.90401  Biso   1.000  C
  C4       1.0000 0.66680  0.53097  0.59599  Biso   1.000  C
  C5       1.0000 0.16680  0.96903  0.09599  Biso   1.000  C
  C6       1.0000 0.83320  0.96903  0.40401  Biso   1.000  C
  C7       1.0000 0.66680  0.46903  0.09599  Biso   1.000  C
  C8       1.0000 0.33320  0.46903  0.40401  Biso   1.000  C
  H1       1.0000 0.84140  0.08220  0.94800  Biso   1.000  H
  H2       1.0000 0.15860  0.08220  0.55200  Biso   1.000  H
  H3       1.0000 0.34140  0.58220  0.94800  Biso   1.000  H
  H4       1.0000 0.65860  0.58220  0.55200  Biso   1.000  H
  H5       1.0000 0.15860  0.91780  0.05200  Biso   1.000  H
  H6       1.0000 0.84140  0.91780  0.44800  Biso   1.000  H
  H7       1.0000 0.65860  0.41780  0.05200  Biso   1.000  H
  H8       1.0000 0.34140  0.41780  0.44800  Biso   1.000  H
  C9       1.0000 0.85403  0.92994  0.77153  Biso   1.000  C
  C10      1.0000 0.14597  0.92994  0.72847  Biso   1.000  C
  C11      1.0000 0.35403  0.42994  0.77153  Biso   1.000  C
  C12      1.0000 0.64597  0.42994  0.72847  Biso   1.000  C
  C13      1.0000 0.14597  0.07006  0.22847  Biso   1.000  C
  C14      1.0000 0.85403  0.07006  0.27153  Biso   1.000  C
  C15      1.0000 0.64597  0.57006  0.22847  Biso   1.000  C
  C16      1.0000 0.35403  0.57006  0.27153  Biso   1.000  C
  C17      1.0000 0.88572  0.87841  0.67670  Biso   1.000  C
  C18      1.0000 0.11428  0.87841  0.82330  Biso   1.000  C
  C19      1.0000 0.38572  0.37841  0.67670  Biso   1.000  C
  C20      1.0000 0.61428  0.37841  0.82330  Biso   1.000  C
  C21      1.0000 0.11428  0.12159  0.32330  Biso   1.000  C
  C22      1.0000 0.88572  0.12159  0.17670  Biso   1.000  C
  C23      1.0000 0.61428  0.62159  0.32330  Biso   1.000  C
  C24      1.0000 0.38572  0.62159  0.17670  Biso   1.000  C
  H9       1.0000 0.94220  0.89490  0.63040  Biso   1.000  H
  H10      1.0000 0.05780  0.89490  0.86960  Biso   1.000  H
  H11      1.0000 0.44220  0.39490  0.63040  Biso   1.000  H
  H12      1.0000 0.55780  0.39490  0.86960  Biso   1.000  H
  H13      1.0000 0.05780  0.10510  0.36960  Biso   1.000  H
  H14      1.0000 0.94220  0.10510  0.13040  Biso   1.000  H
  H15      1.0000 0.55780  0.60510  0.36960  Biso   1.000  H
  H16      1.0000 0.44220  0.60510  0.13040  Biso   1.000  H
  C25      1.0000 0.83018  0.80212  0.65424  Biso   1.000  C
  C26      1.0000 0.16982  0.80212  0.84576  Biso   1.000  C
  C27      1.0000 0.33018  0.30212  0.65424  Biso   1.000  C
  C28      1.0000 0.66982  0.30212  0.84576  Biso   1.000  C
  C29      1.0000 0.16982  0.19788  0.34576  Biso   1.000  C
  C30      1.0000 0.83018  0.19788  0.15424  Biso   1.000  C
  C31      1.0000 0.66982  0.69788  0.34576  Biso   1.000  C
  C32      1.0000 0.33018  0.69788  0.15424  Biso   1.000  C
  H17      1.0000 0.84930  0.76660  0.59130  Biso   1.000  H
  H18      1.0000 0.15070  0.76660  0.90870  Biso   1.000  H
  H19      1.0000 0.34930  0.26660  0.59130  Biso   1.000  H
  H20      1.0000 0.65070  0.26660  0.90870  Biso   1.000  H
  H21      1.0000 0.15070  0.23340  0.40870  Biso   1.000  H
  H22      1.0000 0.84930  0.23340  0.09130  Biso   1.000  H
  H23      1.0000 0.65070  0.73340  0.40870  Biso   1.000  H
  H24      1.0000 0.34930  0.73340  0.09130  Biso   1.000  H
  C33      1.0000 0.74523  0.77700  0.72469  Biso   1.000  C
  C34      1.0000 0.25477  0.77700  0.77531  Biso   1.000  C
  C35      1.0000 0.24523  0.27700  0.72469  Biso   1.000  C
  C36      1.0000 0.75477  0.27700  0.77531  Biso   1.000  C
  C37      1.0000 0.25477  0.22300  0.27531  Biso   1.000  C
  C38      1.0000 0.74523  0.22300  0.22469  Biso   1.000  C
  C39      1.0000 0.75477  0.72300  0.27531  Biso   1.000  C
  C40      1.0000 0.24523  0.72300  0.22469  Biso   1.000  C
  H25      1.0000 0.70890  0.72550  0.70640  Biso   1.000  H
  H26      1.0000 0.29110  0.72550  0.79360  Biso   1.000  H
  H27      1.0000 0.20890  0.22550  0.70640  Biso   1.000  H
  H28      1.0000 0.79110  0.22550  0.79360  Biso   1.000  H
  H29      1.0000 0.29110  0.27450  0.29360  Biso   1.000  H
  H30      1.0000 0.70890  0.27450  0.20640  Biso   1.000  H
  H31      1.0000 0.79110  0.77450  0.29360  Biso   1.000  H
  H32      1.0000 0.20890  0.77450  0.20640  Biso   1.000  H
  C41      1.0000 0.71401  0.82661  0.82038  Biso   1.000  C
  C42      1.0000 0.28599  0.82661  0.67962  Biso   1.000  C
  C43      1.0000 0.21401  0.32661  0.82038  Biso   1.000  C
  C44      1.0000 0.78599  0.32661  0.67962  Biso   1.000  C
  C45      1.0000 0.28599  0.17339  0.17962  Biso   1.000  C
  C46      1.0000 0.71401  0.17339  0.32038  Biso   1.000  C
  C47      1.0000 0.78599  0.67339  0.17962  Biso   1.000  C
  C48      1.0000 0.21401  0.67339  0.32038  Biso   1.000  C
  H33      1.0000 0.65840  0.80950  0.86760  Biso   1.000  H
  H34      1.0000 0.34160  0.80950  0.63240  Biso   1.000  H
  H35      1.0000 0.15840  0.30950  0.86760  Biso   1.000  H
  H36      1.0000 0.84160  0.30950  0.63240  Biso   1.000  H
  H37      1.0000 0.34160  0.19050  0.13240  Biso   1.000  H
  H38      1.0000 0.65840  0.19050  0.36760  Biso   1.000  H
  H39      1.0000 0.84160  0.69050  0.13240  Biso   1.000  H
  H40      1.0000 0.15840  0.69050  0.36760  Biso   1.000  H
  C49      1.0000 0.77056  0.90357  0.84203  Biso   1.000  C
  C50      1.0000 0.22944  0.90357  0.65797  Biso   1.000  C
  C51      1.0000 0.27056  0.40357  0.84203  Biso   1.000  C
  C52      1.0000 0.72944  0.40357  0.65797  Biso   1.000  C
  C53      1.0000 0.22944  0.09643  0.15797  Biso   1.000  C
  C54      1.0000 0.77056  0.09643  0.34203  Biso   1.000  C
  C55      1.0000 0.72944  0.59643  0.15797  Biso   1.000  C
  C56      1.0000 0.27056  0.59643  0.34203  Biso   1.000  C
  C57      1.0000 0.68519  0.97360  0.02045  Biso   1.000  C
  C58      1.0000 0.31481  0.97360  0.47955  Biso   1.000  C
  C59      1.0000 0.18519  0.47360  0.02045  Biso   1.000  C
  C60      1.0000 0.81481  0.47360  0.47955  Biso   1.000  C
  C61      1.0000 0.31481  0.02640  0.97955  Biso   1.000  C
  C62      1.0000 0.68519  0.02640  0.52045  Biso   1.000  C
  C63      1.0000 0.81481  0.52640  0.97955  Biso   1.000  C
  C64      1.0000 0.18519  0.52640  0.52045  Biso   1.000  C
  C65      1.0000 0.66932  0.89992  0.08940  Biso   1.000  C
  C66      1.0000 0.33068  0.89992  0.41060  Biso   1.000  C
  C67      1.0000 0.16932  0.39992  0.08940  Biso   1.000  C
  C68      1.0000 0.83068  0.39992  0.41060  Biso   1.000  C
  C69      1.0000 0.33068  0.10008  0.91060  Biso   1.000  C
  C70      1.0000 0.66932  0.10008  0.58940  Biso   1.000  C
  C71      1.0000 0.83068  0.60008  0.91060  Biso   1.000  C
  C72      1.0000 0.16932  0.60008  0.58940  Biso   1.000  C
  H41      1.0000 0.70710  0.84880  0.07560  Biso   1.000  H
  H42      1.0000 0.29290  0.84880  0.42440  Biso   1.000  H
  H43      1.0000 0.20710  0.34880  0.07560  Biso   1.000  H
  H44      1.0000 0.79290  0.34880  0.42440  Biso   1.000  H
  H45      1.0000 0.29290  0.15120  0.92440  Biso   1.000  H
  H46      1.0000 0.70710  0.15120  0.57560  Biso   1.000  H
  H47      1.0000 0.79290  0.65120  0.92440  Biso   1.000  H
  H48      1.0000 0.20710  0.65120  0.57560  Biso   1.000  H
  C73      1.0000 0.59681  0.90309  0.17892  Biso   1.000  C
  C74      1.0000 0.40319  0.90309  0.32108  Biso   1.000  C
  C75      1.0000 0.09681  0.40309  0.17892  Biso   1.000  C
  C76      1.0000 0.90319  0.40309  0.32108  Biso   1.000  C
  C77      1.0000 0.40319  0.09691  0.82108  Biso   1.000  C
  C78      1.0000 0.59681  0.09691  0.67892  Biso   1.000  C
  C79      1.0000 0.90319  0.59691  0.82108  Biso   1.000  C
  C80      1.0000 0.09681  0.59691  0.67892  Biso   1.000  C
  H49      1.0000 0.58570  0.85330  0.22450  Biso   1.000  H
  H50      1.0000 0.41430  0.85330  0.27550  Biso   1.000  H
  H51      1.0000 0.08570  0.35330  0.22450  Biso   1.000  H
  H52      1.0000 0.91430  0.35330  0.27550  Biso   1.000  H
  H53      1.0000 0.41430  0.14670  0.77550  Biso   1.000  H
  H54      1.0000 0.58570  0.14670  0.72450  Biso   1.000  H
  H55      1.0000 0.91430  0.64670  0.77550  Biso   1.000  H
  H56      1.0000 0.08570  0.64670  0.72450  Biso   1.000  H
  C81      1.0000 0.53980  0.97924  0.20262  Biso   1.000  C
  C82      1.0000 0.46020  0.97924  0.29738  Biso   1.000  C
  C83      1.0000 0.03980  0.47924  0.20262  Biso   1.000  C
  C84      1.0000 0.96020  0.47924  0.29738  Biso   1.000  C
  C85      1.0000 0.46020  0.02076  0.79738  Biso   1.000  C
  C86      1.0000 0.53980  0.02076  0.70262  Biso   1.000  C
  C87      1.0000 0.96020  0.52076  0.79738  Biso   1.000  C
  C88      1.0000 0.03980  0.52076  0.70262  Biso   1.000  C
  C89      1.0000 0.55967  0.05353  0.13412  Biso   1.000  C
  C90      1.0000 0.44033  0.05353  0.36588  Biso   1.000  C
  C91      1.0000 0.05967  0.55353  0.13412  Biso   1.000  C
  C92      1.0000 0.94033  0.55353  0.36588  Biso   1.000  C
  C93      1.0000 0.44033  0.94647  0.86588  Biso   1.000  C
  C94      1.0000 0.55967  0.94647  0.63412  Biso   1.000  C
  C95      1.0000 0.94033  0.44647  0.86588  Biso   1.000  C
  C96      1.0000 0.05967  0.44647  0.63412  Biso   1.000  C
  H57      1.0000 0.52470  0.10560  0.15020  Biso   1.000  H
  H58      1.0000 0.47530  0.10560  0.34980  Biso   1.000  H
  H59      1.0000 0.02470  0.60560  0.15020  Biso   1.000  H
  H60      1.0000 0.97530  0.60560  0.34980  Biso   1.000  H
  H61      1.0000 0.47530  0.89440  0.84980  Biso   1.000  H
  H62      1.0000 0.52470  0.89440  0.65020  Biso   1.000  H
  H63      1.0000 0.97530  0.39440  0.84980  Biso   1.000  H
  H64      1.0000 0.02470  0.39440  0.65020  Biso   1.000  H
  C97      1.0000 0.63069  0.05066  0.04257  Biso   1.000  C
  C98      1.0000 0.36931  0.05066  0.45743  Biso   1.000  C
  C99      1.0000 0.13069  0.55066  0.04257  Biso   1.000  C
  C100     1.0000 0.86931  0.55066  0.45743  Biso   1.000  C
  C101     1.0000 0.36931  0.94934  0.95743  Biso   1.000  C
  C102     1.0000 0.63069  0.94934  0.54257  Biso   1.000  C
  C103     1.0000 0.86931  0.44934  0.95743  Biso   1.000  C
  C104     1.0000 0.13069  0.44934  0.54257  Biso   1.000  C
  H65      1.0000 0.64180  0.10000  0.99620  Biso   1.000  H
  H66      1.0000 0.35820  0.10000  0.50380  Biso   1.000  H
  H67      1.0000 0.14180  0.60000  0.99620  Biso   1.000  H
  H68      1.0000 0.85820  0.60000  0.50380  Biso   1.000  H
  H69      1.0000 0.35820  0.90000  0.00380  Biso   1.000  H
  H70      1.0000 0.64180  0.90000  0.49620  Biso   1.000  H
  H71      1.0000 0.85820  0.40000  0.00380  Biso   1.000  H
  H72      1.0000 0.14180  0.40000  0.49620  Biso   1.000  H
