data_image0
_cell_length_a       7.654
_cell_length_b       11.253
_cell_length_c       16.126
_cell_angle_alpha    90
_cell_angle_beta     99.634
_cell_angle_gamma    90

_symmetry_space_group_name_H-M    "P 1"
_symmetry_int_tables_number       1

loop_
  _symmetry_equiv_pos_as_xyz
  'x, y, z'

loop_
  _atom_site_label
  _atom_site_occupancy
  _atom_site_fract_x
  _atom_site_fract_y
  _atom_site_fract_z
  _atom_site_thermal_displace_type
  _atom_site_B_iso_or_equiv
  _atom_site_type_symbol
  Cu1      1.0000 0.50000  0.00000  0.00000  Biso   1.000  Cu
  Cu2      1.0000 0.50000  0.50000  0.50000  Biso   1.000  Cu
  O1       1.0000 0.47950  0.22950  0.87122  Biso   1.000  O
  O2       1.0000 0.52050  0.72950  0.62878  Biso   1.000  O
  O3       1.0000 0.52050  0.77050  0.12878  Biso   1.000  O
  O4       1.0000 0.47950  0.27050  0.37122  Biso   1.000  O
  O5       1.0000 0.49270  0.17490  0.00527  Biso   1.000  O
  O6       1.0000 0.50730  0.67490  0.49473  Biso   1.000  O
  O7       1.0000 0.50730  0.82510  0.99473  Biso   1.000  O
  O8       1.0000 0.49270  0.32510  0.50527  Biso   1.000  O
  O9       1.0000 0.18480  0.99470  0.00960  Biso   1.000  O
  O10      1.0000 0.81520  0.49470  0.49040  Biso   1.000  O
  O11      1.0000 0.81520  0.00530  0.99040  Biso   1.000  O
  O12      1.0000 0.18480  0.50530  0.50960  Biso   1.000  O
  O13      1.0000 0.56450  0.00298  0.12299  Biso   1.000  O
  O14      1.0000 0.43550  0.50298  0.37701  Biso   1.000  O
  O15      1.0000 0.43550  0.99702  0.87701  Biso   1.000  O
  O16      1.0000 0.56450  0.49702  0.62299  Biso   1.000  O
  H1       1.0000 0.55570  0.93310  0.13620  Biso   1.000  H
  H2       1.0000 0.44430  0.43310  0.36380  Biso   1.000  H
  H3       1.0000 0.44430  0.06690  0.86380  Biso   1.000  H
  H4       1.0000 0.55570  0.56690  0.63620  Biso   1.000  H
  H5       1.0000 0.51860  0.05620  0.14660  Biso   1.000  H
  H6       1.0000 0.48140  0.55620  0.35340  Biso   1.000  H
  H7       1.0000 0.48140  0.94380  0.85340  Biso   1.000  H
  H8       1.0000 0.51860  0.44380  0.64660  Biso   1.000  H
  O17      1.0000 0.99760  0.73880  0.27010  Biso   1.000  O
  O18      1.0000 0.00240  0.23880  0.22990  Biso   1.000  O
  O19      1.0000 0.00240  0.26120  0.72990  Biso   1.000  O
  O20      1.0000 0.99760  0.76120  0.77010  Biso   1.000  O
  O21      1.0000 0.20540  0.93790  0.30070  Biso   1.000  O
  O22      1.0000 0.79460  0.43790  0.19930  Biso   1.000  O
  O23      1.0000 0.79460  0.06210  0.69930  Biso   1.000  O
  O24      1.0000 0.20540  0.56210  0.80070  Biso   1.000  O
  O25      1.0000 0.40240  0.11450  0.23500  Biso   1.000  O
  O26      1.0000 0.59760  0.61450  0.26500  Biso   1.000  O
  O27      1.0000 0.59760  0.88550  0.76500  Biso   1.000  O
  O28      1.0000 0.40240  0.38550  0.73500  Biso   1.000  O
  H9       1.0000 0.32480  0.07700  0.25300  Biso   1.000  H
  H10      1.0000 0.67520  0.57700  0.24700  Biso   1.000  H
  H11      1.0000 0.67520  0.92300  0.74700  Biso   1.000  H
  H12      1.0000 0.32480  0.42300  0.75300  Biso   1.000  H
  H13      1.0000 0.46400  0.16330  0.26430  Biso   1.000  H
  H14      1.0000 0.53600  0.66330  0.23570  Biso   1.000  H
  H15      1.0000 0.53600  0.83670  0.73570  Biso   1.000  H
  H16      1.0000 0.46400  0.33670  0.76430  Biso   1.000  H
  C1       1.0000 0.48720  0.24990  0.94700  Biso   1.000  C
  C2       1.0000 0.51280  0.74990  0.55300  Biso   1.000  C
  C3       1.0000 0.51280  0.75010  0.05300  Biso   1.000  C
  C4       1.0000 0.48720  0.25010  0.44700  Biso   1.000  C
  C5       1.0000 0.49250  0.37900  0.97410  Biso   1.000  C
  C6       1.0000 0.50750  0.87900  0.52590  Biso   1.000  C
  C7       1.0000 0.50750  0.62100  0.02590  Biso   1.000  C
  C8       1.0000 0.49250  0.12100  0.47410  Biso   1.000  C
  C9       1.0000 0.35900  0.43080  0.00860  Biso   1.000  C
  C10      1.0000 0.64100  0.93080  0.49140  Biso   1.000  C
  C11      1.0000 0.64100  0.56920  0.99140  Biso   1.000  C
  C12      1.0000 0.35900  0.06920  0.50860  Biso   1.000  C
  C13      1.0000 0.63370  0.45190  0.96550  Biso   1.000  C
  C14      1.0000 0.36630  0.95190  0.53450  Biso   1.000  C
  C15      1.0000 0.36630  0.54810  0.03450  Biso   1.000  C
  C16      1.0000 0.63370  0.04810  0.46550  Biso   1.000  C
  C17      1.0000 0.10020  0.07570  0.05150  Biso   1.000  C
  C18      1.0000 0.89980  0.57570  0.44850  Biso   1.000  C
  C19      1.0000 0.89980  0.92430  0.94850  Biso   1.000  C
  C20      1.0000 0.10020  0.42430  0.55150  Biso   1.000  C
  H17      1.0000 0.11860  0.05160  0.11010  Biso   1.000  H
  H18      1.0000 0.88140  0.55160  0.38990  Biso   1.000  H
  H19      1.0000 0.88140  0.94840  0.88990  Biso   1.000  H
  H20      1.0000 0.11860  0.44840  0.61010  Biso   1.000  H
  H21      1.0000 0.16120  0.15080  0.04920  Biso   1.000  H
  H22      1.0000 0.83880  0.65080  0.45080  Biso   1.000  H
  H23      1.0000 0.83880  0.84920  0.95080  Biso   1.000  H
  H24      1.0000 0.16120  0.34920  0.54920  Biso   1.000  H
  C21      1.0000 0.07530  0.90240  0.97150  Biso   1.000  C
  C22      1.0000 0.92470  0.40240  0.52850  Biso   1.000  C
  C23      1.0000 0.92470  0.09760  0.02850  Biso   1.000  C
  C24      1.0000 0.07530  0.59760  0.47150  Biso   1.000  C
  H25      1.0000 0.12100  0.87760  0.92160  Biso   1.000  H
  H26      1.0000 0.87900  0.37760  0.57840  Biso   1.000  H
  H27      1.0000 0.87900  0.12240  0.07840  Biso   1.000  H
  H28      1.0000 0.12100  0.62240  0.42160  Biso   1.000  H
  H29      1.0000 0.08810  0.83550  0.00990  Biso   1.000  H
  H30      1.0000 0.91190  0.33550  0.49010  Biso   1.000  H
  H31      1.0000 0.91190  0.16450  0.99010  Biso   1.000  H
  H32      1.0000 0.08810  0.66450  0.50990  Biso   1.000  H
  C25      1.0000 0.16340  0.74550  0.24730  Biso   1.000  C
  C26      1.0000 0.83660  0.24550  0.25270  Biso   1.000  C
  C27      1.0000 0.83660  0.25450  0.75270  Biso   1.000  C
  C28      1.0000 0.16340  0.75450  0.74730  Biso   1.000  C
  H33      1.0000 0.15080  0.77220  0.18940  Biso   1.000  H
  H34      1.0000 0.84920  0.27220  0.31060  Biso   1.000  H
  H35      1.0000 0.84920  0.22780  0.81060  Biso   1.000  H
  H36      1.0000 0.15080  0.72780  0.68940  Biso   1.000  H
  H37      1.0000 0.21550  0.66670  0.25030  Biso   1.000  H
  H38      1.0000 0.78450  0.16670  0.24970  Biso   1.000  H
  H39      1.0000 0.78450  0.33330  0.74970  Biso   1.000  H
  H40      1.0000 0.21550  0.83330  0.75030  Biso   1.000  H
  C29      1.0000 0.27990  0.82400  0.29920  Biso   1.000  C
  C30      1.0000 0.72010  0.32400  0.20080  Biso   1.000  C
  C31      1.0000 0.72010  0.17600  0.70080  Biso   1.000  C
  C32      1.0000 0.27990  0.67600  0.79920  Biso   1.000  C
  H41      1.0000 0.30440  0.79250  0.35600  Biso   1.000  H
  H42      1.0000 0.69560  0.29250  0.14400  Biso   1.000  H
  H43      1.0000 0.69560  0.20750  0.64400  Biso   1.000  H
  H44      1.0000 0.30440  0.70750  0.85600  Biso   1.000  H
  H45      1.0000 0.39120  0.82930  0.27820  Biso   1.000  H
  H46      1.0000 0.60880  0.32930  0.22180  Biso   1.000  H
  H47      1.0000 0.60880  0.17070  0.72180  Biso   1.000  H
  H48      1.0000 0.39120  0.67070  0.77820  Biso   1.000  H
  C33      1.0000 0.04210  0.93180  0.33020  Biso   1.000  C
  C34      1.0000 0.95790  0.43180  0.16980  Biso   1.000  C
  C35      1.0000 0.95790  0.06820  0.66980  Biso   1.000  C
  C36      1.0000 0.04210  0.56820  0.83020  Biso   1.000  C
  H49      1.0000 0.99090  0.01050  0.33070  Biso   1.000  H
  H50      1.0000 0.00910  0.51050  0.16930  Biso   1.000  H
  H51      1.0000 0.00910  0.98950  0.66930  Biso   1.000  H
  H52      1.0000 0.99090  0.48950  0.83070  Biso   1.000  H
  H53      1.0000 0.06060  0.90090  0.38720  Biso   1.000  H
  H54      1.0000 0.93940  0.40090  0.11280  Biso   1.000  H
  H55      1.0000 0.93940  0.09910  0.61280  Biso   1.000  H
  H56      1.0000 0.06060  0.59910  0.88720  Biso   1.000  H
  C37      1.0000 0.91920  0.85190  0.27360  Biso   1.000  C
  C38      1.0000 0.08080  0.35190  0.22640  Biso   1.000  C
  C39      1.0000 0.08080  0.14810  0.72640  Biso   1.000  C
  C40      1.0000 0.91920  0.64810  0.77360  Biso   1.000  C
  H57      1.0000 0.80820  0.84430  0.29460  Biso   1.000  H
  H58      1.0000 0.19180  0.34430  0.20540  Biso   1.000  H
  H59      1.0000 0.19180  0.15570  0.70540  Biso   1.000  H
  H60      1.0000 0.80820  0.65570  0.79460  Biso   1.000  H
  H61      1.0000 0.89420  0.88590  0.21760  Biso   1.000  H
  H62      1.0000 0.10580  0.38590  0.28240  Biso   1.000  H
  H63      1.0000 0.10580  0.11410  0.78240  Biso   1.000  H
  H64      1.0000 0.89420  0.61410  0.71760  Biso   1.000  H
  F1       1.0000 0.21560  0.36590  0.01690  Biso   1.000  F
  F2       1.0000 0.78440  0.86590  0.48310  Biso   1.000  F
  F3       1.0000 0.78440  0.63410  0.98310  Biso   1.000  F
  F4       1.0000 0.21560  0.13410  0.51690  Biso   1.000  F
  F5       1.0000 0.77080  0.40670  0.93380  Biso   1.000  F
  F6       1.0000 0.22920  0.90670  0.56620  Biso   1.000  F
  F7       1.0000 0.22920  0.59330  0.06620  Biso   1.000  F
  F8       1.0000 0.77080  0.09330  0.43380  Biso   1.000  F
