data_image0
_cell_length_a       14.96
_cell_length_b       15.237
_cell_length_c       12.139
_cell_angle_alpha    90
_cell_angle_beta     103.94
_cell_angle_gamma    90

_symmetry_space_group_name_H-M    "P 1"
_symmetry_int_tables_number       1

loop_
  _symmetry_equiv_pos_as_xyz
  'x, y, z'

loop_
  _atom_site_label
  _atom_site_occupancy
  _atom_site_fract_x
  _atom_site_fract_y
  _atom_site_fract_z
  _atom_site_thermal_displace_type
  _atom_site_B_iso_or_equiv
  _atom_site_type_symbol
  Cu1      1.0000 0.00000  0.08431  0.75000  Biso   1.000  Cu
  Cu2      1.0000 0.50000  0.58431  0.75000  Biso   1.000  Cu
  Cu3      1.0000 0.00000  0.91569  0.25000  Biso   1.000  Cu
  Cu4      1.0000 0.50000  0.41569  0.25000  Biso   1.000  Cu
  N1       1.0000 0.90976  0.00076  0.78730  Biso   1.000  N
  N2       1.0000 0.09024  0.00076  0.71270  Biso   1.000  N
  N3       1.0000 0.40976  0.50076  0.78730  Biso   1.000  N
  N4       1.0000 0.59024  0.50076  0.71270  Biso   1.000  N
  N5       1.0000 0.09024  0.99924  0.21270  Biso   1.000  N
  N6       1.0000 0.90976  0.99924  0.28730  Biso   1.000  N
  N7       1.0000 0.59024  0.49924  0.21270  Biso   1.000  N
  N8       1.0000 0.40976  0.49924  0.28730  Biso   1.000  N
  N9       1.0000 0.79830  0.95918  0.86840  Biso   1.000  N
  N10      1.0000 0.20170  0.95918  0.63160  Biso   1.000  N
  N11      1.0000 0.29830  0.45918  0.86840  Biso   1.000  N
  N12      1.0000 0.70170  0.45918  0.63160  Biso   1.000  N
  N13      1.0000 0.20170  0.04082  0.13160  Biso   1.000  N
  N14      1.0000 0.79830  0.04082  0.36840  Biso   1.000  N
  N15      1.0000 0.70170  0.54082  0.13160  Biso   1.000  N
  N16      1.0000 0.29830  0.54082  0.36840  Biso   1.000  N
  N17      1.0000 0.00584  0.19959  0.59270  Biso   1.000  N
  N18      1.0000 0.99416  0.19959  0.90730  Biso   1.000  N
  N19      1.0000 0.50584  0.69959  0.59270  Biso   1.000  N
  N20      1.0000 0.49416  0.69959  0.90730  Biso   1.000  N
  N21      1.0000 0.99416  0.80041  0.40730  Biso   1.000  N
  N22      1.0000 0.00584  0.80041  0.09270  Biso   1.000  N
  N23      1.0000 0.49416  0.30041  0.40730  Biso   1.000  N
  N24      1.0000 0.50584  0.30041  0.09270  Biso   1.000  N
  C1       1.0000 0.86254  0.01906  0.86460  Biso   1.000  C
  C2       1.0000 0.13746  0.01906  0.63540  Biso   1.000  C
  C3       1.0000 0.36254  0.51906  0.86460  Biso   1.000  C
  C4       1.0000 0.63746  0.51906  0.63540  Biso   1.000  C
  C5       1.0000 0.13746  0.98094  0.13540  Biso   1.000  C
  C6       1.0000 0.86254  0.98094  0.36460  Biso   1.000  C
  C7       1.0000 0.63746  0.48094  0.13540  Biso   1.000  C
  C8       1.0000 0.36254  0.48094  0.36460  Biso   1.000  C
  H1       1.0000 0.87330  0.06840  0.91100  Biso   1.000  H
  H2       1.0000 0.12670  0.06840  0.58900  Biso   1.000  H
  H3       1.0000 0.37330  0.56840  0.91100  Biso   1.000  H
  H4       1.0000 0.62670  0.56840  0.58900  Biso   1.000  H
  H5       1.0000 0.12670  0.93160  0.08900  Biso   1.000  H
  H6       1.0000 0.87330  0.93160  0.41100  Biso   1.000  H
  H7       1.0000 0.62670  0.43160  0.08900  Biso   1.000  H
  H8       1.0000 0.37330  0.43160  0.41100  Biso   1.000  H
  C9       1.0000 0.87224  0.92203  0.73680  Biso   1.000  C
  C10      1.0000 0.12776  0.92203  0.76320  Biso   1.000  C
  C11      1.0000 0.37224  0.42203  0.73680  Biso   1.000  C
  C12      1.0000 0.62776  0.42203  0.76320  Biso   1.000  C
  C13      1.0000 0.12776  0.07797  0.26320  Biso   1.000  C
  C14      1.0000 0.87224  0.07797  0.23680  Biso   1.000  C
  C15      1.0000 0.62776  0.57797  0.26320  Biso   1.000  C
  C16      1.0000 0.37224  0.57797  0.23680  Biso   1.000  C
  C17      1.0000 0.89502  0.87094  0.65150  Biso   1.000  C
  C18      1.0000 0.10498  0.87094  0.84850  Biso   1.000  C
  C19      1.0000 0.39502  0.37094  0.65150  Biso   1.000  C
  C20      1.0000 0.60498  0.37094  0.84850  Biso   1.000  C
  C21      1.0000 0.10498  0.12906  0.34850  Biso   1.000  C
  C22      1.0000 0.89502  0.12906  0.15150  Biso   1.000  C
  C23      1.0000 0.60498  0.62906  0.34850  Biso   1.000  C
  C24      1.0000 0.39502  0.62906  0.15150  Biso   1.000  C
  H9       1.0000 0.94230  0.88720  0.61800  Biso   1.000  H
  H10      1.0000 0.05770  0.88720  0.88200  Biso   1.000  H
  H11      1.0000 0.44230  0.38720  0.61800  Biso   1.000  H
  H12      1.0000 0.55770  0.38720  0.88200  Biso   1.000  H
  H13      1.0000 0.05770  0.11280  0.38200  Biso   1.000  H
  H14      1.0000 0.94230  0.11280  0.11800  Biso   1.000  H
  H15      1.0000 0.55770  0.61280  0.38200  Biso   1.000  H
  H16      1.0000 0.44230  0.61280  0.11800  Biso   1.000  H
  C25      1.0000 0.84430  0.79544  0.61920  Biso   1.000  C
  C26      1.0000 0.15570  0.79544  0.88080  Biso   1.000  C
  C27      1.0000 0.34430  0.29544  0.61920  Biso   1.000  C
  C28      1.0000 0.65570  0.29544  0.88080  Biso   1.000  C
  C29      1.0000 0.15570  0.20456  0.38080  Biso   1.000  C
  C30      1.0000 0.84430  0.20456  0.11920  Biso   1.000  C
  C31      1.0000 0.65570  0.70456  0.38080  Biso   1.000  C
  C32      1.0000 0.34430  0.70456  0.11920  Biso   1.000  C
  H17      1.0000 0.85870  0.75940  0.56410  Biso   1.000  H
  H18      1.0000 0.14130  0.75940  0.93590  Biso   1.000  H
  H19      1.0000 0.35870  0.25940  0.56410  Biso   1.000  H
  H20      1.0000 0.64130  0.25940  0.93590  Biso   1.000  H
  H21      1.0000 0.14130  0.24060  0.43590  Biso   1.000  H
  H22      1.0000 0.85870  0.24060  0.06410  Biso   1.000  H
  H23      1.0000 0.64130  0.74060  0.43590  Biso   1.000  H
  H24      1.0000 0.35870  0.74060  0.06410  Biso   1.000  H
  C33      1.0000 0.77070  0.77168  0.66840  Biso   1.000  C
  C34      1.0000 0.22930  0.77168  0.83160  Biso   1.000  C
  C35      1.0000 0.27070  0.27168  0.66840  Biso   1.000  C
  C36      1.0000 0.72930  0.27168  0.83160  Biso   1.000  C
  C37      1.0000 0.22930  0.22832  0.33160  Biso   1.000  C
  C38      1.0000 0.77070  0.22832  0.16840  Biso   1.000  C
  C39      1.0000 0.72930  0.72832  0.33160  Biso   1.000  C
  C40      1.0000 0.27070  0.72832  0.16840  Biso   1.000  C
  H25      1.0000 0.73650  0.72170  0.64230  Biso   1.000  H
  H26      1.0000 0.26350  0.72170  0.85770  Biso   1.000  H
  H27      1.0000 0.23650  0.22170  0.64230  Biso   1.000  H
  H28      1.0000 0.76350  0.22170  0.85770  Biso   1.000  H
  H29      1.0000 0.26350  0.27830  0.35770  Biso   1.000  H
  H30      1.0000 0.73650  0.27830  0.14230  Biso   1.000  H
  H31      1.0000 0.76350  0.77830  0.35770  Biso   1.000  H
  H32      1.0000 0.23650  0.77830  0.14230  Biso   1.000  H
  C41      1.0000 0.74853  0.82031  0.75330  Biso   1.000  C
  C42      1.0000 0.25147  0.82031  0.74670  Biso   1.000  C
  C43      1.0000 0.24853  0.32031  0.75330  Biso   1.000  C
  C44      1.0000 0.75147  0.32031  0.74670  Biso   1.000  C
  C45      1.0000 0.25147  0.17969  0.24670  Biso   1.000  C
  C46      1.0000 0.74853  0.17969  0.25330  Biso   1.000  C
  C47      1.0000 0.75147  0.67969  0.24670  Biso   1.000  C
  C48      1.0000 0.24853  0.67969  0.25330  Biso   1.000  C
  H33      1.0000 0.70090  0.80410  0.78620  Biso   1.000  H
  H34      1.0000 0.29910  0.80410  0.71380  Biso   1.000  H
  H35      1.0000 0.20090  0.30410  0.78620  Biso   1.000  H
  H36      1.0000 0.79910  0.30410  0.71380  Biso   1.000  H
  H37      1.0000 0.29910  0.19590  0.21380  Biso   1.000  H
  H38      1.0000 0.70090  0.19590  0.28620  Biso   1.000  H
  H39      1.0000 0.79910  0.69590  0.21380  Biso   1.000  H
  H40      1.0000 0.20090  0.69590  0.28620  Biso   1.000  H
  C49      1.0000 0.80152  0.89544  0.78750  Biso   1.000  C
  C50      1.0000 0.19848  0.89544  0.71250  Biso   1.000  C
  C51      1.0000 0.30152  0.39544  0.78750  Biso   1.000  C
  C52      1.0000 0.69848  0.39544  0.71250  Biso   1.000  C
  C53      1.0000 0.19848  0.10456  0.21250  Biso   1.000  C
  C54      1.0000 0.80152  0.10456  0.28750  Biso   1.000  C
  C55      1.0000 0.69848  0.60456  0.21250  Biso   1.000  C
  C56      1.0000 0.30152  0.60456  0.28750  Biso   1.000  C
  C57      1.0000 0.73918  0.96045  0.94710  Biso   1.000  C
  C58      1.0000 0.26082  0.96045  0.55290  Biso   1.000  C
  C59      1.0000 0.23918  0.46045  0.94710  Biso   1.000  C
  C60      1.0000 0.76082  0.46045  0.55290  Biso   1.000  C
  C61      1.0000 0.26082  0.03955  0.05290  Biso   1.000  C
  C62      1.0000 0.73918  0.03955  0.44710  Biso   1.000  C
  C63      1.0000 0.76082  0.53955  0.05290  Biso   1.000  C
  C64      1.0000 0.23918  0.53955  0.44710  Biso   1.000  C
  C65      1.0000 0.73270  0.88660  0.01160  Biso   1.000  C
  C66      1.0000 0.26730  0.88660  0.48840  Biso   1.000  C
  C67      1.0000 0.23270  0.38660  0.01160  Biso   1.000  C
  C68      1.0000 0.76730  0.38660  0.48840  Biso   1.000  C
  C69      1.0000 0.26730  0.11340  0.98840  Biso   1.000  C
  C70      1.0000 0.73270  0.11340  0.51160  Biso   1.000  C
  C71      1.0000 0.76730  0.61340  0.98840  Biso   1.000  C
  C72      1.0000 0.23270  0.61340  0.51160  Biso   1.000  C
  H41      1.0000 0.76670  0.83650  0.00550  Biso   1.000  H
  H42      1.0000 0.23330  0.83650  0.49450  Biso   1.000  H
  H43      1.0000 0.26670  0.33650  0.00550  Biso   1.000  H
  H44      1.0000 0.73330  0.33650  0.49450  Biso   1.000  H
  H45      1.0000 0.23330  0.16350  0.99450  Biso   1.000  H
  H46      1.0000 0.76670  0.16350  0.50550  Biso   1.000  H
  H47      1.0000 0.73330  0.66350  0.99450  Biso   1.000  H
  H48      1.0000 0.26670  0.66350  0.50550  Biso   1.000  H
  C73      1.0000 0.67480  0.88846  0.08520  Biso   1.000  C
  C74      1.0000 0.32520  0.88846  0.41480  Biso   1.000  C
  C75      1.0000 0.17480  0.38846  0.08520  Biso   1.000  C
  C76      1.0000 0.82520  0.38846  0.41480  Biso   1.000  C
  C77      1.0000 0.32520  0.11154  0.91480  Biso   1.000  C
  C78      1.0000 0.67480  0.11154  0.58520  Biso   1.000  C
  C79      1.0000 0.82520  0.61154  0.91480  Biso   1.000  C
  C80      1.0000 0.17480  0.61154  0.58520  Biso   1.000  C
  H49      1.0000 0.66960  0.83860  0.12730  Biso   1.000  H
  H50      1.0000 0.33040  0.83860  0.37270  Biso   1.000  H
  H51      1.0000 0.16960  0.33860  0.12730  Biso   1.000  H
  H52      1.0000 0.83040  0.33860  0.37270  Biso   1.000  H
  H53      1.0000 0.33040  0.16140  0.87270  Biso   1.000  H
  H54      1.0000 0.66960  0.16140  0.62730  Biso   1.000  H
  H55      1.0000 0.83040  0.66140  0.87270  Biso   1.000  H
  H56      1.0000 0.16960  0.66140  0.62730  Biso   1.000  H
  C81      1.0000 0.62384  0.96369  0.09780  Biso   1.000  C
  C82      1.0000 0.37616  0.96369  0.40220  Biso   1.000  C
  C83      1.0000 0.12384  0.46369  0.09780  Biso   1.000  C
  C84      1.0000 0.87616  0.46369  0.40220  Biso   1.000  C
  C85      1.0000 0.37616  0.03631  0.90220  Biso   1.000  C
  C86      1.0000 0.62384  0.03631  0.59780  Biso   1.000  C
  C87      1.0000 0.87616  0.53631  0.90220  Biso   1.000  C
  C88      1.0000 0.12384  0.53631  0.59780  Biso   1.000  C
  C89      1.0000 0.63268  0.03720  0.03210  Biso   1.000  C
  C90      1.0000 0.36732  0.03720  0.46790  Biso   1.000  C
  C91      1.0000 0.13268  0.53720  0.03210  Biso   1.000  C
  C92      1.0000 0.86732  0.53720  0.46790  Biso   1.000  C
  C93      1.0000 0.36732  0.96280  0.96790  Biso   1.000  C
  C94      1.0000 0.63268  0.96280  0.53210  Biso   1.000  C
  C95      1.0000 0.86732  0.46280  0.96790  Biso   1.000  C
  C96      1.0000 0.13268  0.46280  0.53210  Biso   1.000  C
  H57      1.0000 0.60000  0.08800  0.03910  Biso   1.000  H
  H58      1.0000 0.40000  0.08800  0.46090  Biso   1.000  H
  H59      1.0000 0.10000  0.58800  0.03910  Biso   1.000  H
  H60      1.0000 0.90000  0.58800  0.46090  Biso   1.000  H
  H61      1.0000 0.40000  0.91200  0.96090  Biso   1.000  H
  H62      1.0000 0.60000  0.91200  0.53910  Biso   1.000  H
  H63      1.0000 0.90000  0.41200  0.96090  Biso   1.000  H
  H64      1.0000 0.10000  0.41200  0.53910  Biso   1.000  H
  C97      1.0000 0.68927  0.03586  0.95650  Biso   1.000  C
  C98      1.0000 0.31073  0.03586  0.54350  Biso   1.000  C
  C99      1.0000 0.18927  0.53586  0.95650  Biso   1.000  C
  C100     1.0000 0.81073  0.53586  0.54350  Biso   1.000  C
  C101     1.0000 0.31073  0.96414  0.04350  Biso   1.000  C
  C102     1.0000 0.68927  0.96414  0.45650  Biso   1.000  C
  C103     1.0000 0.81073  0.46414  0.04350  Biso   1.000  C
  C104     1.0000 0.18927  0.46414  0.45650  Biso   1.000  C
  H65      1.0000 0.69370  0.08500  0.91270  Biso   1.000  H
  H66      1.0000 0.30630  0.08500  0.58730  Biso   1.000  H
  H67      1.0000 0.19370  0.58500  0.91270  Biso   1.000  H
  H68      1.0000 0.80630  0.58500  0.58730  Biso   1.000  H
  H69      1.0000 0.30630  0.91500  0.08730  Biso   1.000  H
  H70      1.0000 0.69370  0.91500  0.41270  Biso   1.000  H
  H71      1.0000 0.80630  0.41500  0.08730  Biso   1.000  H
  H72      1.0000 0.19370  0.41500  0.41270  Biso   1.000  H
  C105     1.0000 0.56072  0.96408  0.17610  Biso   1.000  C
  C106     1.0000 0.43928  0.96408  0.32390  Biso   1.000  C
  C107     1.0000 0.06072  0.46408  0.17610  Biso   1.000  C
  C108     1.0000 0.93928  0.46408  0.32390  Biso   1.000  C
  C109     1.0000 0.43928  0.03592  0.82390  Biso   1.000  C
  C110     1.0000 0.56072  0.03592  0.67610  Biso   1.000  C
  C111     1.0000 0.93928  0.53592  0.82390  Biso   1.000  C
  C112     1.0000 0.06072  0.53592  0.67610  Biso   1.000  C
  C113     1.0000 0.52982  0.04264  0.21390  Biso   1.000  C
  C114     1.0000 0.47018  0.04264  0.28610  Biso   1.000  C
  C115     1.0000 0.02982  0.54264  0.21390  Biso   1.000  C
  C116     1.0000 0.97018  0.54264  0.28610  Biso   1.000  C
  C117     1.0000 0.47018  0.95736  0.78610  Biso   1.000  C
  C118     1.0000 0.52982  0.95736  0.71390  Biso   1.000  C
  C119     1.0000 0.97018  0.45736  0.78610  Biso   1.000  C
  C120     1.0000 0.02982  0.45736  0.71390  Biso   1.000  C
  H73      1.0000 0.54940  0.09580  0.19030  Biso   1.000  H
  H74      1.0000 0.45060  0.09580  0.30970  Biso   1.000  H
  H75      1.0000 0.04940  0.59580  0.19030  Biso   1.000  H
  H76      1.0000 0.95060  0.59580  0.30970  Biso   1.000  H
  H77      1.0000 0.45060  0.90420  0.80970  Biso   1.000  H
  H78      1.0000 0.54940  0.90420  0.69030  Biso   1.000  H
  H79      1.0000 0.95060  0.40420  0.80970  Biso   1.000  H
  H80      1.0000 0.04940  0.40420  0.69030  Biso   1.000  H
  C121     1.0000 0.52938  0.88512  0.21280  Biso   1.000  C
  C122     1.0000 0.47062  0.88512  0.28720  Biso   1.000  C
  C123     1.0000 0.02938  0.38512  0.21280  Biso   1.000  C
  C124     1.0000 0.97062  0.38512  0.28720  Biso   1.000  C
  C125     1.0000 0.47062  0.11488  0.78720  Biso   1.000  C
  C126     1.0000 0.52938  0.11488  0.71280  Biso   1.000  C
  C127     1.0000 0.97062  0.61488  0.78720  Biso   1.000  C
  C128     1.0000 0.02938  0.61488  0.71280  Biso   1.000  C
  H81      1.0000 0.54780  0.83200  0.18750  Biso   1.000  H
  H82      1.0000 0.45220  0.83200  0.31250  Biso   1.000  H
  H83      1.0000 0.04780  0.33200  0.18750  Biso   1.000  H
  H84      1.0000 0.95220  0.33200  0.31250  Biso   1.000  H
  H85      1.0000 0.45220  0.16800  0.81250  Biso   1.000  H
  H86      1.0000 0.54780  0.16800  0.68750  Biso   1.000  H
  H87      1.0000 0.95220  0.66800  0.81250  Biso   1.000  H
  H88      1.0000 0.04780  0.66800  0.68750  Biso   1.000  H
  O1       1.0000 0.06322  0.18409  0.68862  Biso   1.000  O
  O2       1.0000 0.93678  0.18409  0.81138  Biso   1.000  O
  O3       1.0000 0.56322  0.68409  0.68862  Biso   1.000  O
  O4       1.0000 0.43678  0.68409  0.81138  Biso   1.000  O
  O5       1.0000 0.93678  0.81591  0.31138  Biso   1.000  O
  O6       1.0000 0.06322  0.81591  0.18862  Biso   1.000  O
  O7       1.0000 0.43678  0.31591  0.31138  Biso   1.000  O
  O8       1.0000 0.56322  0.31591  0.18862  Biso   1.000  O
  O9       1.0000 0.01639  0.26531  0.53840  Biso   1.000  O
  O10      1.0000 0.98361  0.26531  0.96160  Biso   1.000  O
  O11      1.0000 0.51639  0.76531  0.53840  Biso   1.000  O
  O12      1.0000 0.48361  0.76531  0.96160  Biso   1.000  O
  O13      1.0000 0.98361  0.73469  0.46160  Biso   1.000  O
  O14      1.0000 0.01639  0.73469  0.03840  Biso   1.000  O
  O15      1.0000 0.48361  0.23469  0.46160  Biso   1.000  O
  O16      1.0000 0.51639  0.23469  0.03840  Biso   1.000  O
  O17      1.0000 0.94347  0.14482  0.55870  Biso   1.000  O
  O18      1.0000 0.05653  0.14482  0.94130  Biso   1.000  O
  O19      1.0000 0.44347  0.64482  0.55870  Biso   1.000  O
  O20      1.0000 0.55653  0.64482  0.94130  Biso   1.000  O
  O21      1.0000 0.05653  0.85518  0.44130  Biso   1.000  O
  O22      1.0000 0.94347  0.85518  0.05870  Biso   1.000  O
  O23      1.0000 0.55653  0.35518  0.44130  Biso   1.000  O
  O24      1.0000 0.44347  0.35518  0.05870  Biso   1.000  O
