data_image0
_cell_length_a       7.712
_cell_length_b       9.2713
_cell_length_c       13.2452
_cell_angle_alpha    75.529
_cell_angle_beta     76.216
_cell_angle_gamma    78.117

_symmetry_space_group_name_H-M    "P 1"
_symmetry_int_tables_number       1

loop_
  _symmetry_equiv_pos_as_xyz
  'x, y, z'

loop_
  _atom_site_label
  _atom_site_occupancy
  _atom_site_fract_x
  _atom_site_fract_y
  _atom_site_fract_z
  _atom_site_thermal_displace_type
  _atom_site_B_iso_or_equiv
  _atom_site_type_symbol
  Yb1      1.0000 0.45178  0.44473  0.29969  Biso   1.000  Yb
  Yb2      1.0000 0.54822  0.55527  0.70031  Biso   1.000  Yb
  Cu1      1.0000 0.50000  0.00000  0.00000  Biso   1.000  Cu
  O1       1.0000 0.38900  0.39950  0.14500  Biso   1.000  O
  O2       1.0000 0.61100  0.60050  0.85500  Biso   1.000  O
  O3       1.0000 0.66840  0.44510  0.38770  Biso   1.000  O
  O4       1.0000 0.33160  0.55490  0.61230  Biso   1.000  O
  O5       1.0000 0.63700  0.58040  0.15790  Biso   1.000  O
  O6       1.0000 0.36300  0.41960  0.84210  Biso   1.000  O
  O7       1.0000 0.14600  0.52190  0.28910  Biso   1.000  O
  O8       1.0000 0.85400  0.47810  0.71090  Biso   1.000  O
  O9       1.0000 0.30890  0.39570  0.47510  Biso   1.000  O
  O10      1.0000 0.69110  0.60430  0.52490  Biso   1.000  O
  O11      1.0000 0.11140  0.27650  0.60520  Biso   1.000  O
  O12      1.0000 0.88860  0.72350  0.39480  Biso   1.000  O
  O13      1.0000 0.53020  0.85140  0.19460  Biso   1.000  O
  O14      1.0000 0.46980  0.14860  0.80540  Biso   1.000  O
  O15      1.0000 0.38030  0.68880  0.32320  Biso   1.000  O
  O16      1.0000 0.61970  0.31120  0.67680  Biso   1.000  O
  O17      1.0000 0.69500  0.26630  0.24530  Biso   1.000  O
  O18      1.0000 0.30500  0.73370  0.75470  Biso   1.000  O
  O19      1.0000 0.95210  0.32130  0.26020  Biso   1.000  O
  O20      1.0000 0.04790  0.67870  0.73980  Biso   1.000  O
  O21      1.0000 0.44780  0.81680  0.97520  Biso   1.000  O
  O22      1.0000 0.55220  0.18320  0.02480  Biso   1.000  O
  O23      1.0000 0.24110  0.66470  0.02590  Biso   1.000  O
  O24      1.0000 0.75890  0.33530  0.97410  Biso   1.000  O
  N1       1.0000 0.35740  0.19030  0.36260  Biso   1.000  N
  N2       1.0000 0.64260  0.80970  0.63740  Biso   1.000  N
  N3       1.0000 0.24160  0.02250  0.07150  Biso   1.000  N
  N4       1.0000 0.75840  0.97750  0.92850  Biso   1.000  N
  C1       1.0000 0.26460  0.15790  0.46260  Biso   1.000  C
  C2       1.0000 0.73540  0.84210  0.53740  Biso   1.000  C
  C3       1.0000 0.21220  0.01870  0.50960  Biso   1.000  C
  C4       1.0000 0.78780  0.98130  0.49040  Biso   1.000  C
  C5       1.0000 0.26370  0.90420  0.45290  Biso   1.000  C
  C6       1.0000 0.73630  0.09580  0.54710  Biso   1.000  C
  C7       1.0000 0.36190  0.93530  0.34900  Biso   1.000  C
  C8       1.0000 0.63810  0.06470  0.65100  Biso   1.000  C
  C9       1.0000 0.40310  0.07960  0.30730  Biso   1.000  C
  C10      1.0000 0.59690  0.92040  0.69270  Biso   1.000  C
  C11      1.0000 0.22270  0.28440  0.52060  Biso   1.000  C
  C12      1.0000 0.77730  0.71560  0.47940  Biso   1.000  C
  C13      1.0000 0.42850  0.81610  0.28320  Biso   1.000  C
  C14      1.0000 0.57150  0.18390  0.71680  Biso   1.000  C
  C15      1.0000 0.14400  0.13260  0.12040  Biso   1.000  C
  C16      1.0000 0.85600  0.86740  0.87960  Biso   1.000  C
  C17      1.0000 0.96780  0.12480  0.17530  Biso   1.000  C
  C18      1.0000 0.03220  0.87520  0.82470  Biso   1.000  C
  C19      1.0000 0.89490  0.99670  0.18400  Biso   1.000  C
  C20      1.0000 0.10510  0.00330  0.81600  Biso   1.000  C
  C21      1.0000 0.99650  0.88150  0.13630  Biso   1.000  C
  C22      1.0000 0.00350  0.11850  0.86370  Biso   1.000  C
  C23      1.0000 0.17030  0.89930  0.08020  Biso   1.000  C
  C24      1.0000 0.82970  0.10070  0.91980  Biso   1.000  C
  C25      1.0000 0.86240  0.25190  0.22800  Biso   1.000  C
  C26      1.0000 0.13760  0.74810  0.77200  Biso   1.000  C
  C27      1.0000 0.29150  0.78230  0.02410  Biso   1.000  C
  C28      1.0000 0.70850  0.21770  0.97590  Biso   1.000  C
  O25      1.0000 0.03500  0.49700  0.96520  Biso   1.000  O
  O26      1.0000 0.96500  0.50300  0.03480  Biso   1.000  O
  H1       1.0000 0.33610  0.46790  0.10640  Biso   1.000  H
  H2       1.0000 0.66390  0.53210  0.89360  Biso   1.000  H
  H3       1.0000 0.46530  0.35050  0.10650  Biso   1.000  H
  H4       1.0000 0.53470  0.64950  0.89350  Biso   1.000  H
  H5       1.0000 0.78170  0.42440  0.35540  Biso   1.000  H
  H6       1.0000 0.21830  0.57560  0.64460  Biso   1.000  H
  H7       1.0000 0.66500  0.50930  0.42170  Biso   1.000  H
  H8       1.0000 0.33500  0.49070  0.57830  Biso   1.000  H
  H9       1.0000 0.14340  0.00190  0.57820  Biso   1.000  H
  H10      1.0000 0.85660  0.99810  0.42180  Biso   1.000  H
  H11      1.0000 0.63650  0.66880  0.16450  Biso   1.000  H
  H12      1.0000 0.36350  0.33120  0.83550  Biso   1.000  H
  H13      1.0000 0.71990  0.56360  0.10850  Biso   1.000  H
  H14      1.0000 0.28010  0.43640  0.89150  Biso   1.000  H
  H15      1.0000 0.23320  0.80870  0.48370  Biso   1.000  H
  H16      1.0000 0.76680  0.19130  0.51630  Biso   1.000  H
  H17      1.0000 0.08720  0.47130  0.27160  Biso   1.000  H
  H18      1.0000 0.91280  0.52870  0.72840  Biso   1.000  H
  H19      1.0000 0.07080  0.58020  0.32070  Biso   1.000  H
  H20      1.0000 0.92920  0.41980  0.67930  Biso   1.000  H
  H21      1.0000 0.46570  0.10130  0.23730  Biso   1.000  H
  H22      1.0000 0.53430  0.89870  0.76270  Biso   1.000  H
  H23      1.0000 0.19600  0.21600  0.11730  Biso   1.000  H
  H24      1.0000 0.80400  0.78400  0.88270  Biso   1.000  H
  H25      1.0000 0.77800  0.98820  0.22180  Biso   1.000  H
  H26      1.0000 0.22200  0.01180  0.77820  Biso   1.000  H
  H27      1.0000 0.94980  0.79450  0.14160  Biso   1.000  H
  H28      1.0000 0.05020  0.20550  0.85840  Biso   1.000  H
  H29      1.0000 0.01660  0.56250  0.90790  Biso   1.000  H
  H30      1.0000 0.98340  0.43750  0.09210  Biso   1.000  H
  H31      1.0000 0.95150  0.44950  0.96530  Biso   1.000  H
  H32      1.0000 0.04850  0.55050  0.03470  Biso   1.000  H
