data_image0
_cell_length_a       25.3992
_cell_length_b       8.1066
_cell_length_c       14.2791
_cell_angle_alpha    90
_cell_angle_beta     96.491
_cell_angle_gamma    90

_symmetry_space_group_name_H-M    "P 1"
_symmetry_int_tables_number       1

loop_
  _symmetry_equiv_pos_as_xyz
  'x, y, z'

loop_
  _atom_site_label
  _atom_site_occupancy
  _atom_site_fract_x
  _atom_site_fract_y
  _atom_site_fract_z
  _atom_site_thermal_displace_type
  _atom_site_B_iso_or_equiv
  _atom_site_type_symbol
  Cu1      1.0000 0.50000  0.71734  0.25000  Biso   1.000  Cu
  Cu2      1.0000 0.00000  0.21734  0.25000  Biso   1.000  Cu
  Cu3      1.0000 0.50000  0.28266  0.75000  Biso   1.000  Cu
  Cu4      1.0000 0.00000  0.78266  0.75000  Biso   1.000  Cu
  Cl1      1.0000 0.45483  0.21816  0.03365  Biso   1.000  Cl
  Cl2      1.0000 0.54517  0.21816  0.46635  Biso   1.000  Cl
  Cl3      1.0000 0.95483  0.71816  0.03365  Biso   1.000  Cl
  Cl4      1.0000 0.04517  0.71816  0.46635  Biso   1.000  Cl
  Cl5      1.0000 0.54517  0.78184  0.96635  Biso   1.000  Cl
  Cl6      1.0000 0.45483  0.78184  0.53365  Biso   1.000  Cl
  Cl7      1.0000 0.04517  0.28184  0.96635  Biso   1.000  Cl
  Cl8      1.0000 0.95483  0.28184  0.53365  Biso   1.000  Cl
  O1       1.0000 0.48539  0.50662  0.15751  Biso   1.000  O
  O2       1.0000 0.51461  0.50662  0.34249  Biso   1.000  O
  O3       1.0000 0.98539  0.00662  0.15751  Biso   1.000  O
  O4       1.0000 0.01461  0.00662  0.34249  Biso   1.000  O
  O5       1.0000 0.51461  0.49338  0.84249  Biso   1.000  O
  O6       1.0000 0.48539  0.49338  0.65751  Biso   1.000  O
  O7       1.0000 0.01461  0.99338  0.84249  Biso   1.000  O
  O8       1.0000 0.98539  0.99338  0.65751  Biso   1.000  O
  O9       1.0000 0.48434  0.92942  0.15832  Biso   1.000  O
  O10      1.0000 0.51566  0.92942  0.34168  Biso   1.000  O
  O11      1.0000 0.98434  0.42942  0.15832  Biso   1.000  O
  O12      1.0000 0.01566  0.42942  0.34168  Biso   1.000  O
  O13      1.0000 0.51566  0.07058  0.84168  Biso   1.000  O
  O14      1.0000 0.48434  0.07058  0.65832  Biso   1.000  O
  O15      1.0000 0.01566  0.57058  0.84168  Biso   1.000  O
  O16      1.0000 0.98434  0.57058  0.65832  Biso   1.000  O
  C1       1.0000 0.49018  0.36930  0.19700  Biso   1.000  C
  C2       1.0000 0.50982  0.36930  0.30300  Biso   1.000  C
  C3       1.0000 0.99018  0.86930  0.19700  Biso   1.000  C
  C4       1.0000 0.00982  0.86930  0.30300  Biso   1.000  C
  C5       1.0000 0.50982  0.63070  0.80300  Biso   1.000  C
  C6       1.0000 0.49018  0.63070  0.69700  Biso   1.000  C
  C7       1.0000 0.00982  0.13070  0.80300  Biso   1.000  C
  C8       1.0000 0.99018  0.13070  0.69700  Biso   1.000  C
  C9       1.0000 0.47899  0.21800  0.15173  Biso   1.000  C
  C10      1.0000 0.52101  0.21800  0.34827  Biso   1.000  C
  C11      1.0000 0.97899  0.71800  0.15173  Biso   1.000  C
  C12      1.0000 0.02101  0.71800  0.34827  Biso   1.000  C
  C13      1.0000 0.52101  0.78200  0.84827  Biso   1.000  C
  C14      1.0000 0.47899  0.78200  0.65173  Biso   1.000  C
  C15      1.0000 0.02101  0.28200  0.84827  Biso   1.000  C
  C16      1.0000 0.97899  0.28200  0.65173  Biso   1.000  C
  C17      1.0000 0.48956  0.06810  0.19754  Biso   1.000  C
  C18      1.0000 0.51044  0.06810  0.30246  Biso   1.000  C
  C19      1.0000 0.98956  0.56810  0.19754  Biso   1.000  C
  C20      1.0000 0.01044  0.56810  0.30246  Biso   1.000  C
  C21      1.0000 0.51044  0.93190  0.80246  Biso   1.000  C
  C22      1.0000 0.48956  0.93190  0.69754  Biso   1.000  C
  C23      1.0000 0.01044  0.43190  0.80246  Biso   1.000  C
  C24      1.0000 0.98956  0.43190  0.69754  Biso   1.000  C
  N1       1.0000 0.57712  0.72230  0.23341  Biso   1.000  N
  N2       1.0000 0.42288  0.72230  0.26659  Biso   1.000  N
  N3       1.0000 0.07712  0.22230  0.23341  Biso   1.000  N
  N4       1.0000 0.92288  0.22230  0.26659  Biso   1.000  N
  N5       1.0000 0.42288  0.27770  0.76659  Biso   1.000  N
  N6       1.0000 0.57712  0.27770  0.73341  Biso   1.000  N
  N7       1.0000 0.92288  0.77770  0.76659  Biso   1.000  N
  N8       1.0000 0.07712  0.77770  0.73341  Biso   1.000  N
  N9       1.0000 0.66202  0.67640  0.26052  Biso   1.000  N
  N10      1.0000 0.33798  0.67640  0.23948  Biso   1.000  N
  N11      1.0000 0.16202  0.17640  0.26052  Biso   1.000  N
  N12      1.0000 0.83798  0.17640  0.23948  Biso   1.000  N
  N13      1.0000 0.33798  0.32360  0.73948  Biso   1.000  N
  N14      1.0000 0.66202  0.32360  0.76052  Biso   1.000  N
  N15      1.0000 0.83798  0.82360  0.73948  Biso   1.000  N
  N16      1.0000 0.16202  0.82360  0.76052  Biso   1.000  N
  H1       1.0000 0.69150  0.62890  0.28010  Biso   1.000  H
  H2       1.0000 0.30850  0.62890  0.21990  Biso   1.000  H
  H3       1.0000 0.19150  0.12890  0.28010  Biso   1.000  H
  H4       1.0000 0.80850  0.12890  0.21990  Biso   1.000  H
  H5       1.0000 0.30850  0.37110  0.71990  Biso   1.000  H
  H6       1.0000 0.69150  0.37110  0.78010  Biso   1.000  H
  H7       1.0000 0.80850  0.87110  0.71990  Biso   1.000  H
  H8       1.0000 0.19150  0.87110  0.78010  Biso   1.000  H
  C25      1.0000 0.61420  0.62360  0.27385  Biso   1.000  C
  C26      1.0000 0.38580  0.62360  0.22615  Biso   1.000  C
  C27      1.0000 0.11420  0.12360  0.27385  Biso   1.000  C
  C28      1.0000 0.88580  0.12360  0.22615  Biso   1.000  C
  C29      1.0000 0.38580  0.37640  0.72615  Biso   1.000  C
  C30      1.0000 0.61420  0.37640  0.77385  Biso   1.000  C
  C31      1.0000 0.88580  0.87640  0.72615  Biso   1.000  C
  C32      1.0000 0.11420  0.87640  0.77385  Biso   1.000  C
  H9       1.0000 0.60760  0.52900  0.30740  Biso   1.000  H
  H10      1.0000 0.39240  0.52900  0.19260  Biso   1.000  H
  H11      1.0000 0.10760  0.02900  0.30740  Biso   1.000  H
  H12      1.0000 0.89240  0.02900  0.19260  Biso   1.000  H
  H13      1.0000 0.39240  0.47100  0.69260  Biso   1.000  H
  H14      1.0000 0.60760  0.47100  0.80740  Biso   1.000  H
  H15      1.0000 0.89240  0.97100  0.69260  Biso   1.000  H
  H16      1.0000 0.10760  0.97100  0.80740  Biso   1.000  H
  C33      1.0000 0.65633  0.81950  0.21020  Biso   1.000  C
  C34      1.0000 0.34367  0.81950  0.28980  Biso   1.000  C
  C35      1.0000 0.15633  0.31950  0.21020  Biso   1.000  C
  C36      1.0000 0.84367  0.31950  0.28980  Biso   1.000  C
  C37      1.0000 0.34367  0.18050  0.78980  Biso   1.000  C
  C38      1.0000 0.65633  0.18050  0.71020  Biso   1.000  C
  C39      1.0000 0.84367  0.68050  0.78980  Biso   1.000  C
  C40      1.0000 0.15633  0.68050  0.71020  Biso   1.000  C
  H17      1.0000 0.68320  0.88540  0.19160  Biso   1.000  H
  H18      1.0000 0.31680  0.88540  0.30840  Biso   1.000  H
  H19      1.0000 0.18320  0.38540  0.19160  Biso   1.000  H
  H20      1.0000 0.81680  0.38540  0.30840  Biso   1.000  H
  H21      1.0000 0.31680  0.11460  0.80840  Biso   1.000  H
  H22      1.0000 0.68320  0.11460  0.69160  Biso   1.000  H
  H23      1.0000 0.81680  0.61460  0.80840  Biso   1.000  H
  H24      1.0000 0.18320  0.61460  0.69160  Biso   1.000  H
  C41      1.0000 0.60369  0.84610  0.19307  Biso   1.000  C
  C42      1.0000 0.39631  0.84610  0.30693  Biso   1.000  C
  C43      1.0000 0.10369  0.34610  0.19307  Biso   1.000  C
  C44      1.0000 0.89631  0.34610  0.30693  Biso   1.000  C
  C45      1.0000 0.39631  0.15390  0.80693  Biso   1.000  C
  C46      1.0000 0.60369  0.15390  0.69307  Biso   1.000  C
  C47      1.0000 0.89631  0.65390  0.80693  Biso   1.000  C
  C48      1.0000 0.10369  0.65390  0.69307  Biso   1.000  C
  H25      1.0000 0.58790  0.93450  0.15920  Biso   1.000  H
  H26      1.0000 0.41210  0.93450  0.34080  Biso   1.000  H
  H27      1.0000 0.08790  0.43450  0.15920  Biso   1.000  H
  H28      1.0000 0.91210  0.43450  0.34080  Biso   1.000  H
  H29      1.0000 0.41210  0.06550  0.84080  Biso   1.000  H
  H30      1.0000 0.58790  0.06550  0.65920  Biso   1.000  H
  H31      1.0000 0.91210  0.56550  0.84080  Biso   1.000  H
  H32      1.0000 0.08790  0.56550  0.65920  Biso   1.000  H
  Cu5      1.0000 0.25000  0.75000  0.00000  Biso   1.000  Cu
  Cu6      1.0000 0.75000  0.75000  0.50000  Biso   1.000  Cu
  Cu7      1.0000 0.75000  0.25000  0.00000  Biso   1.000  Cu
  Cu8      1.0000 0.25000  0.25000  0.50000  Biso   1.000  Cu
  Cl9      1.0000 0.29585  0.23215  0.21603  Biso   1.000  Cl
  Cl10     1.0000 0.70415  0.23215  0.28397  Biso   1.000  Cl
  Cl11     1.0000 0.79585  0.73215  0.21603  Biso   1.000  Cl
  Cl12     1.0000 0.20415  0.73215  0.28397  Biso   1.000  Cl
  Cl13     1.0000 0.70415  0.76785  0.78397  Biso   1.000  Cl
  Cl14     1.0000 0.29585  0.76785  0.71603  Biso   1.000  Cl
  Cl15     1.0000 0.20415  0.26785  0.78397  Biso   1.000  Cl
  Cl16     1.0000 0.79585  0.26785  0.71603  Biso   1.000  Cl
  O17      1.0000 0.26508  0.95285  0.08412  Biso   1.000  O
  O18      1.0000 0.73492  0.95285  0.41588  Biso   1.000  O
  O19      1.0000 0.76508  0.45285  0.08412  Biso   1.000  O
  O20      1.0000 0.23492  0.45285  0.41588  Biso   1.000  O
  O21      1.0000 0.73492  0.04715  0.91588  Biso   1.000  O
  O22      1.0000 0.26508  0.04715  0.58412  Biso   1.000  O
  O23      1.0000 0.23492  0.54715  0.91588  Biso   1.000  O
  O24      1.0000 0.76508  0.54715  0.58412  Biso   1.000  O
  O25      1.0000 0.23539  0.97147  0.89981  Biso   1.000  O
  O26      1.0000 0.76461  0.97147  0.60019  Biso   1.000  O
  O27      1.0000 0.73539  0.47147  0.89981  Biso   1.000  O
  O28      1.0000 0.26461  0.47147  0.60019  Biso   1.000  O
  O29      1.0000 0.76461  0.02853  0.10019  Biso   1.000  O
  O30      1.0000 0.23539  0.02853  0.39981  Biso   1.000  O
  O31      1.0000 0.26461  0.52853  0.10019  Biso   1.000  O
  O32      1.0000 0.73539  0.52853  0.39981  Biso   1.000  O
  C49      1.0000 0.26022  0.09450  0.04839  Biso   1.000  C
  C50      1.0000 0.73978  0.09450  0.45161  Biso   1.000  C
  C51      1.0000 0.76022  0.59450  0.04839  Biso   1.000  C
  C52      1.0000 0.23978  0.59450  0.45161  Biso   1.000  C
  C53      1.0000 0.73978  0.90550  0.95161  Biso   1.000  C
  C54      1.0000 0.26022  0.90550  0.54839  Biso   1.000  C
  C55      1.0000 0.23978  0.40550  0.95161  Biso   1.000  C
  C56      1.0000 0.76022  0.40550  0.54839  Biso   1.000  C
  C57      1.0000 0.27171  0.24000  0.09835  Biso   1.000  C
  C58      1.0000 0.72829  0.24000  0.40165  Biso   1.000  C
  C59      1.0000 0.77171  0.74000  0.09835  Biso   1.000  C
  C60      1.0000 0.22829  0.74000  0.40165  Biso   1.000  C
  C61      1.0000 0.72829  0.76000  0.90165  Biso   1.000  C
  C62      1.0000 0.27171  0.76000  0.59835  Biso   1.000  C
  C63      1.0000 0.22829  0.26000  0.90165  Biso   1.000  C
  C64      1.0000 0.77171  0.26000  0.59835  Biso   1.000  C
  C65      1.0000 0.23987  0.10480  0.94308  Biso   1.000  C
  C66      1.0000 0.76013  0.10480  0.55692  Biso   1.000  C
  C67      1.0000 0.73987  0.60480  0.94308  Biso   1.000  C
  C68      1.0000 0.26013  0.60480  0.55692  Biso   1.000  C
  C69      1.0000 0.76013  0.89520  0.05692  Biso   1.000  C
  C70      1.0000 0.23987  0.89520  0.44308  Biso   1.000  C
  C71      1.0000 0.26013  0.39520  0.05692  Biso   1.000  C
  C72      1.0000 0.73987  0.39520  0.44308  Biso   1.000  C
  N17      1.0000 0.32735  0.74090  0.98439  Biso   1.000  N
  N18      1.0000 0.67265  0.74090  0.51561  Biso   1.000  N
  N19      1.0000 0.82735  0.24090  0.98439  Biso   1.000  N
  N20      1.0000 0.17265  0.24090  0.51561  Biso   1.000  N
  N21      1.0000 0.67265  0.25910  0.01561  Biso   1.000  N
  N22      1.0000 0.32735  0.25910  0.48439  Biso   1.000  N
  N23      1.0000 0.17265  0.75910  0.01561  Biso   1.000  N
  N24      1.0000 0.82735  0.75910  0.48439  Biso   1.000  N
  N25      1.0000 0.41234  0.78490  0.01073  Biso   1.000  N
  N26      1.0000 0.58766  0.78490  0.48927  Biso   1.000  N
  N27      1.0000 0.91234  0.28490  0.01073  Biso   1.000  N
  N28      1.0000 0.08766  0.28490  0.48927  Biso   1.000  N
  N29      1.0000 0.58766  0.21510  0.98927  Biso   1.000  N
  N30      1.0000 0.41234  0.21510  0.51073  Biso   1.000  N
  N31      1.0000 0.08766  0.71510  0.98927  Biso   1.000  N
  N32      1.0000 0.91234  0.71510  0.51073  Biso   1.000  N
  H33      1.0000 0.44190  0.83130  0.03080  Biso   1.000  H
  H34      1.0000 0.55810  0.83130  0.46920  Biso   1.000  H
  H35      1.0000 0.94190  0.33130  0.03080  Biso   1.000  H
  H36      1.0000 0.05810  0.33130  0.46920  Biso   1.000  H
  H37      1.0000 0.55810  0.16870  0.96920  Biso   1.000  H
  H38      1.0000 0.44190  0.16870  0.53080  Biso   1.000  H
  H39      1.0000 0.05810  0.66870  0.96920  Biso   1.000  H
  H40      1.0000 0.94190  0.66870  0.53080  Biso   1.000  H
  C73      1.0000 0.36466  0.83690  0.02614  Biso   1.000  C
  C74      1.0000 0.63534  0.83690  0.47386  Biso   1.000  C
  C75      1.0000 0.86466  0.33690  0.02614  Biso   1.000  C
  C76      1.0000 0.13534  0.33690  0.47386  Biso   1.000  C
  C77      1.0000 0.63534  0.16310  0.97386  Biso   1.000  C
  C78      1.0000 0.36466  0.16310  0.52614  Biso   1.000  C
  C79      1.0000 0.13534  0.66310  0.97386  Biso   1.000  C
  C80      1.0000 0.86466  0.66310  0.52614  Biso   1.000  C
  H41      1.0000 0.35840  0.92920  0.06190  Biso   1.000  H
  H42      1.0000 0.64160  0.92920  0.43810  Biso   1.000  H
  H43      1.0000 0.85840  0.42920  0.06190  Biso   1.000  H
  H44      1.0000 0.14160  0.42920  0.43810  Biso   1.000  H
  H45      1.0000 0.64160  0.07080  0.93810  Biso   1.000  H
  H46      1.0000 0.35840  0.07080  0.56190  Biso   1.000  H
  H47      1.0000 0.14160  0.57080  0.93810  Biso   1.000  H
  H48      1.0000 0.85840  0.57080  0.56190  Biso   1.000  H
  C81      1.0000 0.40635  0.64540  0.95770  Biso   1.000  C
  C82      1.0000 0.59365  0.64540  0.54230  Biso   1.000  C
  C83      1.0000 0.90635  0.14540  0.95770  Biso   1.000  C
  C84      1.0000 0.09365  0.14540  0.54230  Biso   1.000  C
  C85      1.0000 0.59365  0.35460  0.04230  Biso   1.000  C
  C86      1.0000 0.40635  0.35460  0.45770  Biso   1.000  C
  C87      1.0000 0.09365  0.85460  0.04230  Biso   1.000  C
  C88      1.0000 0.90635  0.85460  0.45770  Biso   1.000  C
  H49      1.0000 0.43310  0.58060  0.93740  Biso   1.000  H
  H50      1.0000 0.56690  0.58060  0.56260  Biso   1.000  H
  H51      1.0000 0.93310  0.08060  0.93740  Biso   1.000  H
  H52      1.0000 0.06690  0.08060  0.56260  Biso   1.000  H
  H53      1.0000 0.56690  0.41940  0.06260  Biso   1.000  H
  H54      1.0000 0.43310  0.41940  0.43740  Biso   1.000  H
  H55      1.0000 0.06690  0.91940  0.06260  Biso   1.000  H
  H56      1.0000 0.93310  0.91940  0.43740  Biso   1.000  H
  C89      1.0000 0.35350  0.62020  0.94048  Biso   1.000  C
  C90      1.0000 0.64650  0.62020  0.55952  Biso   1.000  C
  C91      1.0000 0.85350  0.12020  0.94048  Biso   1.000  C
  C92      1.0000 0.14650  0.12020  0.55952  Biso   1.000  C
  C93      1.0000 0.64650  0.37980  0.05952  Biso   1.000  C
  C94      1.0000 0.35350  0.37980  0.44048  Biso   1.000  C
  C95      1.0000 0.14650  0.87980  0.05952  Biso   1.000  C
  C96      1.0000 0.85350  0.87980  0.44048  Biso   1.000  C
  H57      1.0000 0.33740  0.53460  0.90450  Biso   1.000  H
  H58      1.0000 0.66260  0.53460  0.59550  Biso   1.000  H
  H59      1.0000 0.83740  0.03460  0.90450  Biso   1.000  H
  H60      1.0000 0.16260  0.03460  0.59550  Biso   1.000  H
  H61      1.0000 0.66260  0.46540  0.09550  Biso   1.000  H
  H62      1.0000 0.33740  0.46540  0.40450  Biso   1.000  H
  H63      1.0000 0.16260  0.96540  0.09550  Biso   1.000  H
  H64      1.0000 0.83740  0.96540  0.40450  Biso   1.000  H
