data_image0
_cell_length_a       6.9718
_cell_length_b       11.8902
_cell_length_c       24.7024
_cell_angle_alpha    90
_cell_angle_beta     90
_cell_angle_gamma    90

_symmetry_space_group_name_H-M    "P 1"
_symmetry_int_tables_number       1

loop_
  _symmetry_equiv_pos_as_xyz
  'x, y, z'

loop_
  _atom_site_label
  _atom_site_occupancy
  _atom_site_fract_x
  _atom_site_fract_y
  _atom_site_fract_z
  _atom_site_thermal_displace_type
  _atom_site_B_iso_or_equiv
  _atom_site_type_symbol
  Cu1      1.0000 0.03097  0.92990  0.00715  Biso   1.000  Cu
  Cu2      1.0000 0.46903  0.07010  0.50715  Biso   1.000  Cu
  Cu3      1.0000 0.96903  0.42990  0.49285  Biso   1.000  Cu
  Cu4      1.0000 0.53097  0.57010  0.99285  Biso   1.000  Cu
  S1       1.0000 0.14870  0.72711  0.75829  Biso   1.000  S
  S2       1.0000 0.35130  0.27289  0.25829  Biso   1.000  S
  S3       1.0000 0.85130  0.22711  0.74171  Biso   1.000  S
  S4       1.0000 0.64870  0.77289  0.24171  Biso   1.000  S
  C1       1.0000 0.02060  0.18390  0.96479  Biso   1.000  C
  C2       1.0000 0.47940  0.81610  0.46479  Biso   1.000  C
  C3       1.0000 0.97940  0.68390  0.53521  Biso   1.000  C
  C4       1.0000 0.52060  0.31610  0.03521  Biso   1.000  C
  C5       1.0000 0.01980  0.18400  0.90774  Biso   1.000  C
  C6       1.0000 0.48020  0.81600  0.40774  Biso   1.000  C
  C7       1.0000 0.98020  0.68400  0.59226  Biso   1.000  C
  C8       1.0000 0.51980  0.31600  0.09226  Biso   1.000  C
  H1       1.0000 0.01610  0.11760  0.88790  Biso   1.000  H
  H2       1.0000 0.48390  0.88240  0.38790  Biso   1.000  H
  H3       1.0000 0.98390  0.61760  0.61210  Biso   1.000  H
  H4       1.0000 0.51610  0.38240  0.11210  Biso   1.000  H
  C9       1.0000 0.02460  0.28880  0.88271  Biso   1.000  C
  C10      1.0000 0.47540  0.71120  0.38271  Biso   1.000  C
  C11      1.0000 0.97540  0.78880  0.61729  Biso   1.000  C
  C12      1.0000 0.52460  0.21120  0.11729  Biso   1.000  C
  H5       1.0000 0.02440  0.29230  0.84510  Biso   1.000  H
  H6       1.0000 0.47560  0.70770  0.34510  Biso   1.000  H
  H7       1.0000 0.97560  0.79230  0.65490  Biso   1.000  H
  H8       1.0000 0.52440  0.20770  0.15490  Biso   1.000  H
  C13      1.0000 0.02970  0.38740  0.91190  Biso   1.000  C
  C14      1.0000 0.47030  0.61260  0.41190  Biso   1.000  C
  C15      1.0000 0.97030  0.88740  0.58810  Biso   1.000  C
  C16      1.0000 0.52970  0.11260  0.08810  Biso   1.000  C
  H9       1.0000 0.03110  0.45520  0.89320  Biso   1.000  H
  H10      1.0000 0.46890  0.54480  0.39320  Biso   1.000  H
  H11      1.0000 0.96890  0.95520  0.60680  Biso   1.000  H
  H12      1.0000 0.53110  0.04480  0.10680  Biso   1.000  H
  C17      1.0000 0.03290  0.39000  0.96696  Biso   1.000  C
  C18      1.0000 0.46710  0.61000  0.46696  Biso   1.000  C
  C19      1.0000 0.96710  0.89000  0.53304  Biso   1.000  C
  C20      1.0000 0.53290  0.11000  0.03304  Biso   1.000  C
  H13      1.0000 0.03900  0.45730  0.98610  Biso   1.000  H
  H14      1.0000 0.46100  0.54270  0.48610  Biso   1.000  H
  H15      1.0000 0.96100  0.95730  0.51390  Biso   1.000  H
  H16      1.0000 0.53900  0.04270  0.01390  Biso   1.000  H
  C21      1.0000 0.02650  0.28740  0.99268  Biso   1.000  C
  C22      1.0000 0.47350  0.71260  0.49268  Biso   1.000  C
  C23      1.0000 0.97350  0.78740  0.50732  Biso   1.000  C
  C24      1.0000 0.52650  0.21260  0.00732  Biso   1.000  C
  C25      1.0000 0.03030  0.14510  0.04985  Biso   1.000  C
  C26      1.0000 0.46970  0.85490  0.54985  Biso   1.000  C
  C27      1.0000 0.96970  0.64510  0.45015  Biso   1.000  C
  C28      1.0000 0.53030  0.35490  0.95015  Biso   1.000  C
  C29      1.0000 0.04520  0.07740  0.09845  Biso   1.000  C
  C30      1.0000 0.45480  0.92260  0.59845  Biso   1.000  C
  C31      1.0000 0.95480  0.57740  0.40155  Biso   1.000  C
  C32      1.0000 0.54520  0.42260  0.90155  Biso   1.000  C
  C33      1.0000 0.04410  0.11670  0.15117  Biso   1.000  C
  C34      1.0000 0.45590  0.88330  0.65117  Biso   1.000  C
  C35      1.0000 0.95590  0.61670  0.34883  Biso   1.000  C
  C36      1.0000 0.54410  0.38330  0.84883  Biso   1.000  C
  H17      1.0000 0.03340  0.19330  0.15840  Biso   1.000  H
  H18      1.0000 0.46660  0.80670  0.65840  Biso   1.000  H
  H19      1.0000 0.96660  0.69330  0.34160  Biso   1.000  H
  H20      1.0000 0.53340  0.30670  0.84160  Biso   1.000  H
  C37      1.0000 0.05900  0.04050  0.19261  Biso   1.000  C
  C38      1.0000 0.44100  0.95950  0.69261  Biso   1.000  C
  C39      1.0000 0.94100  0.54050  0.30739  Biso   1.000  C
  C40      1.0000 0.55900  0.45950  0.80739  Biso   1.000  C
  H21      1.0000 0.05740  0.06460  0.22840  Biso   1.000  H
  H22      1.0000 0.44260  0.93540  0.72840  Biso   1.000  H
  H23      1.0000 0.94260  0.56460  0.27160  Biso   1.000  H
  H24      1.0000 0.55740  0.43540  0.77160  Biso   1.000  H
  C41      1.0000 0.07670  0.92580  0.18046  Biso   1.000  C
  C42      1.0000 0.42330  0.07420  0.68046  Biso   1.000  C
  C43      1.0000 0.92330  0.42580  0.31954  Biso   1.000  C
  C44      1.0000 0.57670  0.57420  0.81954  Biso   1.000  C
  H25      1.0000 0.08780  0.87290  0.20800  Biso   1.000  H
  H26      1.0000 0.41220  0.12710  0.70800  Biso   1.000  H
  H27      1.0000 0.91220  0.37290  0.29200  Biso   1.000  H
  H28      1.0000 0.58780  0.62710  0.79200  Biso   1.000  H
  C45      1.0000 0.07740  0.89310  0.12754  Biso   1.000  C
  C46      1.0000 0.42260  0.10690  0.62754  Biso   1.000  C
  C47      1.0000 0.92260  0.39310  0.37246  Biso   1.000  C
  C48      1.0000 0.57740  0.60690  0.87246  Biso   1.000  C
  H29      1.0000 0.08850  0.81690  0.11960  Biso   1.000  H
  H30      1.0000 0.41150  0.18310  0.61960  Biso   1.000  H
  H31      1.0000 0.91150  0.31690  0.38040  Biso   1.000  H
  H32      1.0000 0.58850  0.68310  0.88040  Biso   1.000  H
  C49      1.0000 0.15480  0.72210  0.97297  Biso   1.000  C
  C50      1.0000 0.34520  0.27790  0.47297  Biso   1.000  C
  C51      1.0000 0.84520  0.22210  0.52703  Biso   1.000  C
  C52      1.0000 0.65480  0.77790  0.02703  Biso   1.000  C
  C53      1.0000 0.04200  0.76670  0.92357  Biso   1.000  C
  C54      1.0000 0.45800  0.23330  0.42357  Biso   1.000  C
  C55      1.0000 0.95800  0.26670  0.57643  Biso   1.000  C
  C56      1.0000 0.54200  0.73330  0.07643  Biso   1.000  C
  H33      1.0000 0.91560  0.73070  0.92400  Biso   1.000  H
  H34      1.0000 0.58440  0.26930  0.42400  Biso   1.000  H
  H35      1.0000 0.08440  0.23070  0.57600  Biso   1.000  H
  H36      1.0000 0.41560  0.76930  0.07600  Biso   1.000  H
  C57      1.0000 0.14020  0.73420  0.87040  Biso   1.000  C
  C58      1.0000 0.35980  0.26580  0.37040  Biso   1.000  C
  C59      1.0000 0.85980  0.23420  0.62960  Biso   1.000  C
  C60      1.0000 0.64020  0.76580  0.12960  Biso   1.000  C
  H37      1.0000 0.26770  0.76670  0.86970  Biso   1.000  H
  H38      1.0000 0.23230  0.23330  0.36970  Biso   1.000  H
  H39      1.0000 0.73230  0.26670  0.63030  Biso   1.000  H
  H40      1.0000 0.76770  0.73330  0.13030  Biso   1.000  H
  H41      1.0000 0.15430  0.65300  0.86920  Biso   1.000  H
  H42      1.0000 0.34570  0.34700  0.36920  Biso   1.000  H
  H43      1.0000 0.84570  0.15300  0.63080  Biso   1.000  H
  H44      1.0000 0.65430  0.84700  0.13080  Biso   1.000  H
  C61      1.0000 0.03110  0.77260  0.81999  Biso   1.000  C
  C62      1.0000 0.46890  0.22740  0.31999  Biso   1.000  C
  C63      1.0000 0.96890  0.27260  0.68001  Biso   1.000  C
  C64      1.0000 0.53110  0.72740  0.18001  Biso   1.000  C
  H45      1.0000 0.02170  0.85400  0.82010  Biso   1.000  H
  H46      1.0000 0.47830  0.14600  0.32010  Biso   1.000  H
  H47      1.0000 0.97830  0.35400  0.67990  Biso   1.000  H
  H48      1.0000 0.52170  0.64600  0.17990  Biso   1.000  H
  H49      1.0000 0.90200  0.74230  0.82100  Biso   1.000  H
  H50      1.0000 0.59800  0.25770  0.32100  Biso   1.000  H
  H51      1.0000 0.09800  0.24230  0.67900  Biso   1.000  H
  H52      1.0000 0.40200  0.75770  0.17900  Biso   1.000  H
  C65      1.0000 0.08180  0.58770  0.75330  Biso   1.000  C
  C66      1.0000 0.41820  0.41230  0.25330  Biso   1.000  C
  C67      1.0000 0.91820  0.08770  0.74670  Biso   1.000  C
  C68      1.0000 0.58180  0.91230  0.24670  Biso   1.000  C
  H53      1.0000 0.09840  0.55160  0.78780  Biso   1.000  H
  H54      1.0000 0.40160  0.44840  0.28780  Biso   1.000  H
  H55      1.0000 0.90160  0.05160  0.71220  Biso   1.000  H
  H56      1.0000 0.59840  0.94840  0.21220  Biso   1.000  H
  H57      1.0000 0.16020  0.55080  0.72680  Biso   1.000  H
  H58      1.0000 0.33980  0.44920  0.22680  Biso   1.000  H
  H59      1.0000 0.83980  0.05080  0.77320  Biso   1.000  H
  H60      1.0000 0.66020  0.94920  0.27320  Biso   1.000  H
  H61      1.0000 0.94960  0.58310  0.74270  Biso   1.000  H
  H62      1.0000 0.55040  0.41690  0.24270  Biso   1.000  H
  H63      1.0000 0.05040  0.08310  0.75730  Biso   1.000  H
  H64      1.0000 0.44960  0.91690  0.25730  Biso   1.000  H
  N1       1.0000 0.02050  0.09730  0.00175  Biso   1.000  N
  N2       1.0000 0.47950  0.90270  0.50175  Biso   1.000  N
  N3       1.0000 0.97950  0.59730  0.49825  Biso   1.000  N
  N4       1.0000 0.52050  0.40270  0.99825  Biso   1.000  N
  N5       1.0000 0.03070  0.25780  0.04683  Biso   1.000  N
  N6       1.0000 0.46930  0.74220  0.54683  Biso   1.000  N
  N7       1.0000 0.96930  0.75780  0.45317  Biso   1.000  N
  N8       1.0000 0.53070  0.24220  0.95317  Biso   1.000  N
  H65      1.0000 0.03300  0.30350  0.07380  Biso   1.000  H
  H66      1.0000 0.46700  0.69650  0.57380  Biso   1.000  H
  H67      1.0000 0.96700  0.80350  0.42620  Biso   1.000  H
  H68      1.0000 0.53300  0.19650  0.92620  Biso   1.000  H
  N9       1.0000 0.06260  0.96650  0.08662  Biso   1.000  N
  N10      1.0000 0.43740  0.03350  0.58662  Biso   1.000  N
  N11      1.0000 0.93740  0.46650  0.41338  Biso   1.000  N
  N12      1.0000 0.56260  0.53350  0.91338  Biso   1.000  N
  N13      1.0000 0.01180  0.88790  0.92955  Biso   1.000  N
  N14      1.0000 0.48820  0.11210  0.42955  Biso   1.000  N
  N15      1.0000 0.98820  0.38790  0.57045  Biso   1.000  N
  N16      1.0000 0.51180  0.61210  0.07045  Biso   1.000  N
  H69      1.0000 0.89520  0.90660  0.91670  Biso   1.000  H
  H70      1.0000 0.60480  0.09340  0.41670  Biso   1.000  H
  H71      1.0000 0.10480  0.40660  0.58330  Biso   1.000  H
  H72      1.0000 0.39520  0.59340  0.08330  Biso   1.000  H
  H73      1.0000 0.10050  0.92570  0.91030  Biso   1.000  H
  H74      1.0000 0.39950  0.07430  0.41030  Biso   1.000  H
  H75      1.0000 0.89950  0.42570  0.58970  Biso   1.000  H
  H76      1.0000 0.60050  0.57430  0.08970  Biso   1.000  H
  O1       1.0000 0.15480  0.78560  0.01441  Biso   1.000  O
  O2       1.0000 0.34520  0.21440  0.51441  Biso   1.000  O
  O3       1.0000 0.84520  0.28560  0.48559  Biso   1.000  O
  O4       1.0000 0.65480  0.71440  0.98559  Biso   1.000  O
  O5       1.0000 0.23260  0.63050  0.96999  Biso   1.000  O
  O6       1.0000 0.26740  0.36950  0.46999  Biso   1.000  O
  O7       1.0000 0.76740  0.13050  0.53001  Biso   1.000  O
  O8       1.0000 0.73260  0.86950  0.03001  Biso   1.000  O
  Cl1      1.0000 0.50122  0.99416  0.86259  Biso   1.000  Cl
  Cl2      1.0000 0.99878  0.00584  0.36259  Biso   1.000  Cl
  Cl3      1.0000 0.49878  0.49416  0.63741  Biso   1.000  Cl
  Cl4      1.0000 0.00122  0.50584  0.13741  Biso   1.000  Cl
  O9       1.0000 0.59670  0.09750  0.86030  Biso   1.000  O
  O10      1.0000 0.90330  0.90250  0.36030  Biso   1.000  O
  O11      1.0000 0.40330  0.59750  0.63970  Biso   1.000  O
  O12      1.0000 0.09670  0.40250  0.13970  Biso   1.000  O
  O13      1.0000 0.41790  0.98150  0.91477  Biso   1.000  O
  O14      1.0000 0.08210  0.01850  0.41477  Biso   1.000  O
  O15      1.0000 0.58210  0.48150  0.58523  Biso   1.000  O
  O16      1.0000 0.91790  0.51850  0.08523  Biso   1.000  O
  O17      1.0000 0.62170  0.90440  0.84940  Biso   1.000  O
  O18      1.0000 0.87830  0.09560  0.34940  Biso   1.000  O
  O19      1.0000 0.37830  0.40440  0.65060  Biso   1.000  O
  O20      1.0000 0.12170  0.59560  0.15060  Biso   1.000  O
  O21      1.0000 0.35010  0.99030  0.82750  Biso   1.000  O
  O22      1.0000 0.14990  0.00970  0.32750  Biso   1.000  O
  O23      1.0000 0.64990  0.49030  0.67250  Biso   1.000  O
  O24      1.0000 0.85010  0.50970  0.17250  Biso   1.000  O
