data_image0
_cell_length_a       17.8431
_cell_length_b       7.6498
_cell_length_c       10.3003
_cell_angle_alpha    90
_cell_angle_beta     107.903
_cell_angle_gamma    90

_symmetry_space_group_name_H-M    "P 1"
_symmetry_int_tables_number       1

loop_
  _symmetry_equiv_pos_as_xyz
  'x, y, z'

loop_
  _atom_site_label
  _atom_site_occupancy
  _atom_site_fract_x
  _atom_site_fract_y
  _atom_site_fract_z
  _atom_site_thermal_displace_type
  _atom_site_B_iso_or_equiv
  _atom_site_type_symbol
  Cu1      1.0000 0.50000  0.45346  0.25000  Biso   1.000  Cu
  Cu2      1.0000 0.00000  0.95346  0.25000  Biso   1.000  Cu
  Cu3      1.0000 0.50000  0.54654  0.75000  Biso   1.000  Cu
  Cu4      1.0000 0.00000  0.04654  0.75000  Biso   1.000  Cu
  Cl1      1.0000 0.37468  0.95295  0.95406  Biso   1.000  Cl
  Cl2      1.0000 0.62532  0.95295  0.54594  Biso   1.000  Cl
  Cl3      1.0000 0.87468  0.45295  0.95406  Biso   1.000  Cl
  Cl4      1.0000 0.12532  0.45295  0.54594  Biso   1.000  Cl
  Cl5      1.0000 0.62532  0.04705  0.04594  Biso   1.000  Cl
  Cl6      1.0000 0.37468  0.04705  0.45406  Biso   1.000  Cl
  Cl7      1.0000 0.12532  0.54705  0.04594  Biso   1.000  Cl
  Cl8      1.0000 0.87468  0.54705  0.45406  Biso   1.000  Cl
  O1       1.0000 0.45046  0.25960  0.12630  Biso   1.000  O
  O2       1.0000 0.54954  0.25960  0.37370  Biso   1.000  O
  O3       1.0000 0.95046  0.75960  0.12630  Biso   1.000  O
  O4       1.0000 0.04954  0.75960  0.37370  Biso   1.000  O
  O5       1.0000 0.54954  0.74040  0.87370  Biso   1.000  O
  O6       1.0000 0.45046  0.74040  0.62630  Biso   1.000  O
  O7       1.0000 0.04954  0.24040  0.87370  Biso   1.000  O
  O8       1.0000 0.95046  0.24040  0.62630  Biso   1.000  O
  O9       1.0000 0.44954  0.64770  0.12730  Biso   1.000  O
  O10      1.0000 0.55046  0.64770  0.37270  Biso   1.000  O
  O11      1.0000 0.94954  0.14770  0.12730  Biso   1.000  O
  O12      1.0000 0.05046  0.14770  0.37270  Biso   1.000  O
  O13      1.0000 0.55046  0.35230  0.87270  Biso   1.000  O
  O14      1.0000 0.44954  0.35230  0.62730  Biso   1.000  O
  O15      1.0000 0.05046  0.85230  0.87270  Biso   1.000  O
  O16      1.0000 0.94954  0.85230  0.62730  Biso   1.000  O
  C1       1.0000 0.46992  0.11130  0.17750  Biso   1.000  C
  C2       1.0000 0.53008  0.11130  0.32250  Biso   1.000  C
  C3       1.0000 0.96992  0.61130  0.17750  Biso   1.000  C
  C4       1.0000 0.03008  0.61130  0.32250  Biso   1.000  C
  C5       1.0000 0.53008  0.88870  0.82250  Biso   1.000  C
  C6       1.0000 0.46992  0.88870  0.67750  Biso   1.000  C
  C7       1.0000 0.03008  0.38870  0.82250  Biso   1.000  C
  C8       1.0000 0.96992  0.38870  0.67750  Biso   1.000  C
  C9       1.0000 0.44213  0.95370  0.11510  Biso   1.000  C
  C10      1.0000 0.55787  0.95370  0.38490  Biso   1.000  C
  C11      1.0000 0.94213  0.45370  0.11510  Biso   1.000  C
  C12      1.0000 0.05787  0.45370  0.38490  Biso   1.000  C
  C13      1.0000 0.55787  0.04630  0.88490  Biso   1.000  C
  C14      1.0000 0.44213  0.04630  0.61510  Biso   1.000  C
  C15      1.0000 0.05787  0.54630  0.88490  Biso   1.000  C
  C16      1.0000 0.94213  0.54630  0.61510  Biso   1.000  C
  C17      1.0000 0.46982  0.79670  0.17790  Biso   1.000  C
  C18      1.0000 0.53018  0.79670  0.32210  Biso   1.000  C
  C19      1.0000 0.96982  0.29670  0.17790  Biso   1.000  C
  C20      1.0000 0.03018  0.29670  0.32210  Biso   1.000  C
  C21      1.0000 0.53018  0.20330  0.82210  Biso   1.000  C
  C22      1.0000 0.46982  0.20330  0.67790  Biso   1.000  C
  C23      1.0000 0.03018  0.70330  0.82210  Biso   1.000  C
  C24      1.0000 0.96982  0.70330  0.67790  Biso   1.000  C
  O17      1.0000 0.39530  0.45410  0.33810  Biso   1.000  O
  O18      1.0000 0.60470  0.45410  0.16190  Biso   1.000  O
  O19      1.0000 0.89530  0.95410  0.33810  Biso   1.000  O
  O20      1.0000 0.10470  0.95410  0.16190  Biso   1.000  O
  O21      1.0000 0.60470  0.54590  0.66190  Biso   1.000  O
  O22      1.0000 0.39530  0.54590  0.83810  Biso   1.000  O
  O23      1.0000 0.10470  0.04590  0.66190  Biso   1.000  O
  O24      1.0000 0.89530  0.04590  0.83810  Biso   1.000  O
  H1       1.0000 0.41000  0.41000  0.41300  Biso   1.000  H
  H2       1.0000 0.59000  0.41000  0.08700  Biso   1.000  H
  H3       1.0000 0.91000  0.91000  0.41300  Biso   1.000  H
  H4       1.0000 0.09000  0.91000  0.08700  Biso   1.000  H
  H5       1.0000 0.59000  0.59000  0.58700  Biso   1.000  H
  H6       1.0000 0.41000  0.59000  0.91300  Biso   1.000  H
  H7       1.0000 0.09000  0.09000  0.58700  Biso   1.000  H
  H8       1.0000 0.91000  0.09000  0.91300  Biso   1.000  H
  C25      1.0000 0.33220  0.56830  0.30570  Biso   1.000  C
  C26      1.0000 0.66780  0.56830  0.19430  Biso   1.000  C
  C27      1.0000 0.83220  0.06830  0.30570  Biso   1.000  C
  C28      1.0000 0.16780  0.06830  0.19430  Biso   1.000  C
  C29      1.0000 0.66780  0.43170  0.69430  Biso   1.000  C
  C30      1.0000 0.33220  0.43170  0.80570  Biso   1.000  C
  C31      1.0000 0.16780  0.93170  0.69430  Biso   1.000  C
  C32      1.0000 0.83220  0.93170  0.80570  Biso   1.000  C
  H9       1.0000 0.30480  0.55770  0.20890  Biso   1.000  H
  H10      1.0000 0.69520  0.55770  0.29110  Biso   1.000  H
  H11      1.0000 0.80480  0.05770  0.20890  Biso   1.000  H
  H12      1.0000 0.19520  0.05770  0.29110  Biso   1.000  H
  H13      1.0000 0.69520  0.44230  0.79110  Biso   1.000  H
  H14      1.0000 0.30480  0.44230  0.70890  Biso   1.000  H
  H15      1.0000 0.19520  0.94230  0.79110  Biso   1.000  H
  H16      1.0000 0.80480  0.94230  0.70890  Biso   1.000  H
  H17      1.0000 0.35270  0.68640  0.32180  Biso   1.000  H
  H18      1.0000 0.64730  0.68640  0.17820  Biso   1.000  H
  H19      1.0000 0.85270  0.18640  0.32180  Biso   1.000  H
  H20      1.0000 0.14730  0.18640  0.17820  Biso   1.000  H
  H21      1.0000 0.64730  0.31360  0.67820  Biso   1.000  H
  H22      1.0000 0.35270  0.31360  0.82180  Biso   1.000  H
  H23      1.0000 0.14730  0.81360  0.67820  Biso   1.000  H
  H24      1.0000 0.85270  0.81360  0.82180  Biso   1.000  H
  C33      1.0000 0.27480  0.54570  0.37900  Biso   1.000  C
  C34      1.0000 0.72520  0.54570  0.12100  Biso   1.000  C
  C35      1.0000 0.77480  0.04570  0.37900  Biso   1.000  C
  C36      1.0000 0.22520  0.04570  0.12100  Biso   1.000  C
  C37      1.0000 0.72520  0.45430  0.62100  Biso   1.000  C
  C38      1.0000 0.27480  0.45430  0.87900  Biso   1.000  C
  C39      1.0000 0.22520  0.95430  0.62100  Biso   1.000  C
  C40      1.0000 0.77480  0.95430  0.87900  Biso   1.000  C
  H25      1.0000 0.23350  0.63050  0.34750  Biso   1.000  H
  H26      1.0000 0.76650  0.63050  0.15250  Biso   1.000  H
  H27      1.0000 0.73350  0.13050  0.34750  Biso   1.000  H
  H28      1.0000 0.26650  0.13050  0.15250  Biso   1.000  H
  H29      1.0000 0.76650  0.36950  0.65250  Biso   1.000  H
  H30      1.0000 0.23350  0.36950  0.84750  Biso   1.000  H
  H31      1.0000 0.26650  0.86950  0.65250  Biso   1.000  H
  H32      1.0000 0.73350  0.86950  0.84750  Biso   1.000  H
  H33      1.0000 0.30020  0.56150  0.47500  Biso   1.000  H
  H34      1.0000 0.69980  0.56150  0.02500  Biso   1.000  H
  H35      1.0000 0.80020  0.06150  0.47500  Biso   1.000  H
  H36      1.0000 0.19980  0.06150  0.02500  Biso   1.000  H
  H37      1.0000 0.69980  0.43850  0.52500  Biso   1.000  H
  H38      1.0000 0.30020  0.43850  0.97500  Biso   1.000  H
  H39      1.0000 0.19980  0.93850  0.52500  Biso   1.000  H
  H40      1.0000 0.80020  0.93850  0.97500  Biso   1.000  H
  H41      1.0000 0.25280  0.43020  0.36280  Biso   1.000  H
  H42      1.0000 0.74720  0.43020  0.13720  Biso   1.000  H
  H43      1.0000 0.75280  0.93020  0.36280  Biso   1.000  H
  H44      1.0000 0.24720  0.93020  0.13720  Biso   1.000  H
  H45      1.0000 0.74720  0.56980  0.63720  Biso   1.000  H
  H46      1.0000 0.25280  0.56980  0.86280  Biso   1.000  H
  H47      1.0000 0.24720  0.06980  0.63720  Biso   1.000  H
  H48      1.0000 0.75280  0.06980  0.86280  Biso   1.000  H
