data_image0
_cell_length_a       8.0866
_cell_length_b       4.8324
_cell_length_c       12.9148
_cell_angle_alpha    90
_cell_angle_beta     108.388
_cell_angle_gamma    90

_symmetry_space_group_name_H-M    "P 1"
_symmetry_int_tables_number       1

loop_
  _symmetry_equiv_pos_as_xyz
  'x, y, z'

loop_
  _atom_site_label
  _atom_site_occupancy
  _atom_site_fract_x
  _atom_site_fract_y
  _atom_site_fract_z
  _atom_site_thermal_displace_type
  _atom_site_B_iso_or_equiv
  _atom_site_type_symbol
  Cu1      1.0000 0.00000  0.00000  0.50000  Biso   1.000  Cu
  Cu2      1.0000 0.00000  0.50000  0.00000  Biso   1.000  Cu
  Cl1      1.0000 0.56880  0.47790  0.67689  Biso   1.000  Cl
  Cl2      1.0000 0.43120  0.97790  0.82311  Biso   1.000  Cl
  Cl3      1.0000 0.43120  0.52210  0.32311  Biso   1.000  Cl
  Cl4      1.0000 0.56880  0.02210  0.17689  Biso   1.000  Cl
  O1       1.0000 0.82420  0.20380  0.58560  Biso   1.000  O
  O2       1.0000 0.17580  0.70380  0.91440  Biso   1.000  O
  O3       1.0000 0.17580  0.79620  0.41440  Biso   1.000  O
  O4       1.0000 0.82420  0.29620  0.08560  Biso   1.000  O
  O5       1.0000 0.23550  0.19300  0.56510  Biso   1.000  O
  O6       1.0000 0.76450  0.69300  0.93490  Biso   1.000  O
  O7       1.0000 0.76450  0.80700  0.43490  Biso   1.000  O
  O8       1.0000 0.23550  0.30700  0.06510  Biso   1.000  O
  C1       1.0000 0.67060  0.11780  0.54910  Biso   1.000  C
  C2       1.0000 0.32940  0.61780  0.95090  Biso   1.000  C
  C3       1.0000 0.32940  0.88220  0.45090  Biso   1.000  C
  C4       1.0000 0.67060  0.38220  0.04910  Biso   1.000  C
  C5       1.0000 0.53050  0.21450  0.58130  Biso   1.000  C
  C6       1.0000 0.46950  0.71450  0.91870  Biso   1.000  C
  C7       1.0000 0.46950  0.78550  0.41870  Biso   1.000  C
  C8       1.0000 0.53050  0.28550  0.08130  Biso   1.000  C
  C9       1.0000 0.36510  0.11130  0.53730  Biso   1.000  C
  C10      1.0000 0.63490  0.61130  0.96270  Biso   1.000  C
  C11      1.0000 0.63490  0.88870  0.46270  Biso   1.000  C
  C12      1.0000 0.36510  0.38870  0.03730  Biso   1.000  C
  O9       1.0000 0.06810  0.71580  0.62120  Biso   1.000  O
  O10      1.0000 0.93190  0.21580  0.87880  Biso   1.000  O
  O11      1.0000 0.93190  0.28420  0.37880  Biso   1.000  O
  O12      1.0000 0.06810  0.78420  0.12120  Biso   1.000  O
  H1       1.0000 0.14600  0.84000  0.66900  Biso   1.000  H
  H2       1.0000 0.85400  0.34000  0.83100  Biso   1.000  H
  H3       1.0000 0.85400  0.16000  0.33100  Biso   1.000  H
  H4       1.0000 0.14600  0.66000  0.16900  Biso   1.000  H
  H5       1.0000 0.02300  0.61000  0.66800  Biso   1.000  H
  H6       1.0000 0.97700  0.11000  0.83200  Biso   1.000  H
  H7       1.0000 0.97700  0.39000  0.33200  Biso   1.000  H
  H8       1.0000 0.02300  0.89000  0.16800  Biso   1.000  H
