data_image0
_cell_length_a       7.5779
_cell_length_b       8.2261
_cell_length_c       16.7585
_cell_angle_alpha    90
_cell_angle_beta     94.337
_cell_angle_gamma    90

_symmetry_space_group_name_H-M    "P 1"
_symmetry_int_tables_number       1

loop_
  _symmetry_equiv_pos_as_xyz
  'x, y, z'

loop_
  _atom_site_label
  _atom_site_occupancy
  _atom_site_fract_x
  _atom_site_fract_y
  _atom_site_fract_z
  _atom_site_thermal_displace_type
  _atom_site_B_iso_or_equiv
  _atom_site_type_symbol
  Cu1      1.0000 0.04967  0.35037  0.41280  Biso   1.000  Cu
  Cu2      1.0000 0.95033  0.85037  0.08720  Biso   1.000  Cu
  Cu3      1.0000 0.95033  0.64963  0.58720  Biso   1.000  Cu
  Cu4      1.0000 0.04967  0.14963  0.91280  Biso   1.000  Cu
  Cl1      1.0000 0.57741  0.17017  0.58082  Biso   1.000  Cl
  Cl2      1.0000 0.42259  0.67017  0.91918  Biso   1.000  Cl
  Cl3      1.0000 0.42259  0.82983  0.41918  Biso   1.000  Cl
  Cl4      1.0000 0.57741  0.32983  0.08082  Biso   1.000  Cl
  Cl5      1.0000 0.52182  0.55348  0.24991  Biso   1.000  Cl
  Cl6      1.0000 0.47818  0.05348  0.25009  Biso   1.000  Cl
  Cl7      1.0000 0.47818  0.44652  0.75009  Biso   1.000  Cl
  Cl8      1.0000 0.52182  0.94652  0.74991  Biso   1.000  Cl
  O1       1.0000 0.23000  0.44280  0.34864  Biso   1.000  O
  O2       1.0000 0.77000  0.94280  0.15136  Biso   1.000  O
  O3       1.0000 0.77000  0.55720  0.65136  Biso   1.000  O
  O4       1.0000 0.23000  0.05720  0.84864  Biso   1.000  O
  O5       1.0000 0.25460  0.29520  0.48650  Biso   1.000  O
  O6       1.0000 0.74540  0.79520  0.01350  Biso   1.000  O
  O7       1.0000 0.74540  0.70480  0.51350  Biso   1.000  O
  O8       1.0000 0.25460  0.20480  0.98650  Biso   1.000  O
  O9       1.0000 0.87210  0.30390  0.48831  Biso   1.000  O
  O10      1.0000 0.12790  0.80390  0.01169  Biso   1.000  O
  O11      1.0000 0.12790  0.69610  0.51169  Biso   1.000  O
  O12      1.0000 0.87210  0.19610  0.98831  Biso   1.000  O
  O13      1.0000 0.84820  0.44280  0.34850  Biso   1.000  O
  O14      1.0000 0.15180  0.94280  0.15150  Biso   1.000  O
  O15      1.0000 0.15180  0.55720  0.65150  Biso   1.000  O
  O16      1.0000 0.84820  0.05720  0.84850  Biso   1.000  O
  C1       1.0000 0.38650  0.41190  0.37680  Biso   1.000  C
  C2       1.0000 0.61350  0.91190  0.12320  Biso   1.000  C
  C3       1.0000 0.61350  0.58810  0.62320  Biso   1.000  C
  C4       1.0000 0.38650  0.08810  0.87680  Biso   1.000  C
  C5       1.0000 0.39910  0.32180  0.45670  Biso   1.000  C
  C6       1.0000 0.60090  0.82180  0.04330  Biso   1.000  C
  C7       1.0000 0.60090  0.67820  0.54330  Biso   1.000  C
  C8       1.0000 0.39910  0.17820  0.95670  Biso   1.000  C
  C9       1.0000 0.56460  0.27790  0.49260  Biso   1.000  C
  C10      1.0000 0.43540  0.77790  0.00740  Biso   1.000  C
  C11      1.0000 0.43540  0.72210  0.50740  Biso   1.000  C
  C12      1.0000 0.56460  0.22210  0.99260  Biso   1.000  C
  C13      1.0000 0.71610  0.32590  0.45800  Biso   1.000  C
  C14      1.0000 0.28390  0.82590  0.04200  Biso   1.000  C
  C15      1.0000 0.28390  0.67410  0.54200  Biso   1.000  C
  C16      1.0000 0.71610  0.17410  0.95800  Biso   1.000  C
  C17      1.0000 0.70230  0.41230  0.37732  Biso   1.000  C
  C18      1.0000 0.29770  0.91230  0.12268  Biso   1.000  C
  C19      1.0000 0.29770  0.58770  0.62268  Biso   1.000  C
  C20      1.0000 0.70230  0.08770  0.87732  Biso   1.000  C
  C21      1.0000 0.53700  0.45290  0.34032  Biso   1.000  C
  C22      1.0000 0.46300  0.95290  0.15968  Biso   1.000  C
  C23      1.0000 0.46300  0.54710  0.65968  Biso   1.000  C
  C24      1.0000 0.53700  0.04710  0.84032  Biso   1.000  C
  N1       1.0000 0.02510  0.10720  0.35800  Biso   1.000  N
  N2       1.0000 0.97490  0.60720  0.14200  Biso   1.000  N
  N3       1.0000 0.97490  0.89280  0.64200  Biso   1.000  N
  N4       1.0000 0.02510  0.39280  0.85800  Biso   1.000  N
  C25      1.0000 0.99050  0.97710  0.34540  Biso   1.000  C
  C26      1.0000 0.00950  0.47710  0.15460  Biso   1.000  C
  C27      1.0000 0.00950  0.02290  0.65460  Biso   1.000  C
  C28      1.0000 0.99050  0.52290  0.84540  Biso   1.000  C
  C29      1.0000 0.94550  0.80880  0.33070  Biso   1.000  C
  C30      1.0000 0.05450  0.30880  0.16930  Biso   1.000  C
  C31      1.0000 0.05450  0.19120  0.66930  Biso   1.000  C
  C32      1.0000 0.94550  0.69120  0.83070  Biso   1.000  C
  H1       1.0000 0.92100  0.75100  0.37700  Biso   1.000  H
  H2       1.0000 0.07900  0.25100  0.12300  Biso   1.000  H
  H3       1.0000 0.07900  0.24900  0.62300  Biso   1.000  H
  H4       1.0000 0.92100  0.74900  0.87700  Biso   1.000  H
  H5       1.0000 0.04500  0.75600  0.31100  Biso   1.000  H
  H6       1.0000 0.95500  0.25600  0.18900  Biso   1.000  H
  H7       1.0000 0.95500  0.24400  0.68900  Biso   1.000  H
  H8       1.0000 0.04500  0.74400  0.81100  Biso   1.000  H
  H9       1.0000 0.84400  0.79600  0.29600  Biso   1.000  H
  H10      1.0000 0.15600  0.29600  0.20400  Biso   1.000  H
  H11      1.0000 0.15600  0.20400  0.70400  Biso   1.000  H
  H12      1.0000 0.84400  0.70400  0.79600  Biso   1.000  H
