data_image0
_cell_length_a       7.49
_cell_length_b       12.207
_cell_length_c       18.707
_cell_angle_alpha    90
_cell_angle_beta     90
_cell_angle_gamma    90

_symmetry_space_group_name_H-M    "P 1"
_symmetry_int_tables_number       1

loop_
  _symmetry_equiv_pos_as_xyz
  'x, y, z'

loop_
  _atom_site_label
  _atom_site_occupancy
  _atom_site_fract_x
  _atom_site_fract_y
  _atom_site_fract_z
  _atom_site_thermal_displace_type
  _atom_site_B_iso_or_equiv
  _atom_site_type_symbol
  Cu1      1.0000 0.26446  0.45749  0.07690  Biso   1.000  Cu
  Cu2      1.0000 0.73554  0.54251  0.57690  Biso   1.000  Cu
  Cu3      1.0000 0.76446  0.04251  0.07690  Biso   1.000  Cu
  Cu4      1.0000 0.23554  0.95749  0.57690  Biso   1.000  Cu
  N1       1.0000 0.28090  0.54660  0.98480  Biso   1.000  N
  N2       1.0000 0.71910  0.45340  0.48480  Biso   1.000  N
  N3       1.0000 0.78090  0.95340  0.98480  Biso   1.000  N
  N4       1.0000 0.21910  0.04660  0.48480  Biso   1.000  N
  N5       1.0000 0.27200  0.86550  0.66770  Biso   1.000  N
  N6       1.0000 0.72800  0.13450  0.16770  Biso   1.000  N
  N7       1.0000 0.77200  0.63450  0.66770  Biso   1.000  N
  N8       1.0000 0.22800  0.36550  0.16770  Biso   1.000  N
  N9       1.0000 0.50010  0.54030  0.12390  Biso   1.000  N
  N10      1.0000 0.49990  0.45970  0.62390  Biso   1.000  N
  N11      1.0000 0.00010  0.95970  0.12390  Biso   1.000  N
  N12      1.0000 0.99990  0.04030  0.62390  Biso   1.000  N
  N13      1.0000 0.78020  0.64100  0.12310  Biso   1.000  N
  N14      1.0000 0.21980  0.35900  0.62310  Biso   1.000  N
  N15      1.0000 0.28020  0.85900  0.12310  Biso   1.000  N
  N16      1.0000 0.71980  0.14100  0.62310  Biso   1.000  N
  N17      1.0000 0.07370  0.55750  0.11130  Biso   1.000  N
  N18      1.0000 0.92630  0.44250  0.61130  Biso   1.000  N
  N19      1.0000 0.57370  0.94250  0.11130  Biso   1.000  N
  N20      1.0000 0.42630  0.05750  0.61130  Biso   1.000  N
  N21      1.0000 0.38140  0.33050  0.02970  Biso   1.000  N
  N22      1.0000 0.61860  0.66950  0.52970  Biso   1.000  N
  N23      1.0000 0.88140  0.16950  0.02970  Biso   1.000  N
  N24      1.0000 0.11860  0.83050  0.52970  Biso   1.000  N
  N25      1.0000 0.45080  0.14110  0.00670  Biso   1.000  N
  N26      1.0000 0.54920  0.85890  0.50670  Biso   1.000  N
  N27      1.0000 0.95080  0.35890  0.00670  Biso   1.000  N
  N28      1.0000 0.04920  0.64110  0.50670  Biso   1.000  N
  N29      1.0000 0.26750  0.99750  0.94850  Biso   1.000  N
  N30      1.0000 0.73250  0.00250  0.44850  Biso   1.000  N
  N31      1.0000 0.76750  0.50250  0.94850  Biso   1.000  N
  N32      1.0000 0.23250  0.49750  0.44850  Biso   1.000  N
  C1       1.0000 0.26490  0.50320  0.92150  Biso   1.000  C
  C2       1.0000 0.73510  0.49680  0.42150  Biso   1.000  C
  C3       1.0000 0.76490  0.99680  0.92150  Biso   1.000  C
  C4       1.0000 0.23510  0.00320  0.42150  Biso   1.000  C
  H1       1.0000 0.25120  0.42770  0.91810  Biso   1.000  H
  H2       1.0000 0.74880  0.57230  0.41810  Biso   1.000  H
  H3       1.0000 0.75120  0.07230  0.91810  Biso   1.000  H
  H4       1.0000 0.24880  0.92770  0.41810  Biso   1.000  H
  C5       1.0000 0.26750  0.56380  0.85940  Biso   1.000  C
  C6       1.0000 0.73250  0.43620  0.35940  Biso   1.000  C
  C7       1.0000 0.76750  0.93620  0.85940  Biso   1.000  C
  C8       1.0000 0.23250  0.06380  0.35940  Biso   1.000  C
  H5       1.0000 0.25300  0.52880  0.81560  Biso   1.000  H
  H6       1.0000 0.74700  0.47120  0.31560  Biso   1.000  H
  H7       1.0000 0.75300  0.97120  0.81560  Biso   1.000  H
  H8       1.0000 0.24700  0.02880  0.31560  Biso   1.000  H
  C9       1.0000 0.29070  0.67380  0.86130  Biso   1.000  C
  C10      1.0000 0.70930  0.32620  0.36130  Biso   1.000  C
  C11      1.0000 0.79070  0.82620  0.86130  Biso   1.000  C
  C12      1.0000 0.20930  0.17380  0.36130  Biso   1.000  C
  C13      1.0000 0.30540  0.72050  0.92880  Biso   1.000  C
  C14      1.0000 0.69460  0.27950  0.42880  Biso   1.000  C
  C15      1.0000 0.80540  0.77950  0.92880  Biso   1.000  C
  C16      1.0000 0.19460  0.22050  0.42880  Biso   1.000  C
  H9       1.0000 0.31930  0.79590  0.93340  Biso   1.000  H
  H10      1.0000 0.68070  0.20410  0.43340  Biso   1.000  H
  H11      1.0000 0.81930  0.70410  0.93340  Biso   1.000  H
  H12      1.0000 0.18070  0.29590  0.43340  Biso   1.000  H
  C17      1.0000 0.29950  0.65600  0.98820  Biso   1.000  C
  C18      1.0000 0.70050  0.34400  0.48820  Biso   1.000  C
  C19      1.0000 0.79950  0.84400  0.98820  Biso   1.000  C
  C20      1.0000 0.20050  0.15600  0.48820  Biso   1.000  C
  H13      1.0000 0.30880  0.68900  0.03290  Biso   1.000  H
  H14      1.0000 0.69120  0.31100  0.53290  Biso   1.000  H
  H15      1.0000 0.80880  0.81100  0.03290  Biso   1.000  H
  H16      1.0000 0.19120  0.18900  0.53290  Biso   1.000  H
  C21      1.0000 0.28980  0.74190  0.79400  Biso   1.000  C
  C22      1.0000 0.71020  0.25810  0.29400  Biso   1.000  C
  C23      1.0000 0.78980  0.75810  0.79400  Biso   1.000  C
  C24      1.0000 0.21020  0.24190  0.29400  Biso   1.000  C
  C25      1.0000 0.31630  0.69240  0.72720  Biso   1.000  C
  C26      1.0000 0.68370  0.30760  0.22720  Biso   1.000  C
  C27      1.0000 0.81630  0.80760  0.72720  Biso   1.000  C
  C28      1.0000 0.18370  0.19240  0.22720  Biso   1.000  C
  H17      1.0000 0.33860  0.61760  0.72380  Biso   1.000  H
  H18      1.0000 0.66140  0.38240  0.22380  Biso   1.000  H
  H19      1.0000 0.83860  0.88240  0.72380  Biso   1.000  H
  H20      1.0000 0.16140  0.11760  0.22380  Biso   1.000  H
  C29      1.0000 0.30870  0.75670  0.66680  Biso   1.000  C
  C30      1.0000 0.69130  0.24330  0.16680  Biso   1.000  C
  C31      1.0000 0.80870  0.74330  0.66680  Biso   1.000  C
  C32      1.0000 0.19130  0.25670  0.16680  Biso   1.000  C
  H21      1.0000 0.32990  0.72360  0.62280  Biso   1.000  H
  H22      1.0000 0.67010  0.27640  0.12280  Biso   1.000  H
  H23      1.0000 0.82990  0.77640  0.62280  Biso   1.000  H
  H24      1.0000 0.17010  0.22360  0.12280  Biso   1.000  H
  C33      1.0000 0.25440  0.91160  0.73110  Biso   1.000  C
  C34      1.0000 0.74560  0.08840  0.23110  Biso   1.000  C
  C35      1.0000 0.75440  0.58840  0.73110  Biso   1.000  C
  C36      1.0000 0.24560  0.41160  0.23110  Biso   1.000  C
  H25      1.0000 0.23780  0.98700  0.73290  Biso   1.000  H
  H26      1.0000 0.76220  0.01300  0.23290  Biso   1.000  H
  H27      1.0000 0.73780  0.51300  0.73290  Biso   1.000  H
  H28      1.0000 0.26220  0.48700  0.23290  Biso   1.000  H
  C37      1.0000 0.25900  0.85520  0.79530  Biso   1.000  C
  C38      1.0000 0.74100  0.14480  0.29530  Biso   1.000  C
  C39      1.0000 0.75900  0.64480  0.79530  Biso   1.000  C
  C40      1.0000 0.24100  0.35520  0.29530  Biso   1.000  C
  H29      1.0000 0.24200  0.89170  0.83840  Biso   1.000  H
  H30      1.0000 0.75800  0.10830  0.33840  Biso   1.000  H
  H31      1.0000 0.74200  0.60830  0.83840  Biso   1.000  H
  H32      1.0000 0.25800  0.39170  0.33840  Biso   1.000  H
  C41      1.0000 0.63180  0.58000  0.12220  Biso   1.000  C
  C42      1.0000 0.36820  0.42000  0.62220  Biso   1.000  C
  C43      1.0000 0.13180  0.92000  0.12220  Biso   1.000  C
  C44      1.0000 0.86820  0.08000  0.62220  Biso   1.000  C
  C45      1.0000 0.93370  0.58950  0.11730  Biso   1.000  C
  C46      1.0000 0.06630  0.41050  0.61730  Biso   1.000  C
  C47      1.0000 0.43370  0.91050  0.11730  Biso   1.000  C
  C48      1.0000 0.56630  0.08950  0.61730  Biso   1.000  C
  C49      1.0000 0.40430  0.24210  0.01520  Biso   1.000  C
  C50      1.0000 0.59570  0.75790  0.51520  Biso   1.000  C
  C51      1.0000 0.90430  0.25790  0.01520  Biso   1.000  C
  C52      1.0000 0.09570  0.74210  0.51520  Biso   1.000  C
  C53      1.0000 0.34650  0.07230  0.97440  Biso   1.000  C
  C54      1.0000 0.65350  0.92770  0.47440  Biso   1.000  C
  C55      1.0000 0.84650  0.42770  0.97440  Biso   1.000  C
  C56      1.0000 0.15350  0.57230  0.47440  Biso   1.000  C
