data_image0
_cell_length_a       10.989
_cell_length_b       15.938
_cell_length_c       22.511
_cell_angle_alpha    90
_cell_angle_beta     90
_cell_angle_gamma    90

_symmetry_space_group_name_H-M    "P 1"
_symmetry_int_tables_number       1

loop_
  _symmetry_equiv_pos_as_xyz
  'x, y, z'

loop_
  _atom_site_label
  _atom_site_occupancy
  _atom_site_fract_x
  _atom_site_fract_y
  _atom_site_fract_z
  _atom_site_thermal_displace_type
  _atom_site_B_iso_or_equiv
  _atom_site_type_symbol
  O1       1.0000 0.01330  0.10480  0.21983  Biso   1.000  O
  O2       1.0000 0.48670  0.89520  0.71983  Biso   1.000  O
  O3       1.0000 0.98670  0.60480  0.28017  Biso   1.000  O
  O4       1.0000 0.51330  0.39520  0.78017  Biso   1.000  O
  H1       1.0000 0.02170  0.06610  0.25230  Biso   1.000  H
  H2       1.0000 0.47830  0.93390  0.75230  Biso   1.000  H
  H3       1.0000 0.97830  0.56610  0.24770  Biso   1.000  H
  H4       1.0000 0.52170  0.43390  0.74770  Biso   1.000  H
  O5       1.0000 0.76090  0.09585  0.22385  Biso   1.000  O
  O6       1.0000 0.73910  0.90415  0.72385  Biso   1.000  O
  O7       1.0000 0.23910  0.59585  0.27615  Biso   1.000  O
  O8       1.0000 0.26090  0.40415  0.77615  Biso   1.000  O
  H5       1.0000 0.76730  0.14360  0.24900  Biso   1.000  H
  H6       1.0000 0.73270  0.85640  0.74900  Biso   1.000  H
  H7       1.0000 0.23270  0.64360  0.25100  Biso   1.000  H
  H8       1.0000 0.26730  0.35640  0.75100  Biso   1.000  H
  O9       1.0000 0.20390  0.47168  0.21673  Biso   1.000  O
  O10      1.0000 0.29610  0.52832  0.71673  Biso   1.000  O
  O11      1.0000 0.79610  0.97168  0.28327  Biso   1.000  O
  O12      1.0000 0.70390  0.02832  0.78327  Biso   1.000  O
  H9       1.0000 0.20660  0.51340  0.24600  Biso   1.000  H
  H10      1.0000 0.29340  0.48660  0.74600  Biso   1.000  H
  H11      1.0000 0.79340  0.01340  0.25400  Biso   1.000  H
  H12      1.0000 0.70660  0.98660  0.75400  Biso   1.000  H
  O13      1.0000 0.00990  0.57656  0.17348  Biso   1.000  O
  O14      1.0000 0.49010  0.42344  0.67348  Biso   1.000  O
  O15      1.0000 0.99010  0.07656  0.32652  Biso   1.000  O
  O16      1.0000 0.50990  0.92344  0.82652  Biso   1.000  O
  H13      1.0000 0.05580  0.62830  0.17000  Biso   1.000  H
  H14      1.0000 0.44420  0.37170  0.67000  Biso   1.000  H
  H15      1.0000 0.94420  0.12830  0.33000  Biso   1.000  H
  H16      1.0000 0.55580  0.87170  0.83000  Biso   1.000  H
  Cu1      1.0000 0.88241  0.13566  0.17028  Biso   1.000  Cu
  Cu2      1.0000 0.61759  0.86434  0.67028  Biso   1.000  Cu
  Cu3      1.0000 0.11759  0.63566  0.32972  Biso   1.000  Cu
  Cu4      1.0000 0.38241  0.36434  0.82972  Biso   1.000  Cu
  Cu5      1.0000 0.11044  0.48426  0.14610  Biso   1.000  Cu
  Cu6      1.0000 0.38956  0.51574  0.64610  Biso   1.000  Cu
  Cu7      1.0000 0.88956  0.98426  0.35390  Biso   1.000  Cu
  Cu8      1.0000 0.61044  0.01574  0.85390  Biso   1.000  Cu
  K1       1.0000 0.39182  0.22045  0.05955  Biso   1.000  K
  K2       1.0000 0.10818  0.77955  0.55955  Biso   1.000  K
  K3       1.0000 0.60818  0.72045  0.44045  Biso   1.000  K
  K4       1.0000 0.89182  0.27955  0.94045  Biso   1.000  K
  C1       1.0000 0.11430  0.16290  0.13500  Biso   1.000  C
  C2       1.0000 0.38570  0.83710  0.63500  Biso   1.000  C
  C3       1.0000 0.88570  0.66290  0.36500  Biso   1.000  C
  C4       1.0000 0.61430  0.33710  0.86500  Biso   1.000  C
  C5       1.0000 0.12820  0.10820  0.19144  Biso   1.000  C
  C6       1.0000 0.37180  0.89180  0.69144  Biso   1.000  C
  C7       1.0000 0.87180  0.60820  0.30856  Biso   1.000  C
  C8       1.0000 0.62820  0.39180  0.80856  Biso   1.000  C
  H17      1.0000 0.18770  0.13410  0.21820  Biso   1.000  H
  H18      1.0000 0.31230  0.86590  0.71820  Biso   1.000  H
  H19      1.0000 0.81230  0.63410  0.28180  Biso   1.000  H
  H20      1.0000 0.68770  0.36590  0.78180  Biso   1.000  H
  C9       1.0000 0.17390  0.02110  0.17270  Biso   1.000  C
  C10      1.0000 0.32610  0.97890  0.67270  Biso   1.000  C
  C11      1.0000 0.82610  0.52110  0.32730  Biso   1.000  C
  C12      1.0000 0.67390  0.47890  0.82730  Biso   1.000  C
  H21      1.0000 0.11580  0.99660  0.14530  Biso   1.000  H
  H22      1.0000 0.38420  0.00340  0.64530  Biso   1.000  H
  H23      1.0000 0.88420  0.49660  0.35470  Biso   1.000  H
  H24      1.0000 0.61580  0.50340  0.85470  Biso   1.000  H
  H25      1.0000 0.25060  0.02730  0.15190  Biso   1.000  H
  H26      1.0000 0.24940  0.97270  0.65190  Biso   1.000  H
  H27      1.0000 0.74940  0.52730  0.34810  Biso   1.000  H
  H28      1.0000 0.75060  0.47270  0.84810  Biso   1.000  H
  C13      1.0000 0.19190  0.96140  0.22450  Biso   1.000  C
  C14      1.0000 0.30810  0.03860  0.72450  Biso   1.000  C
  C15      1.0000 0.80810  0.46140  0.27550  Biso   1.000  C
  C16      1.0000 0.69190  0.53860  0.77550  Biso   1.000  C
  C17      1.0000 0.09370  0.91830  0.24970  Biso   1.000  C
  C18      1.0000 0.40630  0.08170  0.74970  Biso   1.000  C
  C19      1.0000 0.90630  0.41830  0.25030  Biso   1.000  C
  C20      1.0000 0.59370  0.58170  0.75030  Biso   1.000  C
  H29      1.0000 0.01650  0.92440  0.23330  Biso   1.000  H
  H30      1.0000 0.48350  0.07560  0.73330  Biso   1.000  H
  H31      1.0000 0.98350  0.42440  0.26670  Biso   1.000  H
  H32      1.0000 0.51650  0.57560  0.76670  Biso   1.000  H
  C21      1.0000 0.10940  0.86700  0.29820  Biso   1.000  C
  C22      1.0000 0.39060  0.13300  0.79820  Biso   1.000  C
  C23      1.0000 0.89060  0.36700  0.20180  Biso   1.000  C
  C24      1.0000 0.60940  0.63300  0.70180  Biso   1.000  C
  H33      1.0000 0.04350  0.83780  0.31380  Biso   1.000  H
  H34      1.0000 0.45650  0.16220  0.81380  Biso   1.000  H
  H35      1.0000 0.95650  0.33780  0.18620  Biso   1.000  H
  H36      1.0000 0.54350  0.66220  0.68620  Biso   1.000  H
  C25      1.0000 0.22380  0.85880  0.32410  Biso   1.000  C
  C26      1.0000 0.27620  0.14120  0.82410  Biso   1.000  C
  C27      1.0000 0.77620  0.35880  0.17590  Biso   1.000  C
  C28      1.0000 0.72380  0.64120  0.67590  Biso   1.000  C
  H37      1.0000 0.23410  0.82590  0.35780  Biso   1.000  H
  H38      1.0000 0.26590  0.17410  0.85780  Biso   1.000  H
  H39      1.0000 0.76590  0.32590  0.14220  Biso   1.000  H
  H40      1.0000 0.73410  0.67410  0.64220  Biso   1.000  H
  C29      1.0000 0.32060  0.89940  0.29960  Biso   1.000  C
  C30      1.0000 0.17940  0.10060  0.79960  Biso   1.000  C
  C31      1.0000 0.67940  0.39940  0.20040  Biso   1.000  C
  C32      1.0000 0.82060  0.60060  0.70040  Biso   1.000  C
  H41      1.0000 0.39750  0.89310  0.31620  Biso   1.000  H
  H42      1.0000 0.10250  0.10690  0.81620  Biso   1.000  H
  H43      1.0000 0.60250  0.39310  0.18380  Biso   1.000  H
  H44      1.0000 0.89750  0.60690  0.68380  Biso   1.000  H
  C33      1.0000 0.30540  0.95010  0.24990  Biso   1.000  C
  C34      1.0000 0.19460  0.04990  0.74990  Biso   1.000  C
  C35      1.0000 0.69460  0.45010  0.25010  Biso   1.000  C
  C36      1.0000 0.80540  0.54990  0.75010  Biso   1.000  C
  H45      1.0000 0.37260  0.97690  0.23340  Biso   1.000  H
  H46      1.0000 0.12740  0.02310  0.73340  Biso   1.000  H
  H47      1.0000 0.62740  0.47690  0.26660  Biso   1.000  H
  H48      1.0000 0.87260  0.52310  0.76660  Biso   1.000  H
  C37      1.0000 0.64130  0.14720  0.14268  Biso   1.000  C
  C38      1.0000 0.85870  0.85280  0.64268  Biso   1.000  C
  C39      1.0000 0.35870  0.64720  0.35732  Biso   1.000  C
  C40      1.0000 0.14130  0.35280  0.85732  Biso   1.000  C
  C41      1.0000 0.63940  0.11250  0.20524  Biso   1.000  C
  C42      1.0000 0.86060  0.88750  0.70524  Biso   1.000  C
  C43      1.0000 0.36060  0.61250  0.29476  Biso   1.000  C
  C44      1.0000 0.13940  0.38750  0.79476  Biso   1.000  C
  H49      1.0000 0.59410  0.05950  0.20500  Biso   1.000  H
  H50      1.0000 0.90590  0.94050  0.70500  Biso   1.000  H
  H51      1.0000 0.40590  0.55950  0.29500  Biso   1.000  H
  H52      1.0000 0.09410  0.44050  0.79500  Biso   1.000  H
  C45      1.0000 0.57680  0.17300  0.24880  Biso   1.000  C
  C46      1.0000 0.92320  0.82700  0.74880  Biso   1.000  C
  C47      1.0000 0.42320  0.67300  0.25120  Biso   1.000  C
  C48      1.0000 0.07680  0.32700  0.75120  Biso   1.000  C
  H53      1.0000 0.61930  0.22630  0.24830  Biso   1.000  H
  H54      1.0000 0.88070  0.77370  0.74830  Biso   1.000  H
  H55      1.0000 0.38070  0.72630  0.25170  Biso   1.000  H
  H56      1.0000 0.11930  0.27370  0.75170  Biso   1.000  H
  H57      1.0000 0.49400  0.18280  0.23570  Biso   1.000  H
  H58      1.0000 0.00600  0.81720  0.73570  Biso   1.000  H
  H59      1.0000 0.50600  0.68280  0.26430  Biso   1.000  H
  H60      1.0000 0.99400  0.31720  0.76430  Biso   1.000  H
  C49      1.0000 0.57460  0.13980  0.31150  Biso   1.000  C
  C50      1.0000 0.92540  0.86020  0.81150  Biso   1.000  C
  C51      1.0000 0.42540  0.63980  0.18850  Biso   1.000  C
  C52      1.0000 0.07460  0.36020  0.68850  Biso   1.000  C
  C53      1.0000 0.47150  0.09910  0.33340  Biso   1.000  C
  C54      1.0000 0.02850  0.90090  0.83340  Biso   1.000  C
  C55      1.0000 0.52850  0.59910  0.16660  Biso   1.000  C
  C56      1.0000 0.97150  0.40090  0.66660  Biso   1.000  C
  H61      1.0000 0.40210  0.09500  0.31000  Biso   1.000  H
  H62      1.0000 0.09790  0.90500  0.81000  Biso   1.000  H
  H63      1.0000 0.59790  0.59500  0.19000  Biso   1.000  H
  H64      1.0000 0.90210  0.40500  0.69000  Biso   1.000  H
  C57      1.0000 0.47190  0.06500  0.38960  Biso   1.000  C
  C58      1.0000 0.02810  0.93500  0.88960  Biso   1.000  C
  C59      1.0000 0.52810  0.56500  0.11040  Biso   1.000  C
  C60      1.0000 0.97190  0.43500  0.61040  Biso   1.000  C
  H65      1.0000 0.40180  0.03960  0.40420  Biso   1.000  H
  H66      1.0000 0.09820  0.96040  0.90420  Biso   1.000  H
  H67      1.0000 0.59820  0.53960  0.09580  Biso   1.000  H
  H68      1.0000 0.90180  0.46040  0.59580  Biso   1.000  H
  C61      1.0000 0.57580  0.06800  0.42480  Biso   1.000  C
  C62      1.0000 0.92420  0.93200  0.92480  Biso   1.000  C
  C63      1.0000 0.42420  0.56800  0.07520  Biso   1.000  C
  C64      1.0000 0.07580  0.43200  0.57520  Biso   1.000  C
  H69      1.0000 0.57760  0.04170  0.46170  Biso   1.000  H
  H70      1.0000 0.92240  0.95830  0.96170  Biso   1.000  H
  H71      1.0000 0.42240  0.54170  0.03830  Biso   1.000  H
  H72      1.0000 0.07760  0.45830  0.53830  Biso   1.000  H
  C65      1.0000 0.67650  0.11090  0.40400  Biso   1.000  C
  C66      1.0000 0.82350  0.88910  0.90400  Biso   1.000  C
  C67      1.0000 0.32350  0.61090  0.09600  Biso   1.000  C
  C68      1.0000 0.17650  0.38910  0.59600  Biso   1.000  C
  H73      1.0000 0.74540  0.11600  0.42770  Biso   1.000  H
  H74      1.0000 0.75460  0.88400  0.92770  Biso   1.000  H
  H75      1.0000 0.25460  0.61600  0.07230  Biso   1.000  H
  H76      1.0000 0.24540  0.38400  0.57230  Biso   1.000  H
  C69      1.0000 0.67490  0.14670  0.34730  Biso   1.000  C
  C70      1.0000 0.82510  0.85330  0.84730  Biso   1.000  C
  C71      1.0000 0.32510  0.64670  0.15270  Biso   1.000  C
  C72      1.0000 0.17490  0.35330  0.65270  Biso   1.000  C
  H77      1.0000 0.74300  0.17550  0.33370  Biso   1.000  H
  H78      1.0000 0.75700  0.82450  0.83370  Biso   1.000  H
  H79      1.0000 0.25700  0.67550  0.16630  Biso   1.000  H
  H80      1.0000 0.24300  0.32450  0.66630  Biso   1.000  H
  C73      1.0000 0.29960  0.37500  0.14866  Biso   1.000  C
  C74      1.0000 0.20040  0.62500  0.64866  Biso   1.000  C
  C75      1.0000 0.70040  0.87500  0.35134  Biso   1.000  C
  C76      1.0000 0.79960  0.12500  0.85134  Biso   1.000  C
  C77      1.0000 0.30100  0.41290  0.21129  Biso   1.000  C
  C78      1.0000 0.19900  0.58710  0.71129  Biso   1.000  C
  C79      1.0000 0.69900  0.91290  0.28871  Biso   1.000  C
  C80      1.0000 0.80100  0.08710  0.78871  Biso   1.000  C
  H81      1.0000 0.37800  0.44300  0.21660  Biso   1.000  H
  H82      1.0000 0.12200  0.55700  0.71660  Biso   1.000  H
  H83      1.0000 0.62200  0.94300  0.28340  Biso   1.000  H
  H84      1.0000 0.87800  0.05700  0.78340  Biso   1.000  H
  C81      1.0000 0.29300  0.34420  0.25880  Biso   1.000  C
  C82      1.0000 0.20700  0.65580  0.75880  Biso   1.000  C
  C83      1.0000 0.70700  0.84420  0.24120  Biso   1.000  C
  C84      1.0000 0.79300  0.15580  0.74120  Biso   1.000  C
  H85      1.0000 0.21210  0.31990  0.25790  Biso   1.000  H
  H86      1.0000 0.28790  0.68010  0.75790  Biso   1.000  H
  H87      1.0000 0.78790  0.81990  0.24210  Biso   1.000  H
  H88      1.0000 0.71210  0.18010  0.74210  Biso   1.000  H
  H89      1.0000 0.35070  0.30020  0.24920  Biso   1.000  H
  H90      1.0000 0.14930  0.69980  0.74920  Biso   1.000  H
  H91      1.0000 0.64930  0.80020  0.25080  Biso   1.000  H
  H92      1.0000 0.85070  0.19980  0.75080  Biso   1.000  H
  C85      1.0000 0.31870  0.37550  0.32130  Biso   1.000  C
  C86      1.0000 0.18130  0.62450  0.82130  Biso   1.000  C
  C87      1.0000 0.68130  0.87550  0.17870  Biso   1.000  C
  C88      1.0000 0.81870  0.12450  0.67870  Biso   1.000  C
  C89      1.0000 0.22780  0.40910  0.35530  Biso   1.000  C
  C90      1.0000 0.27220  0.59090  0.85530  Biso   1.000  C
  C91      1.0000 0.77220  0.90910  0.14470  Biso   1.000  C
  C92      1.0000 0.72780  0.09090  0.64470  Biso   1.000  C
  H93      1.0000 0.14840  0.41060  0.34110  Biso   1.000  H
  H94      1.0000 0.35160  0.58940  0.84110  Biso   1.000  H
  H95      1.0000 0.85160  0.91060  0.15890  Biso   1.000  H
  H96      1.0000 0.64840  0.08940  0.65890  Biso   1.000  H
  C93      1.0000 0.25560  0.44180  0.41240  Biso   1.000  C
  C94      1.0000 0.24440  0.55820  0.91240  Biso   1.000  C
  C95      1.0000 0.74440  0.94180  0.08760  Biso   1.000  C
  C96      1.0000 0.75560  0.05820  0.58760  Biso   1.000  C
  H97      1.0000 0.19490  0.46630  0.43540  Biso   1.000  H
  H98      1.0000 0.30510  0.53370  0.93540  Biso   1.000  H
  H99      1.0000 0.80510  0.96630  0.06460  Biso   1.000  H
  H100     1.0000 0.69490  0.03370  0.56460  Biso   1.000  H
  C97      1.0000 0.37070  0.43710  0.43330  Biso   1.000  C
  C98      1.0000 0.12930  0.56290  0.93330  Biso   1.000  C
  C99      1.0000 0.62930  0.93710  0.06670  Biso   1.000  C
  C100     1.0000 0.87070  0.06290  0.56670  Biso   1.000  C
  H101     1.0000 0.38830  0.45660  0.47130  Biso   1.000  H
  H102     1.0000 0.11170  0.54340  0.97130  Biso   1.000  H
  H103     1.0000 0.61170  0.95660  0.02870  Biso   1.000  H
  H104     1.0000 0.88830  0.04340  0.52870  Biso   1.000  H
  C101     1.0000 0.46120  0.40400  0.39910  Biso   1.000  C
  C102     1.0000 0.03880  0.59600  0.89910  Biso   1.000  C
  C103     1.0000 0.53880  0.90400  0.10090  Biso   1.000  C
  C104     1.0000 0.96120  0.09600  0.60090  Biso   1.000  C
  H105     1.0000 0.54030  0.40200  0.41360  Biso   1.000  H
  H106     1.0000 0.95970  0.59800  0.91360  Biso   1.000  H
  H107     1.0000 0.45970  0.90200  0.08640  Biso   1.000  H
  H108     1.0000 0.04030  0.09800  0.58640  Biso   1.000  H
  C105     1.0000 0.43610  0.37370  0.34320  Biso   1.000  C
  C106     1.0000 0.06390  0.62630  0.84320  Biso   1.000  C
  C107     1.0000 0.56390  0.87370  0.15680  Biso   1.000  C
  C108     1.0000 0.93610  0.12630  0.65680  Biso   1.000  C
  H109     1.0000 0.49850  0.35170  0.32000  Biso   1.000  H
  H110     1.0000 0.00150  0.64830  0.82000  Biso   1.000  H
  H111     1.0000 0.50150  0.85170  0.18000  Biso   1.000  H
  H112     1.0000 0.99850  0.14830  0.68000  Biso   1.000  H
  C109     1.0000 0.91020  0.53300  0.08335  Biso   1.000  C
  C110     1.0000 0.58980  0.46700  0.58335  Biso   1.000  C
  C111     1.0000 0.08980  0.03300  0.41665  Biso   1.000  C
  C112     1.0000 0.41020  0.96700  0.91665  Biso   1.000  C
  C113     1.0000 0.89890  0.58470  0.14020  Biso   1.000  C
  C114     1.0000 0.60110  0.41530  0.64020  Biso   1.000  C
  C115     1.0000 0.10110  0.08470  0.35980  Biso   1.000  C
  C116     1.0000 0.39890  0.91530  0.85980  Biso   1.000  C
  H113     1.0000 0.83350  0.56000  0.16400  Biso   1.000  H
  H114     1.0000 0.66650  0.44000  0.66400  Biso   1.000  H
  H115     1.0000 0.16650  0.06000  0.33600  Biso   1.000  H
  H116     1.0000 0.33350  0.94000  0.83600  Biso   1.000  H
  C117     1.0000 0.86650  0.67640  0.12950  Biso   1.000  C
  C118     1.0000 0.63350  0.32360  0.62950  Biso   1.000  C
  C119     1.0000 0.13350  0.17640  0.37050  Biso   1.000  C
  C120     1.0000 0.36650  0.82360  0.87050  Biso   1.000  C
  H117     1.0000 0.79160  0.67890  0.10680  Biso   1.000  H
  H118     1.0000 0.70840  0.32110  0.60680  Biso   1.000  H
  H119     1.0000 0.20840  0.17890  0.39320  Biso   1.000  H
  H120     1.0000 0.29160  0.82110  0.89320  Biso   1.000  H
  H121     1.0000 0.85150  0.70310  0.16750  Biso   1.000  H
  H122     1.0000 0.64850  0.29690  0.66750  Biso   1.000  H
  H123     1.0000 0.14850  0.20310  0.33250  Biso   1.000  H
  H124     1.0000 0.35150  0.79690  0.83250  Biso   1.000  H
  C121     1.0000 0.96390  0.72580  0.09680  Biso   1.000  C
  C122     1.0000 0.53610  0.27420  0.59680  Biso   1.000  C
  C123     1.0000 0.03610  0.22580  0.40320  Biso   1.000  C
  C124     1.0000 0.46390  0.77420  0.90320  Biso   1.000  C
  C125     1.0000 0.96830  0.72810  0.03550  Biso   1.000  C
  C126     1.0000 0.53170  0.27190  0.53550  Biso   1.000  C
  C127     1.0000 0.03170  0.22810  0.46450  Biso   1.000  C
  C128     1.0000 0.46830  0.77190  0.96450  Biso   1.000  C
  H125     1.0000 0.91150  0.69810  0.01350  Biso   1.000  H
  H126     1.0000 0.58850  0.30190  0.51350  Biso   1.000  H
  H127     1.0000 0.08850  0.19810  0.48650  Biso   1.000  H
  H128     1.0000 0.41150  0.80190  0.98650  Biso   1.000  H
  C129     1.0000 0.05800  0.77560  0.00610  Biso   1.000  C
  C130     1.0000 0.44200  0.22440  0.50610  Biso   1.000  C
  C131     1.0000 0.94200  0.27560  0.49390  Biso   1.000  C
  C132     1.0000 0.55800  0.72440  0.99390  Biso   1.000  C
  H129     1.0000 0.06040  0.77730  0.96480  Biso   1.000  H
  H130     1.0000 0.43960  0.22270  0.46480  Biso   1.000  H
  H131     1.0000 0.93960  0.27730  0.53520  Biso   1.000  H
  H132     1.0000 0.56040  0.72270  0.03520  Biso   1.000  H
  C133     1.0000 0.14190  0.81950  0.03890  Biso   1.000  C
  C134     1.0000 0.35810  0.18050  0.53890  Biso   1.000  C
  C135     1.0000 0.85810  0.31950  0.46110  Biso   1.000  C
  C136     1.0000 0.64190  0.68050  0.96110  Biso   1.000  C
  H133     1.0000 0.20120  0.85140  0.01990  Biso   1.000  H
  H134     1.0000 0.29880  0.14860  0.51990  Biso   1.000  H
  H135     1.0000 0.79880  0.35140  0.48010  Biso   1.000  H
  H136     1.0000 0.70120  0.64860  0.98010  Biso   1.000  H
  C137     1.0000 0.13820  0.81620  0.09890  Biso   1.000  C
  C138     1.0000 0.36180  0.18380  0.59890  Biso   1.000  C
  C139     1.0000 0.86180  0.31620  0.40110  Biso   1.000  C
  C140     1.0000 0.63820  0.68380  0.90110  Biso   1.000  C
  H137     1.0000 0.19560  0.84590  0.12080  Biso   1.000  H
  H138     1.0000 0.30440  0.15410  0.62080  Biso   1.000  H
  H139     1.0000 0.80440  0.34590  0.37920  Biso   1.000  H
  H140     1.0000 0.69560  0.65410  0.87920  Biso   1.000  H
  C141     1.0000 0.05190  0.77020  0.12820  Biso   1.000  C
  C142     1.0000 0.44810  0.22980  0.62820  Biso   1.000  C
  C143     1.0000 0.94810  0.27020  0.37180  Biso   1.000  C
  C144     1.0000 0.55190  0.72980  0.87180  Biso   1.000  C
  H141     1.0000 0.05200  0.76850  0.16950  Biso   1.000  H
  H142     1.0000 0.44800  0.23150  0.66950  Biso   1.000  H
  H143     1.0000 0.94800  0.26850  0.33050  Biso   1.000  H
  H144     1.0000 0.55200  0.73150  0.83050  Biso   1.000  H
  O17      1.0000 0.00660  0.18080  0.11818  Biso   1.000  O
  O18      1.0000 0.49340  0.81920  0.61818  Biso   1.000  O
  O19      1.0000 0.99340  0.68080  0.38182  Biso   1.000  O
  O20      1.0000 0.50660  0.31920  0.88182  Biso   1.000  O
  O21      1.0000 0.20760  0.18650  0.10900  Biso   1.000  O
  O22      1.0000 0.29240  0.81350  0.60900  Biso   1.000  O
  O23      1.0000 0.79240  0.68650  0.39100  Biso   1.000  O
  O24      1.0000 0.70760  0.31350  0.89100  Biso   1.000  O
  O25      1.0000 0.74580  0.16250  0.11928  Biso   1.000  O
  O26      1.0000 0.75420  0.83750  0.61928  Biso   1.000  O
  O27      1.0000 0.25420  0.66250  0.38072  Biso   1.000  O
  O28      1.0000 0.24580  0.33750  0.88072  Biso   1.000  O
  O29      1.0000 0.54310  0.16020  0.11655  Biso   1.000  O
  O30      1.0000 0.95690  0.83980  0.61655  Biso   1.000  O
  O31      1.0000 0.45690  0.66020  0.38345  Biso   1.000  O
  O32      1.0000 0.04310  0.33980  0.88345  Biso   1.000  O
  O33      1.0000 0.21070  0.39590  0.11451  Biso   1.000  O
  O34      1.0000 0.28930  0.60410  0.61451  Biso   1.000  O
  O35      1.0000 0.78930  0.89590  0.38549  Biso   1.000  O
  O36      1.0000 0.71070  0.10410  0.88549  Biso   1.000  O
  O37      1.0000 0.38080  0.32480  0.13455  Biso   1.000  O
  O38      1.0000 0.11920  0.67520  0.63455  Biso   1.000  O
  O39      1.0000 0.61920  0.82480  0.36545  Biso   1.000  O
  O40      1.0000 0.88080  0.17520  0.86545  Biso   1.000  O
  O41      1.0000 0.00450  0.48430  0.07873  Biso   1.000  O
  O42      1.0000 0.49550  0.51570  0.57873  Biso   1.000  O
  O43      1.0000 0.99550  0.98430  0.42127  Biso   1.000  O
  O44      1.0000 0.50450  0.01570  0.92127  Biso   1.000  O
  O45      1.0000 0.82850  0.53620  0.04581  Biso   1.000  O
  O46      1.0000 0.67150  0.46380  0.54581  Biso   1.000  O
  O47      1.0000 0.17150  0.03620  0.45419  Biso   1.000  O
  O48      1.0000 0.32850  0.96380  0.95419  Biso   1.000  O
  O49      1.0000 0.47410  0.18460  0.96364  Biso   1.000  O
  O50      1.0000 0.02590  0.81540  0.46364  Biso   1.000  O
  O51      1.0000 0.52590  0.68460  0.53636  Biso   1.000  O
  O52      1.0000 0.97410  0.31540  0.03636  Biso   1.000  O
  H145     1.0000 0.41690  0.20020  0.93330  Biso   1.000  H
  H146     1.0000 0.08310  0.79980  0.43330  Biso   1.000  H
  H147     1.0000 0.58310  0.70020  0.56670  Biso   1.000  H
  H148     1.0000 0.91690  0.29980  0.06670  Biso   1.000  H
  H149     1.0000 0.48840  0.12530  0.96190  Biso   1.000  H
  H150     1.0000 0.01160  0.87470  0.46190  Biso   1.000  H
  H151     1.0000 0.51160  0.62530  0.53810  Biso   1.000  H
  H152     1.0000 0.98840  0.37470  0.03810  Biso   1.000  H
  O53      1.0000 0.25840  0.30480  0.00202  Biso   1.000  O
  O54      1.0000 0.24160  0.69520  0.50202  Biso   1.000  O
  O55      1.0000 0.74160  0.80480  0.49798  Biso   1.000  O
  O56      1.0000 0.75840  0.19520  0.99798  Biso   1.000  O
  H153     1.0000 0.29860  0.32130  0.96600  Biso   1.000  H
  H154     1.0000 0.20140  0.67870  0.46600  Biso   1.000  H
  H155     1.0000 0.70140  0.82130  0.53400  Biso   1.000  H
  H156     1.0000 0.79860  0.17870  0.03400  Biso   1.000  H
  H157     1.0000 0.23680  0.35390  0.02440  Biso   1.000  H
  H158     1.0000 0.26320  0.64610  0.52440  Biso   1.000  H
  H159     1.0000 0.76320  0.85390  0.47560  Biso   1.000  H
  H160     1.0000 0.73680  0.14610  0.97560  Biso   1.000  H
  O57      1.0000 0.55130  0.32540  0.03390  Biso   1.000  O
  O58      1.0000 0.94870  0.67460  0.53390  Biso   1.000  O
  O59      1.0000 0.44870  0.82540  0.46610  Biso   1.000  O
  O60      1.0000 0.05130  0.17460  0.96610  Biso   1.000  O
  H161     1.0000 0.51790  0.36570  0.00680  Biso   1.000  H
  H162     1.0000 0.98210  0.63430  0.50680  Biso   1.000  H
  H163     1.0000 0.48210  0.86570  0.49320  Biso   1.000  H
  H164     1.0000 0.01790  0.13430  0.99320  Biso   1.000  H
  H165     1.0000 0.61880  0.29730  0.01560  Biso   1.000  H
  H166     1.0000 0.88120  0.70270  0.51560  Biso   1.000  H
  H167     1.0000 0.38120  0.79730  0.48440  Biso   1.000  H
  H168     1.0000 0.11880  0.20270  0.98440  Biso   1.000  H
  O61      1.0000 0.37650  0.06440  0.05120  Biso   1.000  O
  O62      1.0000 0.12350  0.93560  0.55120  Biso   1.000  O
  O63      1.0000 0.62350  0.56440  0.44880  Biso   1.000  O
  O64      1.0000 0.87650  0.43560  0.94880  Biso   1.000  O
  H169     1.0000 0.30750  0.04880  0.02750  Biso   1.000  H
  H170     1.0000 0.19250  0.95120  0.52750  Biso   1.000  H
  H171     1.0000 0.69250  0.54880  0.47250  Biso   1.000  H
  H172     1.0000 0.80750  0.45120  0.97250  Biso   1.000  H
  H173     1.0000 0.28540  0.06300  0.06060  Biso   1.000  H
  H174     1.0000 0.21460  0.93700  0.56060  Biso   1.000  H
  H175     1.0000 0.71460  0.56300  0.43940  Biso   1.000  H
  H176     1.0000 0.78540  0.43700  0.93940  Biso   1.000  H
  O65      1.0000 0.30400  0.09030  0.02940  Biso   1.000  O
  O66      1.0000 0.19600  0.90970  0.52940  Biso   1.000  O
  O67      1.0000 0.69600  0.59030  0.47060  Biso   1.000  O
  O68      1.0000 0.80400  0.40970  0.97060  Biso   1.000  O
