data_image0
_cell_length_a       8.215
_cell_length_b       8.5279
_cell_length_c       42.049
_cell_angle_alpha    90
_cell_angle_beta     92.813
_cell_angle_gamma    90

_symmetry_space_group_name_H-M    "P 1"
_symmetry_int_tables_number       1

loop_
  _symmetry_equiv_pos_as_xyz
  'x, y, z'

loop_
  _atom_site_label
  _atom_site_occupancy
  _atom_site_fract_x
  _atom_site_fract_y
  _atom_site_fract_z
  _atom_site_thermal_displace_type
  _atom_site_B_iso_or_equiv
  _atom_site_type_symbol
  Br1      1.0000 0.44733  0.14687  0.03263  Biso   1.000  Br
  Br2      1.0000 0.05267  0.64687  0.46737  Biso   1.000  Br
  Br3      1.0000 0.55267  0.85313  0.96737  Biso   1.000  Br
  Br4      1.0000 0.94733  0.35313  0.53263  Biso   1.000  Br
  Cu1      1.0000 0.70962  0.02156  0.00683  Biso   1.000  Cu
  Cu2      1.0000 0.79038  0.52156  0.49317  Biso   1.000  Cu
  Cu3      1.0000 0.29038  0.97844  0.99317  Biso   1.000  Cu
  Cu4      1.0000 0.20962  0.47844  0.50683  Biso   1.000  Cu
  N1       1.0000 0.73460  0.83060  0.03372  Biso   1.000  N
  N2       1.0000 0.76540  0.33060  0.46628  Biso   1.000  N
  N3       1.0000 0.26540  0.16940  0.96628  Biso   1.000  N
  N4       1.0000 0.23460  0.66940  0.53372  Biso   1.000  N
  C1       1.0000 0.82390  0.71550  0.02209  Biso   1.000  C
  C2       1.0000 0.67610  0.21550  0.47791  Biso   1.000  C
  C3       1.0000 0.17610  0.28450  0.97791  Biso   1.000  C
  C4       1.0000 0.32390  0.78450  0.52209  Biso   1.000  C
  H1       1.0000 0.87450  0.73190  0.00310  Biso   1.000  H
  H2       1.0000 0.62550  0.23190  0.49690  Biso   1.000  H
  H3       1.0000 0.12550  0.26810  0.99690  Biso   1.000  H
  H4       1.0000 0.37450  0.76810  0.50310  Biso   1.000  H
  Br5      1.0000 0.90508  0.16053  0.04292  Biso   1.000  Br
  Br6      1.0000 0.59492  0.66053  0.45708  Biso   1.000  Br
  Br7      1.0000 0.09492  0.83947  0.95708  Biso   1.000  Br
  Br8      1.0000 0.40508  0.33947  0.54292  Biso   1.000  Br
  N5       1.0000 0.59680  0.65620  0.10650  Biso   1.000  N
  N6       1.0000 0.90320  0.15620  0.39350  Biso   1.000  N
  N7       1.0000 0.40320  0.34380  0.89350  Biso   1.000  N
  N8       1.0000 0.09680  0.84380  0.60650  Biso   1.000  N
  H5       1.0000 0.52280  0.72540  0.10940  Biso   1.000  H
  H6       1.0000 0.97720  0.22540  0.39060  Biso   1.000  H
  H7       1.0000 0.47720  0.27460  0.89060  Biso   1.000  H
  H8       1.0000 0.02280  0.77460  0.60940  Biso   1.000  H
  C5       1.0000 0.84360  0.57450  0.03712  Biso   1.000  C
  C6       1.0000 0.65640  0.07450  0.46288  Biso   1.000  C
  C7       1.0000 0.15640  0.42550  0.96288  Biso   1.000  C
  C8       1.0000 0.34360  0.92550  0.53712  Biso   1.000  C
  H9       1.0000 0.90780  0.49720  0.02840  Biso   1.000  H
  H10      1.0000 0.59220  0.99720  0.47160  Biso   1.000  H
  H11      1.0000 0.09220  0.50280  0.97160  Biso   1.000  H
  H12      1.0000 0.40780  0.00280  0.52840  Biso   1.000  H
  N9       1.0000 0.52410  0.55990  0.15443  Biso   1.000  N
  N10      1.0000 0.97590  0.05990  0.34557  Biso   1.000  N
  N11      1.0000 0.47590  0.44010  0.84557  Biso   1.000  N
  N12      1.0000 0.02410  0.94010  0.65443  Biso   1.000  N
  H13      1.0000 0.43460  0.61140  0.15150  Biso   1.000  H
  H14      1.0000 0.06540  0.11140  0.34850  Biso   1.000  H
  H15      1.0000 0.56540  0.38860  0.84850  Biso   1.000  H
  H16      1.0000 0.93460  0.88860  0.65150  Biso   1.000  H
  C9       1.0000 0.76820  0.54660  0.06526  Biso   1.000  C
  C10      1.0000 0.73180  0.04660  0.43474  Biso   1.000  C
  C11      1.0000 0.23180  0.45340  0.93474  Biso   1.000  C
  C12      1.0000 0.26820  0.95340  0.56526  Biso   1.000  C
  H17      1.0000 0.77790  0.44960  0.07530  Biso   1.000  H
  H18      1.0000 0.72210  0.94960  0.42470  Biso   1.000  H
  H19      1.0000 0.22210  0.55040  0.92470  Biso   1.000  H
  H20      1.0000 0.27790  0.05040  0.57530  Biso   1.000  H
  N13      1.0000 0.99910  0.89880  0.15328  Biso   1.000  N
  N14      1.0000 0.50090  0.39880  0.34672  Biso   1.000  N
  N15      1.0000 0.00090  0.10120  0.84672  Biso   1.000  N
  N16      1.0000 0.49910  0.60120  0.65328  Biso   1.000  N
  H21      1.0000 0.93190  0.96170  0.14350  Biso   1.000  H
  H22      1.0000 0.56810  0.46170  0.35650  Biso   1.000  H
  H23      1.0000 0.06810  0.03830  0.85650  Biso   1.000  H
  H24      1.0000 0.43190  0.53830  0.64350  Biso   1.000  H
  C13      1.0000 0.67780  0.66570  0.07829  Biso   1.000  C
  C14      1.0000 0.82220  0.16570  0.42171  Biso   1.000  C
  C15      1.0000 0.32220  0.33430  0.92171  Biso   1.000  C
  C16      1.0000 0.17780  0.83430  0.57829  Biso   1.000  C
  N17      1.0000 0.07980  0.84350  0.10366  Biso   1.000  N
  N18      1.0000 0.42020  0.34350  0.39634  Biso   1.000  N
  N19      1.0000 0.92020  0.15650  0.89634  Biso   1.000  N
  N20      1.0000 0.57980  0.65650  0.60366  Biso   1.000  N
  H25      1.0000 0.01490  0.91900  0.09820  Biso   1.000  H
  H26      1.0000 0.48510  0.41900  0.40180  Biso   1.000  H
  H27      1.0000 0.98510  0.08100  0.90180  Biso   1.000  H
  H28      1.0000 0.51490  0.58100  0.59820  Biso   1.000  H
  C17      1.0000 0.66440  0.80710  0.06137  Biso   1.000  C
  C18      1.0000 0.83560  0.30710  0.43863  Biso   1.000  C
  C19      1.0000 0.33560  0.19290  0.93863  Biso   1.000  C
  C20      1.0000 0.16440  0.69290  0.56137  Biso   1.000  C
  H29      1.0000 0.60400  0.88820  0.06970  Biso   1.000  H
  H30      1.0000 0.89600  0.38820  0.43030  Biso   1.000  H
  H31      1.0000 0.39600  0.11180  0.93030  Biso   1.000  H
  H32      1.0000 0.10400  0.61180  0.56970  Biso   1.000  H
  O1       1.0000 0.73160  0.44500  0.12891  Biso   1.000  O
  O2       1.0000 0.76840  0.94500  0.37109  Biso   1.000  O
  O3       1.0000 0.26840  0.55500  0.87109  Biso   1.000  O
  O4       1.0000 0.23160  0.05500  0.62891  Biso   1.000  O
  N21      1.0000 0.26570  0.81880  0.02744  Biso   1.000  N
  N22      1.0000 0.23430  0.31880  0.47256  Biso   1.000  N
  N23      1.0000 0.73430  0.18120  0.97256  Biso   1.000  N
  N24      1.0000 0.76570  0.68120  0.52744  Biso   1.000  N
  C21      1.0000 0.62310  0.54800  0.12998  Biso   1.000  C
  C22      1.0000 0.87690  0.04800  0.37002  Biso   1.000  C
  C23      1.0000 0.37690  0.45200  0.87002  Biso   1.000  C
  C24      1.0000 0.12310  0.95200  0.62998  Biso   1.000  C
  C25      1.0000 0.56130  0.48900  0.18600  Biso   1.000  C
  C26      1.0000 0.93870  0.98900  0.31400  Biso   1.000  C
  C27      1.0000 0.43870  0.51100  0.81400  Biso   1.000  C
  C28      1.0000 0.06130  0.01100  0.68600  Biso   1.000  C
  C29      1.0000 0.54680  0.31050  0.18420  Biso   1.000  C
  C30      1.0000 0.95320  0.81050  0.31580  Biso   1.000  C
  C31      1.0000 0.45320  0.68950  0.81580  Biso   1.000  C
  C32      1.0000 0.04680  0.18950  0.68420  Biso   1.000  C
  H33      1.0000 0.44490  0.28270  0.17350  Biso   1.000  H
  H34      1.0000 0.05510  0.78270  0.32650  Biso   1.000  H
  H35      1.0000 0.55510  0.71730  0.82650  Biso   1.000  H
  H36      1.0000 0.94490  0.21730  0.67350  Biso   1.000  H
  H37      1.0000 0.55160  0.26770  0.20530  Biso   1.000  H
  H38      1.0000 0.94840  0.76770  0.29470  Biso   1.000  H
  H39      1.0000 0.44840  0.73230  0.79470  Biso   1.000  H
  H40      1.0000 0.05160  0.23230  0.70530  Biso   1.000  H
  H41      1.0000 0.63490  0.26910  0.17260  Biso   1.000  H
  H42      1.0000 0.86510  0.76910  0.32740  Biso   1.000  H
  H43      1.0000 0.36510  0.73090  0.82740  Biso   1.000  H
  H44      1.0000 0.13490  0.23090  0.67260  Biso   1.000  H
  O5       1.0000 0.17710  0.69620  0.14598  Biso   1.000  O
  O6       1.0000 0.32290  0.19620  0.35402  Biso   1.000  O
  O7       1.0000 0.82290  0.30380  0.85402  Biso   1.000  O
  O8       1.0000 0.67710  0.80380  0.64598  Biso   1.000  O
  C33      1.0000 0.43220  0.55230  0.20760  Biso   1.000  C
  C34      1.0000 0.06780  0.05230  0.29240  Biso   1.000  C
  C35      1.0000 0.56780  0.44770  0.79240  Biso   1.000  C
  C36      1.0000 0.93220  0.94770  0.70760  Biso   1.000  C
  H45      1.0000 0.43750  0.66480  0.20810  Biso   1.000  H
  H46      1.0000 0.06250  0.16480  0.29190  Biso   1.000  H
  H47      1.0000 0.56250  0.33520  0.79190  Biso   1.000  H
  H48      1.0000 0.93750  0.83520  0.70810  Biso   1.000  H
  H49      1.0000 0.45190  0.51190  0.22880  Biso   1.000  H
  H50      1.0000 0.04810  0.01190  0.27120  Biso   1.000  H
  H51      1.0000 0.54810  0.48810  0.77120  Biso   1.000  H
  H52      1.0000 0.95190  0.98810  0.72880  Biso   1.000  H
  H53      1.0000 0.32600  0.52000  0.19960  Biso   1.000  H
  H54      1.0000 0.17400  0.02000  0.30040  Biso   1.000  H
  H55      1.0000 0.67400  0.48000  0.80040  Biso   1.000  H
  H56      1.0000 0.82600  0.98000  0.69960  Biso   1.000  H
  C37      1.0000 0.73000  0.54690  0.19934  Biso   1.000  C
  C38      1.0000 0.77000  0.04690  0.30066  Biso   1.000  C
  C39      1.0000 0.27000  0.45310  0.80066  Biso   1.000  C
  C40      1.0000 0.23000  0.95310  0.69934  Biso   1.000  C
  C41      1.0000 0.81150  0.46490  0.22386  Biso   1.000  C
  C42      1.0000 0.68850  0.96490  0.27614  Biso   1.000  C
  C43      1.0000 0.18850  0.53510  0.77614  Biso   1.000  C
  C44      1.0000 0.31150  0.03510  0.72386  Biso   1.000  C
  H57      1.0000 0.76840  0.37190  0.23140  Biso   1.000  H
  H58      1.0000 0.73160  0.87190  0.26860  Biso   1.000  H
  H59      1.0000 0.23160  0.62810  0.76860  Biso   1.000  H
  H60      1.0000 0.26840  0.12810  0.73140  Biso   1.000  H
  C45      1.0000 0.95810  0.52290  0.23716  Biso   1.000  C
  C46      1.0000 0.54190  0.02290  0.26284  Biso   1.000  C
  C47      1.0000 0.04190  0.47710  0.76284  Biso   1.000  C
  C48      1.0000 0.45810  0.97710  0.73716  Biso   1.000  C
  H61      1.0000 0.01270  0.46820  0.25360  Biso   1.000  H
  H62      1.0000 0.48730  0.96820  0.24640  Biso   1.000  H
  H63      1.0000 0.98730  0.53180  0.74640  Biso   1.000  H
  H64      1.0000 0.51270  0.03180  0.75360  Biso   1.000  H
  C49      1.0000 0.02350  0.66150  0.22610  Biso   1.000  C
  C50      1.0000 0.47650  0.16150  0.27390  Biso   1.000  C
  C51      1.0000 0.97650  0.33850  0.77390  Biso   1.000  C
  C52      1.0000 0.52350  0.83850  0.72610  Biso   1.000  C
  H65      1.0000 0.12090  0.69940  0.23530  Biso   1.000  H
  H66      1.0000 0.37910  0.19940  0.26470  Biso   1.000  H
  H67      1.0000 0.87910  0.30060  0.76470  Biso   1.000  H
  H68      1.0000 0.62090  0.80060  0.73530  Biso   1.000  H
  C53      1.0000 0.94480  0.74430  0.20137  Biso   1.000  C
  C54      1.0000 0.55520  0.24430  0.29863  Biso   1.000  C
  C55      1.0000 0.05520  0.25570  0.79863  Biso   1.000  C
  C56      1.0000 0.44480  0.75570  0.70137  Biso   1.000  C
  C57      1.0000 0.79690  0.68510  0.18884  Biso   1.000  C
  C58      1.0000 0.70310  0.18510  0.31116  Biso   1.000  C
  C59      1.0000 0.20310  0.31490  0.81116  Biso   1.000  C
  C60      1.0000 0.29690  0.81490  0.68884  Biso   1.000  C
  H69      1.0000 0.74100  0.74090  0.17270  Biso   1.000  H
  H70      1.0000 0.75900  0.24090  0.32730  Biso   1.000  H
  H71      1.0000 0.25900  0.25910  0.82730  Biso   1.000  H
  H72      1.0000 0.24100  0.75910  0.67270  Biso   1.000  H
  C61      1.0000 0.00640  0.90040  0.18863  Biso   1.000  C
  C62      1.0000 0.49360  0.40040  0.31137  Biso   1.000  C
  C63      1.0000 0.99360  0.09960  0.81137  Biso   1.000  C
  C64      1.0000 0.50640  0.59960  0.68863  Biso   1.000  C
  C65      1.0000 0.89010  0.03230  0.19760  Biso   1.000  C
  C66      1.0000 0.60990  0.53230  0.30240  Biso   1.000  C
  C67      1.0000 0.10990  0.96770  0.80240  Biso   1.000  C
  C68      1.0000 0.39010  0.46770  0.69760  Biso   1.000  C
  H73      1.0000 0.92910  0.13050  0.18980  Biso   1.000  H
  H74      1.0000 0.57090  0.63050  0.31020  Biso   1.000  H
  H75      1.0000 0.07090  0.86950  0.81020  Biso   1.000  H
  H76      1.0000 0.42910  0.36950  0.68980  Biso   1.000  H
  H77      1.0000 0.88530  0.03720  0.22030  Biso   1.000  H
  H78      1.0000 0.61470  0.53720  0.27970  Biso   1.000  H
  H79      1.0000 0.11470  0.96280  0.77970  Biso   1.000  H
  H80      1.0000 0.38530  0.46280  0.72030  Biso   1.000  H
  H81      1.0000 0.78320  0.01170  0.18830  Biso   1.000  H
  H82      1.0000 0.71680  0.51170  0.31170  Biso   1.000  H
  H83      1.0000 0.21680  0.98830  0.81170  Biso   1.000  H
  H84      1.0000 0.28320  0.48830  0.68830  Biso   1.000  H
  C69      1.0000 0.17950  0.94390  0.20051  Biso   1.000  C
  C70      1.0000 0.32050  0.44390  0.29949  Biso   1.000  C
  C71      1.0000 0.82050  0.05610  0.79949  Biso   1.000  C
  C72      1.0000 0.67950  0.55610  0.70051  Biso   1.000  C
  H85      1.0000 0.25470  0.86680  0.19340  Biso   1.000  H
  H86      1.0000 0.24530  0.36680  0.30660  Biso   1.000  H
  H87      1.0000 0.74530  0.13320  0.80660  Biso   1.000  H
  H88      1.0000 0.75470  0.63320  0.69340  Biso   1.000  H
  H89      1.0000 0.18520  0.94740  0.22340  Biso   1.000  H
  H90      1.0000 0.31480  0.44740  0.27660  Biso   1.000  H
  H91      1.0000 0.81480  0.05260  0.77660  Biso   1.000  H
  H92      1.0000 0.68520  0.55260  0.72340  Biso   1.000  H
  H93      1.0000 0.20730  0.04490  0.19230  Biso   1.000  H
  H94      1.0000 0.29270  0.54490  0.30770  Biso   1.000  H
  H95      1.0000 0.79270  0.95510  0.80770  Biso   1.000  H
  H96      1.0000 0.70730  0.45510  0.69230  Biso   1.000  H
  C73      1.0000 0.09090  0.80520  0.13562  Biso   1.000  C
  C74      1.0000 0.40910  0.30520  0.36438  Biso   1.000  C
  C75      1.0000 0.90910  0.19480  0.86438  Biso   1.000  C
  C76      1.0000 0.59090  0.69480  0.63562  Biso   1.000  C
  C77      1.0000 0.16310  0.77230  0.07926  Biso   1.000  C
  C78      1.0000 0.33690  0.27230  0.42074  Biso   1.000  C
  C79      1.0000 0.83690  0.22770  0.92074  Biso   1.000  C
  C80      1.0000 0.66310  0.72770  0.57926  Biso   1.000  C
  C81      1.0000 0.20720  0.61580  0.07742  Biso   1.000  C
  C82      1.0000 0.29280  0.11580  0.42258  Biso   1.000  C
  C83      1.0000 0.79280  0.38420  0.92258  Biso   1.000  C
  C84      1.0000 0.70720  0.88420  0.57742  Biso   1.000  C
  H97      1.0000 0.18720  0.54690  0.09390  Biso   1.000  H
  H98      1.0000 0.31280  0.04690  0.40610  Biso   1.000  H
  H99      1.0000 0.81280  0.45310  0.90610  Biso   1.000  H
  H100     1.0000 0.68720  0.95310  0.59390  Biso   1.000  H
  C85      1.0000 0.28130  0.56430  0.05063  Biso   1.000  C
  C86      1.0000 0.21870  0.06430  0.44937  Biso   1.000  C
  C87      1.0000 0.71870  0.43570  0.94937  Biso   1.000  C
  C88      1.0000 0.78130  0.93570  0.55063  Biso   1.000  C
  H101     1.0000 0.31430  0.46030  0.04920  Biso   1.000  H
  H102     1.0000 0.18570  0.96030  0.45080  Biso   1.000  H
  H103     1.0000 0.68570  0.53970  0.95080  Biso   1.000  H
  H104     1.0000 0.81430  0.03970  0.54920  Biso   1.000  H
  C89      1.0000 0.30700  0.66770  0.02574  Biso   1.000  C
  C90      1.0000 0.19300  0.16770  0.47426  Biso   1.000  C
  C91      1.0000 0.69300  0.33230  0.97426  Biso   1.000  C
  C92      1.0000 0.80700  0.83230  0.52574  Biso   1.000  C
  H105     1.0000 0.35410  0.63070  0.00750  Biso   1.000  H
  H106     1.0000 0.14590  0.13070  0.49250  Biso   1.000  H
  H107     1.0000 0.64590  0.36930  0.99250  Biso   1.000  H
  H108     1.0000 0.85410  0.86930  0.50750  Biso   1.000  H
  C93      1.0000 0.19850  0.86780  0.05381  Biso   1.000  C
  C94      1.0000 0.30150  0.36780  0.44619  Biso   1.000  C
  C95      1.0000 0.80150  0.13220  0.94619  Biso   1.000  C
  C96      1.0000 0.69850  0.63220  0.55381  Biso   1.000  C
  H109     1.0000 0.17340  0.97380  0.05530  Biso   1.000  H
  H110     1.0000 0.32660  0.47380  0.44470  Biso   1.000  H
  H111     1.0000 0.82660  0.02620  0.94470  Biso   1.000  H
  H112     1.0000 0.67340  0.52620  0.55530  Biso   1.000  H
  O9       1.0000 0.23100  0.15300  0.13010  Biso   1.000  O
  O10      1.0000 0.26900  0.65300  0.36990  Biso   1.000  O
  O11      1.0000 0.76900  0.84700  0.86990  Biso   1.000  O
  O12      1.0000 0.73100  0.34700  0.63010  Biso   1.000  O
  H113     1.0000 0.13160  0.16070  0.12960  Biso   1.000  H
  H114     1.0000 0.36840  0.66070  0.37040  Biso   1.000  H
  H115     1.0000 0.86840  0.83930  0.87040  Biso   1.000  H
  H116     1.0000 0.63160  0.33930  0.62960  Biso   1.000  H
  H117     1.0000 0.10430  0.48770  0.15660  Biso   1.000  H
  H118     1.0000 0.39570  0.98770  0.34340  Biso   1.000  H
  H119     1.0000 0.89570  0.51230  0.84340  Biso   1.000  H
  H120     1.0000 0.60430  0.01230  0.65660  Biso   1.000  H
  H121     1.0000 0.98580  0.42300  0.13770  Biso   1.000  H
  H122     1.0000 0.51420  0.92300  0.36230  Biso   1.000  H
  H123     1.0000 0.01420  0.57700  0.86230  Biso   1.000  H
  H124     1.0000 0.48580  0.07700  0.63770  Biso   1.000  H
  H125     1.0000 0.76140  0.22590  0.11720  Biso   1.000  H
  H126     1.0000 0.73860  0.72590  0.38280  Biso   1.000  H
  H127     1.0000 0.23860  0.77410  0.88280  Biso   1.000  H
  H128     1.0000 0.26140  0.27410  0.61720  Biso   1.000  H
  H129     1.0000 0.80210  0.13260  0.09570  Biso   1.000  H
  H130     1.0000 0.69790  0.63260  0.40430  Biso   1.000  H
  H131     1.0000 0.19790  0.86740  0.90430  Biso   1.000  H
  H132     1.0000 0.30210  0.36740  0.59570  Biso   1.000  H
  H133     1.0000 0.58280  0.00170  0.12670  Biso   1.000  H
  H134     1.0000 0.91720  0.50170  0.37330  Biso   1.000  H
  H135     1.0000 0.41720  0.99830  0.87330  Biso   1.000  H
  H136     1.0000 0.08280  0.49830  0.62670  Biso   1.000  H
  H137     1.0000 0.40210  0.01560  0.13060  Biso   1.000  H
  H138     1.0000 0.09790  0.51560  0.36940  Biso   1.000  H
  H139     1.0000 0.59790  0.98440  0.86940  Biso   1.000  H
  H140     1.0000 0.90210  0.48440  0.63060  Biso   1.000  H
  C97      1.0000 0.29100  0.23600  0.10480  Biso   1.000  C
  C98      1.0000 0.20900  0.73600  0.39520  Biso   1.000  C
  C99      1.0000 0.70900  0.76400  0.89520  Biso   1.000  C
  C100     1.0000 0.79100  0.26400  0.60480  Biso   1.000  C
  H141     1.0000 0.34400  0.32950  0.11260  Biso   1.000  H
  H142     1.0000 0.15600  0.82950  0.38740  Biso   1.000  H
  H143     1.0000 0.65600  0.67050  0.88740  Biso   1.000  H
  H144     1.0000 0.84400  0.17050  0.61260  Biso   1.000  H
  H145     1.0000 0.20180  0.26400  0.09010  Biso   1.000  H
  H146     1.0000 0.29820  0.76400  0.40990  Biso   1.000  H
  H147     1.0000 0.79820  0.73600  0.90990  Biso   1.000  H
  H148     1.0000 0.70180  0.23600  0.59010  Biso   1.000  H
  H149     1.0000 0.36690  0.17210  0.09400  Biso   1.000  H
  H150     1.0000 0.13310  0.67210  0.40600  Biso   1.000  H
  H151     1.0000 0.63310  0.82790  0.90600  Biso   1.000  H
  H152     1.0000 0.86690  0.32790  0.59400  Biso   1.000  H
  O13      1.0000 0.48520  0.94410  0.13129  Biso   1.000  O
  O14      1.0000 0.01480  0.44410  0.36871  Biso   1.000  O
  O15      1.0000 0.51480  0.05590  0.86871  Biso   1.000  O
  O16      1.0000 0.98520  0.55590  0.63129  Biso   1.000  O
  O17      1.0000 0.06470  0.38500  0.15075  Biso   1.000  O
  O18      1.0000 0.43530  0.88500  0.34925  Biso   1.000  O
  O19      1.0000 0.93530  0.61500  0.84925  Biso   1.000  O
  O20      1.0000 0.56470  0.11500  0.65075  Biso   1.000  O
  O21      1.0000 0.76670  0.12310  0.11647  Biso   1.000  O
  O22      1.0000 0.73330  0.62310  0.38353  Biso   1.000  O
  O23      1.0000 0.23330  0.87690  0.88353  Biso   1.000  O
  O24      1.0000 0.26670  0.37690  0.61647  Biso   1.000  O
  O25      1.0000 0.22400  0.16850  0.11070  Biso   1.000  O
  O26      1.0000 0.27600  0.66850  0.38930  Biso   1.000  O
  O27      1.0000 0.77600  0.83150  0.88930  Biso   1.000  O
  O28      1.0000 0.72400  0.33150  0.61070  Biso   1.000  O
