data_image0
_cell_length_a       9.6888
_cell_length_b       7.3772
_cell_length_c       14.3277
_cell_angle_alpha    90
_cell_angle_beta     95.819
_cell_angle_gamma    90

_symmetry_space_group_name_H-M    "P 1"
_symmetry_int_tables_number       1

loop_
  _symmetry_equiv_pos_as_xyz
  'x, y, z'

loop_
  _atom_site_label
  _atom_site_occupancy
  _atom_site_fract_x
  _atom_site_fract_y
  _atom_site_fract_z
  _atom_site_thermal_displace_type
  _atom_site_B_iso_or_equiv
  _atom_site_type_symbol
  Cu1      1.0000 0.50000  0.50000  0.50000  Biso   1.000  Cu
  Cu2      1.0000 0.00000  0.00000  0.00000  Biso   1.000  Cu
  O1       1.0000 0.55658  0.52860  0.63621  Biso   1.000  O
  O2       1.0000 0.94342  0.02860  0.86379  Biso   1.000  O
  O3       1.0000 0.44342  0.47140  0.36379  Biso   1.000  O
  O4       1.0000 0.05658  0.97140  0.13621  Biso   1.000  O
  O5       1.0000 0.74548  0.51440  0.73945  Biso   1.000  O
  O6       1.0000 0.75452  0.01440  0.76055  Biso   1.000  O
  O7       1.0000 0.25452  0.48560  0.26055  Biso   1.000  O
  O8       1.0000 0.24548  0.98560  0.23945  Biso   1.000  O
  C1       1.0000 0.68450  0.49270  0.66147  Biso   1.000  C
  C2       1.0000 0.81550  0.99270  0.83853  Biso   1.000  C
  C3       1.0000 0.31550  0.50730  0.33853  Biso   1.000  C
  C4       1.0000 0.18450  0.00730  0.16147  Biso   1.000  C
  N1       1.0000 0.88648  0.34510  0.58387  Biso   1.000  N
  N2       1.0000 0.61352  0.84510  0.91613  Biso   1.000  N
  N3       1.0000 0.11352  0.65490  0.41613  Biso   1.000  N
  N4       1.0000 0.38648  0.15490  0.08387  Biso   1.000  N
  N5       1.0000 0.69199  0.42030  0.49698  Biso   1.000  N
  N6       1.0000 0.80801  0.92030  0.00302  Biso   1.000  N
  N7       1.0000 0.30801  0.57970  0.50302  Biso   1.000  N
  N8       1.0000 0.19199  0.07970  0.99698  Biso   1.000  N
  C5       1.0000 0.76250  0.30710  0.34193  Biso   1.000  C
  C6       1.0000 0.73750  0.80710  0.15807  Biso   1.000  C
  C7       1.0000 0.23750  0.69290  0.65807  Biso   1.000  C
  C8       1.0000 0.26250  0.19290  0.84193  Biso   1.000  C
  H1       1.0000 0.67880  0.33720  0.30480  Biso   1.000  H
  H2       1.0000 0.82120  0.83720  0.19520  Biso   1.000  H
  H3       1.0000 0.32120  0.66280  0.69520  Biso   1.000  H
  H4       1.0000 0.17880  0.16280  0.80480  Biso   1.000  H
  C9       1.0000 0.99630  0.18270  0.35783  Biso   1.000  C
  C10      1.0000 0.50370  0.68270  0.14217  Biso   1.000  C
  C11      1.0000 0.00370  0.81730  0.64217  Biso   1.000  C
  C12      1.0000 0.49630  0.31730  0.85783  Biso   1.000  C
  H5       1.0000 0.06960  0.12880  0.32830  Biso   1.000  H
  H6       1.0000 0.43040  0.62880  0.17170  Biso   1.000  H
  H7       1.0000 0.93040  0.87120  0.67170  Biso   1.000  H
  H8       1.0000 0.56960  0.37120  0.82830  Biso   1.000  H
  C13      1.0000 0.75850  0.41800  0.58209  Biso   1.000  C
  C14      1.0000 0.74150  0.91800  0.91791  Biso   1.000  C
  C15      1.0000 0.24150  0.58200  0.41791  Biso   1.000  C
  C16      1.0000 0.25850  0.08200  0.08209  Biso   1.000  C
  C17      1.0000 0.90460  0.29690  0.49225  Biso   1.000  C
  C18      1.0000 0.59540  0.79690  0.00775  Biso   1.000  C
  C19      1.0000 0.09540  0.70310  0.50775  Biso   1.000  C
  C20      1.0000 0.40460  0.20310  0.99225  Biso   1.000  C
  C21      1.0000 0.98670  0.31650  0.66578  Biso   1.000  C
  C22      1.0000 0.51330  0.81650  0.83422  Biso   1.000  C
  C23      1.0000 0.01330  0.68350  0.33422  Biso   1.000  C
  C24      1.0000 0.48670  0.18350  0.16578  Biso   1.000  C
  H9       1.0000 0.02460  0.43360  0.68830  Biso   1.000  H
  H10      1.0000 0.47540  0.93360  0.81170  Biso   1.000  H
  H11      1.0000 0.97540  0.56640  0.31170  Biso   1.000  H
  H12      1.0000 0.52460  0.06640  0.18830  Biso   1.000  H
  H13      1.0000 0.06230  0.23900  0.64850  Biso   1.000  H
  H14      1.0000 0.43770  0.73900  0.85150  Biso   1.000  H
  H15      1.0000 0.93770  0.76100  0.35150  Biso   1.000  H
  H16      1.0000 0.56230  0.26100  0.14850  Biso   1.000  H
  H17      1.0000 0.94060  0.25770  0.71550  Biso   1.000  H
  H18      1.0000 0.55940  0.75770  0.78450  Biso   1.000  H
  H19      1.0000 0.05940  0.74230  0.28450  Biso   1.000  H
  H20      1.0000 0.44060  0.24230  0.21550  Biso   1.000  H
  C25      1.0000 0.87100  0.22550  0.30342  Biso   1.000  C
  C26      1.0000 0.62900  0.72550  0.19658  Biso   1.000  C
  C27      1.0000 0.12900  0.77450  0.69658  Biso   1.000  C
  C28      1.0000 0.37100  0.27450  0.80342  Biso   1.000  C
  H21      1.0000 0.86130  0.19710  0.23840  Biso   1.000  H
  H22      1.0000 0.63870  0.69710  0.26160  Biso   1.000  H
  H23      1.0000 0.13870  0.80290  0.76160  Biso   1.000  H
  H24      1.0000 0.36130  0.30290  0.73840  Biso   1.000  H
  C29      1.0000 0.78060  0.34410  0.43805  Biso   1.000  C
  C30      1.0000 0.71940  0.84410  0.06195  Biso   1.000  C
  C31      1.0000 0.21940  0.65590  0.56195  Biso   1.000  C
  C32      1.0000 0.28060  0.15590  0.93805  Biso   1.000  C
  C33      1.0000 0.01490  0.21730  0.45290  Biso   1.000  C
  C34      1.0000 0.48510  0.71730  0.04710  Biso   1.000  C
  C35      1.0000 0.98510  0.78270  0.54710  Biso   1.000  C
  C36      1.0000 0.51490  0.28270  0.95290  Biso   1.000  C
  H25      1.0000 0.09910  0.18800  0.48970  Biso   1.000  H
  H26      1.0000 0.40090  0.68800  0.01030  Biso   1.000  H
  H27      1.0000 0.90090  0.81200  0.51030  Biso   1.000  H
  H28      1.0000 0.59910  0.31200  0.98970  Biso   1.000  H
  O9       1.0000 0.43403  0.16490  0.52242  Biso   1.000  O
  O10      1.0000 0.06597  0.66490  0.97758  Biso   1.000  O
  O11      1.0000 0.56597  0.83510  0.47758  Biso   1.000  O
  O12      1.0000 0.93403  0.33510  0.02242  Biso   1.000  O
  C37      1.0000 0.38150  0.05500  0.44430  Biso   1.000  C
  C38      1.0000 0.11850  0.55500  0.05570  Biso   1.000  C
  C39      1.0000 0.61850  0.94500  0.55570  Biso   1.000  C
  C40      1.0000 0.88150  0.44500  0.94430  Biso   1.000  C
  H29      1.0000 0.33650  0.13370  0.39410  Biso   1.000  H
  H30      1.0000 0.16350  0.63370  0.10590  Biso   1.000  H
  H31      1.0000 0.66350  0.86630  0.60590  Biso   1.000  H
  H32      1.0000 0.83650  0.36630  0.89410  Biso   1.000  H
  H33      1.0000 0.31040  0.97100  0.46430  Biso   1.000  H
  H34      1.0000 0.18960  0.47100  0.03570  Biso   1.000  H
  H35      1.0000 0.68960  0.02900  0.53570  Biso   1.000  H
  H36      1.0000 0.81040  0.52900  0.96430  Biso   1.000  H
  C41      1.0000 0.50480  0.05250  0.59373  Biso   1.000  C
  C42      1.0000 0.99520  0.55250  0.90627  Biso   1.000  C
  C43      1.0000 0.49520  0.94750  0.40627  Biso   1.000  C
  C44      1.0000 0.00480  0.44750  0.09373  Biso   1.000  C
  H37      1.0000 0.43760  0.96850  0.61840  Biso   1.000  H
  H38      1.0000 0.06240  0.46850  0.88160  Biso   1.000  H
  H39      1.0000 0.56240  0.03150  0.38160  Biso   1.000  H
  H40      1.0000 0.93760  0.53150  0.11840  Biso   1.000  H
  H41      1.0000 0.54490  0.12940  0.64620  Biso   1.000  H
  H42      1.0000 0.95510  0.62940  0.85380  Biso   1.000  H
  H43      1.0000 0.45510  0.87060  0.35380  Biso   1.000  H
  H44      1.0000 0.04490  0.37060  0.14620  Biso   1.000  H
