data_image0
_cell_length_a       7.822
_cell_length_b       15.854
_cell_length_c       17.553
_cell_angle_alpha    113.033
_cell_angle_beta     90.694
_cell_angle_gamma    101.006

_symmetry_space_group_name_H-M    "P 1"
_symmetry_int_tables_number       1

loop_
  _symmetry_equiv_pos_as_xyz
  'x, y, z'

loop_
  _atom_site_label
  _atom_site_occupancy
  _atom_site_fract_x
  _atom_site_fract_y
  _atom_site_fract_z
  _atom_site_thermal_displace_type
  _atom_site_B_iso_or_equiv
  _atom_site_type_symbol
  Cu1      1.0000 0.67591  0.46631  0.01824  Biso   1.000  Cu
  Cu2      1.0000 0.32409  0.53369  0.98176  Biso   1.000  Cu
  Cu3      1.0000 0.00000  0.00000  0.50000  Biso   1.000  Cu
  Cu4      1.0000 0.50000  0.50000  0.50000  Biso   1.000  Cu
  N1       1.0000 0.75940  0.45340  0.91100  Biso   1.000  N
  N2       1.0000 0.24060  0.54660  0.08900  Biso   1.000  N
  N3       1.0000 0.80620  0.39420  0.78000  Biso   1.000  N
  N4       1.0000 0.19380  0.60580  0.22000  Biso   1.000  N
  N5       1.0000 0.51500  0.13950  0.52360  Biso   1.000  N
  N6       1.0000 0.48500  0.86050  0.47640  Biso   1.000  N
  N7       1.0000 0.24610  0.05420  0.49140  Biso   1.000  N
  N8       1.0000 0.75390  0.94580  0.50860  Biso   1.000  N
  N9       1.0000 0.10650  0.30710  0.53220  Biso   1.000  N
  N10      1.0000 0.89350  0.69290  0.46780  Biso   1.000  N
  N11      1.0000 0.33050  0.38920  0.50010  Biso   1.000  N
  N12      1.0000 0.66950  0.61080  0.49990  Biso   1.000  N
  O1       1.0000 0.97070  0.91610  0.38170  Biso   1.000  O
  O2       1.0000 0.02930  0.08390  0.61830  Biso   1.000  O
  O3       1.0000 0.88790  0.04050  0.37850  Biso   1.000  O
  O4       1.0000 0.11210  0.95950  0.62150  Biso   1.000  O
  O5       1.0000 0.62060  0.59040  0.04410  Biso   1.000  O
  O6       1.0000 0.37940  0.40960  0.95590  Biso   1.000  O
  O7       1.0000 0.86420  0.62350  0.12340  Biso   1.000  O
  O8       1.0000 0.13580  0.37650  0.87660  Biso   1.000  O
  O9       1.0000 0.41870  0.57860  0.60320  Biso   1.000  O
  O10      1.0000 0.58130  0.42140  0.39680  Biso   1.000  O
  O11      1.0000 0.21510  0.63390  0.56000  Biso   1.000  O
  O12      1.0000 0.78490  0.36610  0.44000  Biso   1.000  O
  O13      1.0000 0.38200  0.54990  0.87370  Biso   1.000  O
  O14      1.0000 0.61800  0.45010  0.12630  Biso   1.000  O
  O15      1.0000 0.24760  0.64110  0.96890  Biso   1.000  O
  O16      1.0000 0.75240  0.35890  0.03110  Biso   1.000  O
  C1       1.0000 0.29400  0.62160  0.61410  Biso   1.000  C
  C2       1.0000 0.70600  0.37840  0.38590  Biso   1.000  C
  C3       1.0000 0.24190  0.65710  0.70190  Biso   1.000  C
  C4       1.0000 0.75810  0.34290  0.29810  Biso   1.000  C
  C5       1.0000 0.12440  0.71590  0.72440  Biso   1.000  C
  C6       1.0000 0.87560  0.28410  0.27560  Biso   1.000  C
  H1       1.0000 0.08170  0.73510  0.68550  Biso   1.000  H
  H2       1.0000 0.91830  0.26490  0.31450  Biso   1.000  H
  C7       1.0000 0.06840  0.74730  0.80440  Biso   1.000  C
  C8       1.0000 0.93160  0.25270  0.19560  Biso   1.000  C
  C9       1.0000 0.13350  0.71530  0.86000  Biso   1.000  C
  C10      1.0000 0.86650  0.28470  0.14000  Biso   1.000  C
  H3       1.0000 0.10010  0.73570  0.91390  Biso   1.000  H
  H4       1.0000 0.89990  0.26430  0.08610  Biso   1.000  H
  C11      1.0000 0.24650  0.65400  0.83740  Biso   1.000  C
  C12      1.0000 0.75350  0.34600  0.16260  Biso   1.000  C
  C13      1.0000 0.30320  0.62570  0.75870  Biso   1.000  C
  C14      1.0000 0.69680  0.37430  0.24130  Biso   1.000  C
  H5       1.0000 0.38180  0.58600  0.74390  Biso   1.000  H
  H6       1.0000 0.61820  0.41400  0.25610  Biso   1.000  H
  C15      1.0000 0.29800  0.61430  0.89620  Biso   1.000  C
  C16      1.0000 0.70200  0.38570  0.10380  Biso   1.000  C
  C17      1.0000 0.93390  0.80960  0.82780  Biso   1.000  C
  C18      1.0000 0.06610  0.19040  0.17220  Biso   1.000  C
  C19      1.0000 0.75150  0.74790  0.80620  Biso   1.000  C
  C20      1.0000 0.24850  0.25210  0.19380  Biso   1.000  C
  H7       1.0000 0.72940  0.71860  0.84470  Biso   1.000  H
  H8       1.0000 0.27060  0.28140  0.15530  Biso   1.000  H
  H9       1.0000 0.74250  0.70060  0.75080  Biso   1.000  H
  H10      1.0000 0.25750  0.29940  0.24920  Biso   1.000  H
  H11      1.0000 0.66700  0.78560  0.80930  Biso   1.000  H
  H12      1.0000 0.33300  0.21440  0.19070  Biso   1.000  H
  C21      1.0000 0.95900  0.87190  0.91830  Biso   1.000  C
  C22      1.0000 0.04100  0.12810  0.08170  Biso   1.000  C
  H13      1.0000 0.85830  0.89910  0.93380  Biso   1.000  H
  H14      1.0000 0.14170  0.10090  0.06620  Biso   1.000  H
  H15      1.0000 0.06120  0.92090  0.92930  Biso   1.000  H
  H16      1.0000 0.93880  0.07910  0.07070  Biso   1.000  H
  H17      1.0000 0.97330  0.83580  0.95000  Biso   1.000  H
  H18      1.0000 0.02670  0.16420  0.05000  Biso   1.000  H
  C23      1.0000 0.94740  0.87330  0.78030  Biso   1.000  C
  C24      1.0000 0.05260  0.12670  0.21970  Biso   1.000  C
  H19      1.0000 0.86200  0.91160  0.79700  Biso   1.000  H
  H20      1.0000 0.13800  0.08840  0.20300  Biso   1.000  H
  H21      1.0000 0.92610  0.83540  0.72160  Biso   1.000  H
  H22      1.0000 0.07390  0.16460  0.27840  Biso   1.000  H
  H23      1.0000 0.06240  0.91270  0.79240  Biso   1.000  H
  H24      1.0000 0.93760  0.08730  0.20760  Biso   1.000  H
  C25      1.0000 0.20890  0.39150  0.55190  Biso   1.000  C
  C26      1.0000 0.79110  0.60850  0.44810  Biso   1.000  C
  H25      1.0000 0.19620  0.44540  0.59660  Biso   1.000  H
  H26      1.0000 0.80380  0.55460  0.40340  Biso   1.000  H
  C27      1.0000 0.16670  0.24570  0.46300  Biso   1.000  C
  C28      1.0000 0.83330  0.75430  0.53700  Biso   1.000  C
  H27      1.0000 0.12140  0.18170  0.43470  Biso   1.000  H
  H28      1.0000 0.87860  0.81830  0.56530  Biso   1.000  H
  C29      1.0000 0.30310  0.29690  0.44500  Biso   1.000  C
  C30      1.0000 0.69690  0.70310  0.55500  Biso   1.000  C
  H29      1.0000 0.37030  0.27350  0.40120  Biso   1.000  H
  H30      1.0000 0.62970  0.72650  0.59880  Biso   1.000  H
  C31      1.0000 0.83180  0.52450  0.88920  Biso   1.000  C
  C32      1.0000 0.16820  0.47550  0.11080  Biso   1.000  C
  H31      1.0000 0.85720  0.58770  0.92480  Biso   1.000  H
  H32      1.0000 0.14280  0.41230  0.07520  Biso   1.000  H
  C33      1.0000 0.74760  0.37570  0.84460  Biso   1.000  C
  C34      1.0000 0.25240  0.62430  0.15540  Biso   1.000  C
  H33      1.0000 0.70440  0.31590  0.84250  Biso   1.000  H
  H34      1.0000 0.29560  0.68410  0.15750  Biso   1.000  H
  C35      1.0000 0.86160  0.49010  0.80830  Biso   1.000  C
  C36      1.0000 0.13840  0.50990  0.19170  Biso   1.000  C
  H35      1.0000 0.90960  0.52410  0.77800  Biso   1.000  H
  H36      1.0000 0.09040  0.47590  0.22200  Biso   1.000  H
  C37      1.0000 0.81030  0.33000  0.69590  Biso   1.000  C
  C38      1.0000 0.18970  0.67000  0.30410  Biso   1.000  C
  C39      1.0000 0.66410  0.26270  0.65350  Biso   1.000  C
  C40      1.0000 0.33590  0.73730  0.34650  Biso   1.000  C
  H37      1.0000 0.56500  0.25390  0.68060  Biso   1.000  H
  H38      1.0000 0.43500  0.74610  0.31940  Biso   1.000  H
  C41      1.0000 0.66700  0.20870  0.57020  Biso   1.000  C
  C42      1.0000 0.33300  0.79130  0.42980  Biso   1.000  C
  C43      1.0000 0.95730  0.28840  0.57350  Biso   1.000  C
  C44      1.0000 0.04270  0.71160  0.42650  Biso   1.000  C
  C45      1.0000 0.81140  0.22170  0.52910  Biso   1.000  C
  C46      1.0000 0.18860  0.77830  0.47090  Biso   1.000  C
  H39      1.0000 0.81080  0.18640  0.47240  Biso   1.000  H
  H40      1.0000 0.18920  0.81360  0.52760  Biso   1.000  H
  C47      1.0000 0.96030  0.34270  0.65810  Biso   1.000  C
  C48      1.0000 0.03970  0.65730  0.34190  Biso   1.000  C
  H41      1.0000 0.06040  0.38610  0.68810  Biso   1.000  H
  H42      1.0000 0.93960  0.61390  0.31190  Biso   1.000  H
  C49      1.0000 0.35480  0.12590  0.54910  Biso   1.000  C
  C50      1.0000 0.64520  0.87410  0.45090  Biso   1.000  C
  H43      1.0000 0.32410  0.16240  0.60090  Biso   1.000  H
  H44      1.0000 0.67590  0.83760  0.39910  Biso   1.000  H
  C51      1.0000 0.34310  0.02160  0.42570  Biso   1.000  C
  C52      1.0000 0.65690  0.97840  0.57430  Biso   1.000  C
  H45      1.0000 0.30030  0.97160  0.37540  Biso   1.000  H
  H46      1.0000 0.69970  0.02840  0.62460  Biso   1.000  H
  C53      1.0000 0.50860  0.07180  0.44390  Biso   1.000  C
  C54      1.0000 0.49140  0.92820  0.55610  Biso   1.000  C
  H47      1.0000 0.59970  0.06290  0.41000  Biso   1.000  H
  H48      1.0000 0.40030  0.93710  0.59000  Biso   1.000  H
  C55      1.0000 0.89450  0.95740  0.34570  Biso   1.000  C
  C56      1.0000 0.10550  0.04260  0.65430  Biso   1.000  C
  C57      1.0000 0.80050  0.89540  0.26080  Biso   1.000  C
  C58      1.0000 0.19950  0.10460  0.73920  Biso   1.000  C
  C59      1.0000 0.68480  0.93050  0.22730  Biso   1.000  C
  C60      1.0000 0.31520  0.06950  0.77270  Biso   1.000  C
  H49      1.0000 0.67550  0.99260  0.25560  Biso   1.000  H
  H50      1.0000 0.32450  0.00740  0.74440  Biso   1.000  H
  C61      1.0000 0.58130  0.87570  0.15230  Biso   1.000  C
  C62      1.0000 0.41870  0.12430  0.84770  Biso   1.000  C
  C63      1.0000 0.60070  0.78290  0.11260  Biso   1.000  C
  C64      1.0000 0.39930  0.21710  0.88740  Biso   1.000  C
  H51      1.0000 0.53270  0.74390  0.06300  Biso   1.000  H
  H52      1.0000 0.46730  0.25610  0.93700  Biso   1.000  H
  C65      1.0000 0.71880  0.74730  0.14490  Biso   1.000  C
  C66      1.0000 0.28120  0.25270  0.85510  Biso   1.000  C
  C67      1.0000 0.81840  0.80350  0.21990  Biso   1.000  C
  C68      1.0000 0.18160  0.19650  0.78010  Biso   1.000  C
  H53      1.0000 0.89620  0.77980  0.24240  Biso   1.000  H
  H54      1.0000 0.10380  0.22020  0.75760  Biso   1.000  H
  C69      1.0000 0.73860  0.64750  0.10240  Biso   1.000  C
  C70      1.0000 0.26140  0.35250  0.89760  Biso   1.000  C
  C71      1.0000 0.44870  0.91300  0.11570  Biso   1.000  C
  C72      1.0000 0.55130  0.08700  0.88430  Biso   1.000  C
  C73      1.0000 0.47560  0.02020  0.15980  Biso   1.000  C
  C74      1.0000 0.52440  0.97980  0.84020  Biso   1.000  C
  H55      1.0000 0.59140  0.04890  0.15370  Biso   1.000  H
  H56      1.0000 0.40860  0.95110  0.84630  Biso   1.000  H
  H57      1.0000 0.46090  0.03740  0.21780  Biso   1.000  H
  H58      1.0000 0.53910  0.96260  0.78220  Biso   1.000  H
  H59      1.0000 0.39110  0.04140  0.13550  Biso   1.000  H
  H60      1.0000 0.60890  0.95860  0.86450  Biso   1.000  H
  C75      1.0000 0.26380  0.86700  0.12460  Biso   1.000  C
  C76      1.0000 0.73620  0.13300  0.87540  Biso   1.000  C
  H61      1.0000 0.18000  0.89260  0.10490  Biso   1.000  H
  H62      1.0000 0.82000  0.10740  0.89510  Biso   1.000  H
  H63      1.0000 0.25160  0.87890  0.18200  Biso   1.000  H
  H64      1.0000 0.74840  0.12110  0.81800  Biso   1.000  H
  H65      1.0000 0.24360  0.80060  0.09250  Biso   1.000  H
  H66      1.0000 0.75640  0.19940  0.90750  Biso   1.000  H
  C77      1.0000 0.47250  0.88940  0.02380  Biso   1.000  C
  C78      1.0000 0.52750  0.11060  0.97620  Biso   1.000  C
  H67      1.0000 0.58640  0.92120  0.01870  Biso   1.000  H
  H68      1.0000 0.41360  0.07880  0.98130  Biso   1.000  H
  H69      1.0000 0.38460  0.90910  0.00010  Biso   1.000  H
  H70      1.0000 0.61540  0.09090  0.99990  Biso   1.000  H
  H71      1.0000 0.46160  0.82290  0.99490  Biso   1.000  H
  H72      1.0000 0.53840  0.17710  0.00510  Biso   1.000  H
  O17      1.0000 0.24440  0.51820  0.40000  Biso   1.000  O
  O18      1.0000 0.75560  0.48180  0.60000  Biso   1.000  O
  H73      1.0000 0.23410  0.55410  0.44970  Biso   1.000  H
  H74      1.0000 0.76590  0.44590  0.55030  Biso   1.000  H
  H75      1.0000 0.32860  0.49070  0.39760  Biso   1.000  H
  H76      1.0000 0.67140  0.50930  0.60240  Biso   1.000  H
  O19      1.0000 0.59280  0.59970  0.28740  Biso   1.000  O
  O20      1.0000 0.40720  0.40030  0.71260  Biso   1.000  O
  H77      1.0000 0.58920  0.55560  0.23070  Biso   1.000  H
  H78      1.0000 0.41080  0.44440  0.76930  Biso   1.000  H
  H79      1.0000 0.56680  0.65420  0.27390  Biso   1.000  H
  H80      1.0000 0.43320  0.34580  0.72610  Biso   1.000  H
