data_image0
_cell_length_a       8.2277
_cell_length_b       9.4233
_cell_length_c       15.831
_cell_angle_alpha    103.38
_cell_angle_beta     99.95
_cell_angle_gamma    92.7

_symmetry_space_group_name_H-M    "P 1"
_symmetry_int_tables_number       1

loop_
  _symmetry_equiv_pos_as_xyz
  'x, y, z'

loop_
  _atom_site_label
  _atom_site_occupancy
  _atom_site_fract_x
  _atom_site_fract_y
  _atom_site_fract_z
  _atom_site_thermal_displace_type
  _atom_site_B_iso_or_equiv
  _atom_site_type_symbol
  O1       1.0000 0.09340  0.68900  0.95260  Biso   1.000  O
  O2       1.0000 0.90660  0.31100  0.04740  Biso   1.000  O
  O3       1.0000 0.18280  0.40120  0.91460  Biso   1.000  O
  O4       1.0000 0.81720  0.59880  0.08540  Biso   1.000  O
  Cu1      1.0000 0.02880  0.50710  0.08645  Biso   1.000  Cu
  Cu2      1.0000 0.97120  0.49290  0.91355  Biso   1.000  Cu
  Cu3      1.0000 0.98405  0.58836  0.42151  Biso   1.000  Cu
  Cu4      1.0000 0.01595  0.41164  0.57849  Biso   1.000  Cu
  S1       1.0000 0.71540  0.98020  0.50701  Biso   1.000  S
  S2       1.0000 0.28460  0.01980  0.49299  Biso   1.000  S
  Cl1      1.0000 0.30980  0.94980  0.79782  Biso   1.000  Cl
  Cl2      1.0000 0.69020  0.05020  0.20218  Biso   1.000  Cl
  O5       1.0000 0.05680  0.42720  0.34200  Biso   1.000  O
  O6       1.0000 0.94320  0.57280  0.65800  Biso   1.000  O
  O7       1.0000 0.07080  0.52270  0.22630  Biso   1.000  O
  O8       1.0000 0.92920  0.47730  0.77370  Biso   1.000  O
  O9       1.0000 0.16920  0.57280  0.51330  Biso   1.000  O
  O10      1.0000 0.83080  0.42720  0.48670  Biso   1.000  O
  O11      1.0000 0.23210  0.41610  0.05800  Biso   1.000  O
  O12      1.0000 0.76790  0.58390  0.94200  Biso   1.000  O
  N1       1.0000 0.90910  0.77340  0.49870  Biso   1.000  N
  N2       1.0000 0.09090  0.22660  0.50130  Biso   1.000  N
  O13      1.0000 0.14060  0.70110  0.09670  Biso   1.000  O
  O14      1.0000 0.85940  0.29890  0.90330  Biso   1.000  O
  N3       1.0000 0.77680  0.61020  0.34050  Biso   1.000  N
  N4       1.0000 0.22320  0.38980  0.65950  Biso   1.000  N
  C1       1.0000 0.87820  0.99410  0.59490  Biso   1.000  C
  C2       1.0000 0.12180  0.00590  0.40510  Biso   1.000  C
  C3       1.0000 0.69470  0.72720  0.36940  Biso   1.000  C
  C4       1.0000 0.30530  0.27280  0.63060  Biso   1.000  C
  C5       1.0000 0.14250  0.96980  0.71910  Biso   1.000  C
  C6       1.0000 0.85750  0.03020  0.28090  Biso   1.000  C
  C7       1.0000 0.77830  0.81440  0.45460  Biso   1.000  C
  C8       1.0000 0.22170  0.18560  0.54540  Biso   1.000  C
  C9       1.0000 0.96740  0.87370  0.57890  Biso   1.000  C
  C10      1.0000 0.03260  0.12630  0.42110  Biso   1.000  C
  C11      1.0000 0.05390  0.09280  0.73350  Biso   1.000  C
  C12      1.0000 0.94610  0.90720  0.26650  Biso   1.000  C
  H1       1.0000 0.08450  0.16590  0.78550  Biso   1.000  H
  H2       1.0000 0.91550  0.83410  0.21450  Biso   1.000  H
  C13      1.0000 0.10510  0.85710  0.64310  Biso   1.000  C
  C14      1.0000 0.89490  0.14290  0.35690  Biso   1.000  C
  H3       1.0000 0.16590  0.77600  0.63460  Biso   1.000  H
  H4       1.0000 0.83410  0.22400  0.36540  Biso   1.000  H
  C15      1.0000 0.92360  0.10570  0.67200  Biso   1.000  C
  C16      1.0000 0.07640  0.89430  0.32800  Biso   1.000  C
  H5       1.0000 0.86470  0.18800  0.68080  Biso   1.000  H
  H6       1.0000 0.13530  0.81200  0.31920  Biso   1.000  H
  C17      1.0000 0.54680  0.75420  0.32500  Biso   1.000  C
  C18      1.0000 0.45320  0.24580  0.67500  Biso   1.000  C
  H7       1.0000 0.49480  0.83650  0.34730  Biso   1.000  H
  H8       1.0000 0.50520  0.16350  0.65270  Biso   1.000  H
  O15      1.0000 0.30410  0.70360  0.44440  Biso   1.000  O
  O16      1.0000 0.69590  0.29640  0.55560  Biso   1.000  O
  C19      1.0000 0.09610  0.42180  0.26610  Biso   1.000  C
  C20      1.0000 0.90390  0.57820  0.73390  Biso   1.000  C
  C21      1.0000 0.70980  0.51830  0.26330  Biso   1.000  C
  C22      1.0000 0.29020  0.48170  0.73670  Biso   1.000  C
  H9       1.0000 0.76680  0.43970  0.24080  Biso   1.000  H
  H10      1.0000 0.23320  0.56030  0.75920  Biso   1.000  H
  C23      1.0000 0.30120  0.64350  0.50490  Biso   1.000  C
  C24      1.0000 0.69880  0.35650  0.49510  Biso   1.000  C
  C25      1.0000 0.45410  0.64720  0.57380  Biso   1.000  C
  C26      1.0000 0.54590  0.35280  0.42620  Biso   1.000  C
  H11      1.0000 0.54470  0.70210  0.56150  Biso   1.000  H
  H12      1.0000 0.45530  0.29790  0.43850  Biso   1.000  H
  H13      1.0000 0.48190  0.54900  0.57250  Biso   1.000  H
  H14      1.0000 0.51810  0.45100  0.42750  Biso   1.000  H
  H15      1.0000 0.43310  0.69280  0.63120  Biso   1.000  H
  H16      1.0000 0.56690  0.30720  0.36880  Biso   1.000  H
  C27      1.0000 0.17270  0.28460  0.22700  Biso   1.000  C
  C28      1.0000 0.82730  0.71540  0.77300  Biso   1.000  C
  H17      1.0000 0.19810  0.29030  0.17090  Biso   1.000  H
  H18      1.0000 0.80190  0.70970  0.82910  Biso   1.000  H
  H19      1.0000 0.09600  0.20050  0.21920  Biso   1.000  H
  H20      1.0000 0.90400  0.79950  0.78080  Biso   1.000  H
  H21      1.0000 0.27260  0.27610  0.26630  Biso   1.000  H
  H22      1.0000 0.72740  0.72390  0.73370  Biso   1.000  H
  C29      1.0000 0.55590  0.53700  0.21540  Biso   1.000  C
  C30      1.0000 0.44410  0.46300  0.78460  Biso   1.000  C
  H23      1.0000 0.50890  0.46880  0.16330  Biso   1.000  H
  H24      1.0000 0.49110  0.53120  0.83670  Biso   1.000  H
  C31      1.0000 0.26460  0.37830  0.98400  Biso   1.000  C
  C32      1.0000 0.73540  0.62170  0.01600  Biso   1.000  C
  C33      1.0000 0.41690  0.30030  0.97510  Biso   1.000  C
  C34      1.0000 0.58310  0.69970  0.02490  Biso   1.000  C
  H25      1.0000 0.42920  0.27750  0.91430  Biso   1.000  H
  H26      1.0000 0.57080  0.72250  0.08570  Biso   1.000  H
  H27      1.0000 0.40740  0.21140  0.99430  Biso   1.000  H
  H28      1.0000 0.59260  0.78860  0.00570  Biso   1.000  H
  H29      1.0000 0.51190  0.36200  0.01080  Biso   1.000  H
  H30      1.0000 0.48810  0.63800  0.98920  Biso   1.000  H
  C35      1.0000 0.14470  0.75500  0.03150  Biso   1.000  C
  C36      1.0000 0.85530  0.24500  0.96850  Biso   1.000  C
  C37      1.0000 0.47540  0.65650  0.24600  Biso   1.000  C
  C38      1.0000 0.52460  0.34350  0.75400  Biso   1.000  C
  H31      1.0000 0.37440  0.67190  0.21430  Biso   1.000  H
  H32      1.0000 0.62560  0.32810  0.78570  Biso   1.000  H
  C39      1.0000 0.21920  0.91130  0.05130  Biso   1.000  C
  C40      1.0000 0.78080  0.08870  0.94870  Biso   1.000  C
  H33      1.0000 0.21610  0.94090  0.99700  Biso   1.000  H
  H34      1.0000 0.78390  0.05910  0.00300  Biso   1.000  H
  H35      1.0000 0.33200  0.91850  0.08170  Biso   1.000  H
  H36      1.0000 0.66800  0.08150  0.91830  Biso   1.000  H
  H37      1.0000 0.15680  0.97410  0.08800  Biso   1.000  H
  H38      1.0000 0.84320  0.02590  0.91200  Biso   1.000  H
