data_image0
_cell_length_a       10.7004
_cell_length_b       11.82
_cell_length_c       19.54
_cell_angle_alpha    90
_cell_angle_beta     90
_cell_angle_gamma    90

_symmetry_space_group_name_H-M    "P 1"
_symmetry_int_tables_number       1

loop_
  _symmetry_equiv_pos_as_xyz
  'x, y, z'

loop_
  _atom_site_label
  _atom_site_occupancy
  _atom_site_fract_x
  _atom_site_fract_y
  _atom_site_fract_z
  _atom_site_thermal_displace_type
  _atom_site_B_iso_or_equiv
  _atom_site_type_symbol
  Cu1      1.0000 0.10471  0.18769  0.45187  Biso   1.000  Cu
  Cu2      1.0000 0.39529  0.31231  0.95187  Biso   1.000  Cu
  Cu3      1.0000 0.60471  0.31231  0.54813  Biso   1.000  Cu
  Cu4      1.0000 0.89529  0.18769  0.04813  Biso   1.000  Cu
  Cu5      1.0000 0.89529  0.81231  0.54813  Biso   1.000  Cu
  Cu6      1.0000 0.60471  0.68769  0.04813  Biso   1.000  Cu
  Cu7      1.0000 0.39529  0.68769  0.45187  Biso   1.000  Cu
  Cu8      1.0000 0.10471  0.81231  0.95187  Biso   1.000  Cu
  O1       1.0000 0.03280  0.21137  0.54343  Biso   1.000  O
  O2       1.0000 0.46720  0.28863  0.04343  Biso   1.000  O
  O3       1.0000 0.53280  0.28863  0.45657  Biso   1.000  O
  O4       1.0000 0.96720  0.21137  0.95657  Biso   1.000  O
  O5       1.0000 0.96720  0.78863  0.45657  Biso   1.000  O
  O6       1.0000 0.53280  0.71137  0.95657  Biso   1.000  O
  O7       1.0000 0.46720  0.71137  0.54343  Biso   1.000  O
  O8       1.0000 0.03280  0.78863  0.04343  Biso   1.000  O
  O9       1.0000 0.14600  0.03743  0.48679  Biso   1.000  O
  O10      1.0000 0.35400  0.46257  0.98679  Biso   1.000  O
  O11      1.0000 0.64600  0.46257  0.51321  Biso   1.000  O
  O12      1.0000 0.85400  0.03743  0.01321  Biso   1.000  O
  O13      1.0000 0.85400  0.96257  0.51321  Biso   1.000  O
  O14      1.0000 0.64600  0.53743  0.01321  Biso   1.000  O
  O15      1.0000 0.35400  0.53743  0.48679  Biso   1.000  O
  O16      1.0000 0.14600  0.96257  0.98679  Biso   1.000  O
  O17      1.0000 0.05520  0.13898  0.64759  Biso   1.000  O
  O18      1.0000 0.44480  0.36102  0.14759  Biso   1.000  O
  O19      1.0000 0.55520  0.36102  0.35241  Biso   1.000  O
  O20      1.0000 0.94480  0.13898  0.85241  Biso   1.000  O
  O21      1.0000 0.94480  0.86102  0.35241  Biso   1.000  O
  O22      1.0000 0.55520  0.63898  0.85241  Biso   1.000  O
  O23      1.0000 0.44480  0.63898  0.64759  Biso   1.000  O
  O24      1.0000 0.05520  0.86102  0.14759  Biso   1.000  O
  C1       1.0000 0.12150  0.02600  0.55018  Biso   1.000  C
  C2       1.0000 0.37850  0.47400  0.05018  Biso   1.000  C
  C3       1.0000 0.62150  0.47400  0.44982  Biso   1.000  C
  C4       1.0000 0.87850  0.02600  0.94982  Biso   1.000  C
  C5       1.0000 0.87850  0.97400  0.44982  Biso   1.000  C
  C6       1.0000 0.62150  0.52600  0.94982  Biso   1.000  C
  C7       1.0000 0.37850  0.52600  0.55018  Biso   1.000  C
  C8       1.0000 0.12150  0.97400  0.05018  Biso   1.000  C
  C9       1.0000 0.06220  0.43170  0.43149  Biso   1.000  C
  C10      1.0000 0.43780  0.06830  0.93149  Biso   1.000  C
  C11      1.0000 0.56220  0.06830  0.56851  Biso   1.000  C
  C12      1.0000 0.93780  0.43170  0.06851  Biso   1.000  C
  C13      1.0000 0.93780  0.56830  0.56851  Biso   1.000  C
  C14      1.0000 0.56220  0.93170  0.06851  Biso   1.000  C
  C15      1.0000 0.43780  0.93170  0.43149  Biso   1.000  C
  C16      1.0000 0.06220  0.56830  0.93149  Biso   1.000  C
  H1       1.0000 0.12550  0.44020  0.46520  Biso   1.000  H
  H2       1.0000 0.37450  0.05980  0.96520  Biso   1.000  H
  H3       1.0000 0.62550  0.05980  0.53480  Biso   1.000  H
  H4       1.0000 0.87450  0.44020  0.03480  Biso   1.000  H
  H5       1.0000 0.87450  0.55980  0.53480  Biso   1.000  H
  H6       1.0000 0.62550  0.94020  0.03480  Biso   1.000  H
  H7       1.0000 0.37450  0.94020  0.46520  Biso   1.000  H
  H8       1.0000 0.12550  0.55980  0.96520  Biso   1.000  H
  O25      1.0000 0.13660  0.93938  0.58429  Biso   1.000  O
  O26      1.0000 0.36340  0.56062  0.08429  Biso   1.000  O
  O27      1.0000 0.63660  0.56062  0.41571  Biso   1.000  O
  O28      1.0000 0.86340  0.93938  0.91571  Biso   1.000  O
  O29      1.0000 0.86340  0.06062  0.41571  Biso   1.000  O
  O30      1.0000 0.63660  0.43938  0.91571  Biso   1.000  O
  O31      1.0000 0.36340  0.43938  0.58429  Biso   1.000  O
  O32      1.0000 0.13660  0.06062  0.08429  Biso   1.000  O
  O33      1.0000 0.28210  0.26650  0.49697  Biso   1.000  O
  O34      1.0000 0.21790  0.23350  0.99697  Biso   1.000  O
  O35      1.0000 0.78210  0.23350  0.50303  Biso   1.000  O
  O36      1.0000 0.71790  0.26650  0.00303  Biso   1.000  O
  O37      1.0000 0.71790  0.73350  0.50303  Biso   1.000  O
  O38      1.0000 0.78210  0.76650  0.00303  Biso   1.000  O
  O39      1.0000 0.21790  0.76650  0.49697  Biso   1.000  O
  O40      1.0000 0.28210  0.73350  0.99697  Biso   1.000  O
  H9       1.0000 0.26780  0.33700  0.50910  Biso   1.000  H
  H10      1.0000 0.23220  0.16300  0.00910  Biso   1.000  H
  H11      1.0000 0.76780  0.16300  0.49090  Biso   1.000  H
  H12      1.0000 0.73220  0.33700  0.99090  Biso   1.000  H
  H13      1.0000 0.73220  0.66300  0.49090  Biso   1.000  H
  H14      1.0000 0.76780  0.83700  0.99090  Biso   1.000  H
  H15      1.0000 0.23220  0.83700  0.50910  Biso   1.000  H
  H16      1.0000 0.26780  0.66300  0.00910  Biso   1.000  H
  H17      1.0000 0.34190  0.26540  0.46620  Biso   1.000  H
  H18      1.0000 0.15810  0.23460  0.96620  Biso   1.000  H
  H19      1.0000 0.84190  0.23460  0.53380  Biso   1.000  H
  H20      1.0000 0.65810  0.26540  0.03380  Biso   1.000  H
  H21      1.0000 0.65810  0.73460  0.53380  Biso   1.000  H
  H22      1.0000 0.84190  0.76540  0.03380  Biso   1.000  H
  H23      1.0000 0.15810  0.76540  0.46620  Biso   1.000  H
  H24      1.0000 0.34190  0.73460  0.96620  Biso   1.000  H
  N1       1.0000 0.87740  0.61700  0.32248  Biso   1.000  N
  N2       1.0000 0.62260  0.88300  0.82248  Biso   1.000  N
  N3       1.0000 0.37740  0.88300  0.67752  Biso   1.000  N
  N4       1.0000 0.12260  0.61700  0.17752  Biso   1.000  N
  N5       1.0000 0.12260  0.38300  0.67752  Biso   1.000  N
  N6       1.0000 0.37740  0.11700  0.17752  Biso   1.000  N
  N7       1.0000 0.62260  0.11700  0.32248  Biso   1.000  N
  N8       1.0000 0.87740  0.38300  0.82248  Biso   1.000  N
  H25      1.0000 0.89950  0.68000  0.34320  Biso   1.000  H
  H26      1.0000 0.60050  0.82000  0.84320  Biso   1.000  H
  H27      1.0000 0.39950  0.82000  0.65680  Biso   1.000  H
  H28      1.0000 0.10050  0.68000  0.15680  Biso   1.000  H
  H29      1.0000 0.10050  0.32000  0.65680  Biso   1.000  H
  H30      1.0000 0.39950  0.18000  0.15680  Biso   1.000  H
  H31      1.0000 0.60050  0.18000  0.34320  Biso   1.000  H
  H32      1.0000 0.89950  0.32000  0.84320  Biso   1.000  H
  N9       1.0000 0.02580  0.32710  0.41435  Biso   1.000  N
  N10      1.0000 0.47420  0.17290  0.91435  Biso   1.000  N
  N11      1.0000 0.52580  0.17290  0.58565  Biso   1.000  N
  N12      1.0000 0.97420  0.32710  0.08565  Biso   1.000  N
  N13      1.0000 0.97420  0.67290  0.58565  Biso   1.000  N
  N14      1.0000 0.52580  0.82710  0.08565  Biso   1.000  N
  N15      1.0000 0.47420  0.82710  0.41435  Biso   1.000  N
  N16      1.0000 0.02580  0.67290  0.91435  Biso   1.000  N
  N17      1.0000 0.67980  0.66020  0.14001  Biso   1.000  N
  N18      1.0000 0.82020  0.83980  0.64001  Biso   1.000  N
  N19      1.0000 0.17980  0.83980  0.85999  Biso   1.000  N
  N20      1.0000 0.32020  0.66020  0.35999  Biso   1.000  N
  N21      1.0000 0.32020  0.33980  0.85999  Biso   1.000  N
  N22      1.0000 0.17980  0.16020  0.35999  Biso   1.000  N
  N23      1.0000 0.82020  0.16020  0.14001  Biso   1.000  N
  N24      1.0000 0.67980  0.33980  0.64001  Biso   1.000  N
  C17      1.0000 0.92070  0.51830  0.35189  Biso   1.000  C
  C18      1.0000 0.57930  0.98170  0.85189  Biso   1.000  C
  C19      1.0000 0.42070  0.98170  0.64811  Biso   1.000  C
  C20      1.0000 0.07930  0.51830  0.14811  Biso   1.000  C
  C21      1.0000 0.07930  0.48170  0.64811  Biso   1.000  C
  C22      1.0000 0.42070  0.01830  0.14811  Biso   1.000  C
  C23      1.0000 0.57930  0.01830  0.35189  Biso   1.000  C
  C24      1.0000 0.92070  0.48170  0.85189  Biso   1.000  C
  C25      1.0000 0.82650  0.72430  0.22336  Biso   1.000  C
  C26      1.0000 0.67350  0.77570  0.72336  Biso   1.000  C
  C27      1.0000 0.32650  0.77570  0.77664  Biso   1.000  C
  C28      1.0000 0.17350  0.72430  0.27664  Biso   1.000  C
  C29      1.0000 0.17350  0.27570  0.77664  Biso   1.000  C
  C30      1.0000 0.32650  0.22430  0.27664  Biso   1.000  C
  C31      1.0000 0.67350  0.22430  0.22336  Biso   1.000  C
  C32      1.0000 0.82650  0.27570  0.72336  Biso   1.000  C
  H33      1.0000 0.88530  0.78000  0.23720  Biso   1.000  H
  H34      1.0000 0.61470  0.72000  0.73720  Biso   1.000  H
  H35      1.0000 0.38530  0.72000  0.76280  Biso   1.000  H
  H36      1.0000 0.11470  0.78000  0.26280  Biso   1.000  H
  H37      1.0000 0.11470  0.22000  0.76280  Biso   1.000  H
  H38      1.0000 0.38530  0.28000  0.26280  Biso   1.000  H
  H39      1.0000 0.61470  0.28000  0.23720  Biso   1.000  H
  H40      1.0000 0.88530  0.22000  0.73720  Biso   1.000  H
  C33      1.0000 0.76360  0.73590  0.16294  Biso   1.000  C
  C34      1.0000 0.73640  0.76410  0.66294  Biso   1.000  C
  C35      1.0000 0.26360  0.76410  0.83706  Biso   1.000  C
  C36      1.0000 0.23640  0.73590  0.33706  Biso   1.000  C
  C37      1.0000 0.23640  0.26410  0.83706  Biso   1.000  C
  C38      1.0000 0.26360  0.23590  0.33706  Biso   1.000  C
  C39      1.0000 0.73640  0.23590  0.16294  Biso   1.000  C
  C40      1.0000 0.76360  0.26410  0.66294  Biso   1.000  C
  H41      1.0000 0.78000  0.80080  0.13570  Biso   1.000  H
  H42      1.0000 0.72000  0.69920  0.63570  Biso   1.000  H
  H43      1.0000 0.28000  0.69920  0.86430  Biso   1.000  H
  H44      1.0000 0.22000  0.80080  0.36430  Biso   1.000  H
  H45      1.0000 0.22000  0.19920  0.86430  Biso   1.000  H
  H46      1.0000 0.28000  0.30080  0.36430  Biso   1.000  H
  H47      1.0000 0.72000  0.30080  0.13570  Biso   1.000  H
  H48      1.0000 0.78000  0.19920  0.63570  Biso   1.000  H
  C41      1.0000 0.80380  0.63030  0.26472  Biso   1.000  C
  C42      1.0000 0.69620  0.86970  0.76472  Biso   1.000  C
  C43      1.0000 0.30380  0.86970  0.73528  Biso   1.000  C
  C44      1.0000 0.19620  0.63030  0.23528  Biso   1.000  C
  C45      1.0000 0.19620  0.36970  0.73528  Biso   1.000  C
  C46      1.0000 0.30380  0.13030  0.23528  Biso   1.000  C
  C47      1.0000 0.69620  0.13030  0.26472  Biso   1.000  C
  C48      1.0000 0.80380  0.36970  0.76472  Biso   1.000  C
  C49      1.0000 0.93840  0.31860  0.36518  Biso   1.000  C
  C50      1.0000 0.56160  0.18140  0.86518  Biso   1.000  C
  C51      1.0000 0.43840  0.18140  0.63482  Biso   1.000  C
  C52      1.0000 0.06160  0.31860  0.13482  Biso   1.000  C
  C53      1.0000 0.06160  0.68140  0.63482  Biso   1.000  C
  C54      1.0000 0.43840  0.81860  0.13482  Biso   1.000  C
  C55      1.0000 0.56160  0.81860  0.36518  Biso   1.000  C
  C56      1.0000 0.93840  0.68140  0.86518  Biso   1.000  C
  H49      1.0000 0.91180  0.24510  0.35200  Biso   1.000  H
  H50      1.0000 0.58820  0.25490  0.85200  Biso   1.000  H
  H51      1.0000 0.41180  0.25490  0.64800  Biso   1.000  H
  H52      1.0000 0.08820  0.24510  0.14800  Biso   1.000  H
  H53      1.0000 0.08820  0.75490  0.64800  Biso   1.000  H
  H54      1.0000 0.41180  0.74510  0.14800  Biso   1.000  H
  H55      1.0000 0.58820  0.74510  0.35200  Biso   1.000  H
  H56      1.0000 0.91180  0.75490  0.85200  Biso   1.000  H
  C57      1.0000 0.65090  0.57410  0.18205  Biso   1.000  C
  C58      1.0000 0.84910  0.92590  0.68205  Biso   1.000  C
  C59      1.0000 0.15090  0.92590  0.81795  Biso   1.000  C
  C60      1.0000 0.34910  0.57410  0.31795  Biso   1.000  C
  C61      1.0000 0.34910  0.42590  0.81795  Biso   1.000  C
  C62      1.0000 0.15090  0.07410  0.31795  Biso   1.000  C
  C63      1.0000 0.84910  0.07410  0.18205  Biso   1.000  C
  C64      1.0000 0.65090  0.42590  0.68205  Biso   1.000  C
  H57      1.0000 0.58830  0.52220  0.16790  Biso   1.000  H
  H58      1.0000 0.91170  0.97780  0.66790  Biso   1.000  H
  H59      1.0000 0.08830  0.97780  0.83210  Biso   1.000  H
  H60      1.0000 0.41170  0.52220  0.33210  Biso   1.000  H
  H61      1.0000 0.41170  0.47780  0.83210  Biso   1.000  H
  H62      1.0000 0.08830  0.02220  0.33210  Biso   1.000  H
  H63      1.0000 0.91170  0.02220  0.16790  Biso   1.000  H
  H64      1.0000 0.58830  0.47780  0.66790  Biso   1.000  H
  C65      1.0000 0.88560  0.40940  0.33323  Biso   1.000  C
  C66      1.0000 0.61440  0.09060  0.83323  Biso   1.000  C
  C67      1.0000 0.38560  0.09060  0.66677  Biso   1.000  C
  C68      1.0000 0.11440  0.40940  0.16677  Biso   1.000  C
  C69      1.0000 0.11440  0.59060  0.66677  Biso   1.000  C
  C70      1.0000 0.38560  0.90940  0.16677  Biso   1.000  C
  C71      1.0000 0.61440  0.90940  0.33323  Biso   1.000  C
  C72      1.0000 0.88560  0.59060  0.83323  Biso   1.000  C
  H65      1.0000 0.82510  0.39820  0.29830  Biso   1.000  H
  H66      1.0000 0.67490  0.10180  0.79830  Biso   1.000  H
  H67      1.0000 0.32510  0.10180  0.70170  Biso   1.000  H
  H68      1.0000 0.17490  0.39820  0.20170  Biso   1.000  H
  H69      1.0000 0.17490  0.60180  0.70170  Biso   1.000  H
  H70      1.0000 0.32510  0.89820  0.20170  Biso   1.000  H
  H71      1.0000 0.67490  0.89820  0.29830  Biso   1.000  H
  H72      1.0000 0.82510  0.60180  0.79830  Biso   1.000  H
  C73      1.0000 0.06520  0.13340  0.58537  Biso   1.000  C
  C74      1.0000 0.43480  0.36660  0.08537  Biso   1.000  C
  C75      1.0000 0.56520  0.36660  0.41463  Biso   1.000  C
  C76      1.0000 0.93480  0.13340  0.91463  Biso   1.000  C
  C77      1.0000 0.93480  0.86660  0.41463  Biso   1.000  C
  C78      1.0000 0.56520  0.63340  0.91463  Biso   1.000  C
  C79      1.0000 0.43480  0.63340  0.58537  Biso   1.000  C
  C80      1.0000 0.06520  0.86660  0.08537  Biso   1.000  C
  C81      1.0000 0.70720  0.55730  0.24443  Biso   1.000  C
  C82      1.0000 0.79280  0.94270  0.74443  Biso   1.000  C
  C83      1.0000 0.20720  0.94270  0.75557  Biso   1.000  C
  C84      1.0000 0.29280  0.55730  0.25557  Biso   1.000  C
  C85      1.0000 0.29280  0.44270  0.75557  Biso   1.000  C
  C86      1.0000 0.20720  0.05730  0.25557  Biso   1.000  C
  C87      1.0000 0.79280  0.05730  0.24443  Biso   1.000  C
  C88      1.0000 0.70720  0.44270  0.74443  Biso   1.000  C
  H73      1.0000 0.68110  0.49720  0.27340  Biso   1.000  H
  H74      1.0000 0.81890  0.00280  0.77340  Biso   1.000  H
  H75      1.0000 0.18110  0.00280  0.72660  Biso   1.000  H
  H76      1.0000 0.31890  0.49720  0.22660  Biso   1.000  H
  H77      1.0000 0.31890  0.50280  0.72660  Biso   1.000  H
  H78      1.0000 0.18110  0.99720  0.22660  Biso   1.000  H
  H79      1.0000 0.81890  0.99720  0.27340  Biso   1.000  H
  H80      1.0000 0.68110  0.50280  0.77340  Biso   1.000  H
  C89      1.0000 0.01190  0.52740  0.40231  Biso   1.000  C
  C90      1.0000 0.48810  0.97260  0.90231  Biso   1.000  C
  C91      1.0000 0.51190  0.97260  0.59769  Biso   1.000  C
  C92      1.0000 0.98810  0.52740  0.09769  Biso   1.000  C
  C93      1.0000 0.98810  0.47260  0.59769  Biso   1.000  C
  C94      1.0000 0.51190  0.02740  0.09769  Biso   1.000  C
  C95      1.0000 0.48810  0.02740  0.40231  Biso   1.000  C
  C96      1.0000 0.01190  0.47260  0.90231  Biso   1.000  C
  H81      1.0000 0.03950  0.60000  0.41670  Biso   1.000  H
  H82      1.0000 0.46050  0.90000  0.91670  Biso   1.000  H
  H83      1.0000 0.53950  0.90000  0.58330  Biso   1.000  H
  H84      1.0000 0.96050  0.60000  0.08330  Biso   1.000  H
  H85      1.0000 0.96050  0.40000  0.58330  Biso   1.000  H
  H86      1.0000 0.53950  0.10000  0.08330  Biso   1.000  H
  H87      1.0000 0.46050  0.10000  0.41670  Biso   1.000  H
  H88      1.0000 0.03950  0.40000  0.91670  Biso   1.000  H
