data_image0
_cell_length_a       17.7003
_cell_length_b       17.7003
_cell_length_c       13.9208
_cell_angle_alpha    90
_cell_angle_beta     90
_cell_angle_gamma    120

_symmetry_space_group_name_H-M    "P 1"
_symmetry_int_tables_number       1

loop_
  _symmetry_equiv_pos_as_xyz
  'x, y, z'

loop_
  _atom_site_label
  _atom_site_occupancy
  _atom_site_fract_x
  _atom_site_fract_y
  _atom_site_fract_z
  _atom_site_thermal_displace_type
  _atom_site_B_iso_or_equiv
  _atom_site_type_symbol
  Cu1      1.0000 0.87458  0.43353  0.63546  Biso   1.000  Cu
  Cu2      1.0000 0.56647  0.44105  0.63546  Biso   1.000  Cu
  Cu3      1.0000 0.55895  0.12542  0.63546  Biso   1.000  Cu
  Cu4      1.0000 0.12542  0.56647  0.13546  Biso   1.000  Cu
  Cu5      1.0000 0.43353  0.55895  0.13546  Biso   1.000  Cu
  Cu6      1.0000 0.44105  0.87458  0.13546  Biso   1.000  Cu
  Cu7      1.0000 0.87357  0.42928  0.39020  Biso   1.000  Cu
  Cu8      1.0000 0.57072  0.44429  0.39020  Biso   1.000  Cu
  Cu9      1.0000 0.55571  0.12643  0.39020  Biso   1.000  Cu
  Cu10     1.0000 0.12643  0.57072  0.89020  Biso   1.000  Cu
  Cu11     1.0000 0.42928  0.55571  0.89020  Biso   1.000  Cu
  Cu12     1.0000 0.44429  0.87357  0.89020  Biso   1.000  Cu
  Ba1      1.0000 0.66670  0.33330  0.51377  Biso   1.000  Ba
  Ba2      1.0000 0.33330  0.66670  0.01377  Biso   1.000  Ba
  O1       1.0000 0.84350  0.37490  0.51150  Biso   1.000  O
  O2       1.0000 0.62510  0.46860  0.51150  Biso   1.000  O
  O3       1.0000 0.53140  0.15650  0.51150  Biso   1.000  O
  O4       1.0000 0.15650  0.62510  0.01150  Biso   1.000  O
  O5       1.0000 0.37490  0.53140  0.01150  Biso   1.000  O
  O6       1.0000 0.46860  0.84350  0.01150  Biso   1.000  O
  H1       1.0000 0.83900  0.32600  0.51100  Biso   1.000  H
  H2       1.0000 0.67400  0.51300  0.51100  Biso   1.000  H
  H3       1.0000 0.48700  0.16100  0.51100  Biso   1.000  H
  H4       1.0000 0.16100  0.67400  0.01100  Biso   1.000  H
  H5       1.0000 0.32600  0.48700  0.01100  Biso   1.000  H
  H6       1.0000 0.51300  0.83900  0.01100  Biso   1.000  H
  O7       1.0000 0.22840  0.54800  0.14050  Biso   1.000  O
  O8       1.0000 0.45200  0.68040  0.14050  Biso   1.000  O
  O9       1.0000 0.31960  0.77160  0.14050  Biso   1.000  O
  O10      1.0000 0.77160  0.45200  0.64050  Biso   1.000  O
  O11      1.0000 0.54800  0.31960  0.64050  Biso   1.000  O
  O12      1.0000 0.68040  0.22840  0.64050  Biso   1.000  O
  O13      1.0000 0.29610  0.49560  0.22850  Biso   1.000  O
  O14      1.0000 0.50440  0.80050  0.22850  Biso   1.000  O
  O15      1.0000 0.19950  0.70390  0.22850  Biso   1.000  O
  O16      1.0000 0.70390  0.50440  0.72850  Biso   1.000  O
  O17      1.0000 0.49560  0.19950  0.72850  Biso   1.000  O
  O18      1.0000 0.80050  0.29610  0.72850  Biso   1.000  O
  O19      1.0000 0.01150  0.56050  0.15940  Biso   1.000  O
  O20      1.0000 0.43950  0.45100  0.15940  Biso   1.000  O
  O21      1.0000 0.54900  0.98850  0.15940  Biso   1.000  O
  O22      1.0000 0.98850  0.43950  0.65940  Biso   1.000  O
  O23      1.0000 0.56050  0.54900  0.65940  Biso   1.000  O
  O24      1.0000 0.45100  0.01150  0.65940  Biso   1.000  O
  O25      1.0000 0.77380  0.45050  0.38650  Biso   1.000  O
  O26      1.0000 0.54950  0.32330  0.38650  Biso   1.000  O
  O27      1.0000 0.67670  0.22620  0.38650  Biso   1.000  O
  O28      1.0000 0.22620  0.54950  0.88650  Biso   1.000  O
  O29      1.0000 0.45050  0.67670  0.88650  Biso   1.000  O
  O30      1.0000 0.32330  0.77380  0.88650  Biso   1.000  O
  O31      1.0000 0.99020  0.43640  0.36800  Biso   1.000  O
  O32      1.0000 0.56360  0.55380  0.36800  Biso   1.000  O
  O33      1.0000 0.44620  0.00980  0.36800  Biso   1.000  O
  O34      1.0000 0.00980  0.56360  0.86800  Biso   1.000  O
  O35      1.0000 0.43640  0.44620  0.86800  Biso   1.000  O
  O36      1.0000 0.55380  0.99020  0.86800  Biso   1.000  O
  O37      1.0000 0.70560  0.50270  0.29710  Biso   1.000  O
  O38      1.0000 0.49730  0.20290  0.29710  Biso   1.000  O
  O39      1.0000 0.79710  0.29440  0.29710  Biso   1.000  O
  O40      1.0000 0.29440  0.49730  0.79710  Biso   1.000  O
  O41      1.0000 0.50270  0.79710  0.79710  Biso   1.000  O
  O42      1.0000 0.20290  0.70560  0.79710  Biso   1.000  O
  N1       1.0000 0.90350  0.49950  0.27650  Biso   1.000  N
  N2       1.0000 0.50050  0.40400  0.27650  Biso   1.000  N
  N3       1.0000 0.59600  0.09650  0.27650  Biso   1.000  N
  N4       1.0000 0.09650  0.50050  0.77650  Biso   1.000  N
  N5       1.0000 0.49950  0.59600  0.77650  Biso   1.000  N
  N6       1.0000 0.40400  0.90350  0.77650  Biso   1.000  N
  N7       1.0000 0.09790  0.50030  0.25180  Biso   1.000  N
  N8       1.0000 0.49970  0.59760  0.25180  Biso   1.000  N
  N9       1.0000 0.40240  0.90210  0.25180  Biso   1.000  N
  N10      1.0000 0.90210  0.49970  0.75180  Biso   1.000  N
  N11      1.0000 0.50030  0.40240  0.75180  Biso   1.000  N
  N12      1.0000 0.59760  0.09790  0.75180  Biso   1.000  N
  C1       1.0000 0.23370  0.50930  0.21280  Biso   1.000  C
  C2       1.0000 0.49070  0.72440  0.21280  Biso   1.000  C
  C3       1.0000 0.27560  0.76630  0.21280  Biso   1.000  C
  C4       1.0000 0.76630  0.49070  0.71280  Biso   1.000  C
  C5       1.0000 0.50930  0.27560  0.71280  Biso   1.000  C
  C6       1.0000 0.72440  0.23370  0.71280  Biso   1.000  C
  C7       1.0000 0.15560  0.46950  0.28420  Biso   1.000  C
  C8       1.0000 0.53050  0.68610  0.28420  Biso   1.000  C
  C9       1.0000 0.31390  0.84440  0.28420  Biso   1.000  C
  C10      1.0000 0.84440  0.53050  0.78420  Biso   1.000  C
  C11      1.0000 0.46950  0.31390  0.78420  Biso   1.000  C
  C12      1.0000 0.68610  0.15560  0.78420  Biso   1.000  C
  H7       1.0000 0.17550  0.48820  0.35170  Biso   1.000  H
  H8       1.0000 0.51180  0.68730  0.35170  Biso   1.000  H
  H9       1.0000 0.31270  0.82450  0.35170  Biso   1.000  H
  H10      1.0000 0.82450  0.51180  0.85170  Biso   1.000  H
  H11      1.0000 0.48820  0.31270  0.85170  Biso   1.000  H
  H12      1.0000 0.68730  0.17550  0.85170  Biso   1.000  H
  C13      1.0000 0.10910  0.36340  0.27250  Biso   1.000  C
  C14      1.0000 0.63660  0.74570  0.27250  Biso   1.000  C
  C15      1.0000 0.25430  0.89090  0.27250  Biso   1.000  C
  C16      1.0000 0.89090  0.63660  0.77250  Biso   1.000  C
  C17      1.0000 0.36340  0.25430  0.77250  Biso   1.000  C
  C18      1.0000 0.74570  0.10910  0.77250  Biso   1.000  C
  H13      1.0000 0.05980  0.33500  0.31700  Biso   1.000  H
  H14      1.0000 0.66500  0.72480  0.31700  Biso   1.000  H
  H15      1.0000 0.27520  0.94020  0.31700  Biso   1.000  H
  H16      1.0000 0.94020  0.66500  0.81700  Biso   1.000  H
  H17      1.0000 0.33500  0.27520  0.81700  Biso   1.000  H
  H18      1.0000 0.72480  0.05980  0.81700  Biso   1.000  H
  H19      1.0000 0.15160  0.34490  0.28720  Biso   1.000  H
  H20      1.0000 0.65510  0.80670  0.28720  Biso   1.000  H
  H21      1.0000 0.19330  0.84840  0.28720  Biso   1.000  H
  H22      1.0000 0.84840  0.65510  0.78720  Biso   1.000  H
  H23      1.0000 0.34490  0.19330  0.78720  Biso   1.000  H
  H24      1.0000 0.80670  0.15160  0.78720  Biso   1.000  H
  H25      1.0000 0.08830  0.34690  0.20650  Biso   1.000  H
  H26      1.0000 0.65310  0.74140  0.20650  Biso   1.000  H
  H27      1.0000 0.25860  0.91170  0.20650  Biso   1.000  H
  H28      1.0000 0.91170  0.65310  0.70650  Biso   1.000  H
  H29      1.0000 0.34690  0.25860  0.70650  Biso   1.000  H
  H30      1.0000 0.74140  0.08830  0.70650  Biso   1.000  H
  C19      1.0000 0.97560  0.51830  0.23500  Biso   1.000  C
  C20      1.0000 0.48170  0.45730  0.23500  Biso   1.000  C
  C21      1.0000 0.54270  0.02440  0.23500  Biso   1.000  C
  C22      1.0000 0.02440  0.48170  0.73500  Biso   1.000  C
  C23      1.0000 0.51830  0.54270  0.73500  Biso   1.000  C
  C24      1.0000 0.45730  0.97560  0.73500  Biso   1.000  C
  C25      1.0000 0.02370  0.48140  0.29030  Biso   1.000  C
  C26      1.0000 0.51860  0.54230  0.29030  Biso   1.000  C
  C27      1.0000 0.45770  0.97630  0.29030  Biso   1.000  C
  C28      1.0000 0.97630  0.51860  0.79030  Biso   1.000  C
  C29      1.0000 0.48140  0.45770  0.79030  Biso   1.000  C
  C30      1.0000 0.54230  0.02370  0.79030  Biso   1.000  C
  C31      1.0000 0.76770  0.49160  0.31110  Biso   1.000  C
  C32      1.0000 0.50840  0.27610  0.31110  Biso   1.000  C
  C33      1.0000 0.72390  0.23230  0.31110  Biso   1.000  C
  C34      1.0000 0.23230  0.50840  0.81110  Biso   1.000  C
  C35      1.0000 0.49160  0.72390  0.81110  Biso   1.000  C
  C36      1.0000 0.27610  0.76770  0.81110  Biso   1.000  C
  C37      1.0000 0.83850  0.51880  0.23610  Biso   1.000  C
  C38      1.0000 0.48120  0.31970  0.23610  Biso   1.000  C
  C39      1.0000 0.68030  0.16150  0.23610  Biso   1.000  C
  C40      1.0000 0.16150  0.48120  0.73610  Biso   1.000  C
  C41      1.0000 0.51880  0.68030  0.73610  Biso   1.000  C
  C42      1.0000 0.31970  0.83850  0.73610  Biso   1.000  C
  H31      1.0000 0.86540  0.58240  0.22120  Biso   1.000  H
  H32      1.0000 0.41760  0.28300  0.22120  Biso   1.000  H
  H33      1.0000 0.71700  0.13460  0.22120  Biso   1.000  H
  H34      1.0000 0.13460  0.41760  0.72120  Biso   1.000  H
  H35      1.0000 0.58240  0.71700  0.72120  Biso   1.000  H
  H36      1.0000 0.28300  0.86540  0.72120  Biso   1.000  H
  C43      1.0000 0.79560  0.46060  0.14070  Biso   1.000  C
  C44      1.0000 0.53940  0.33500  0.14070  Biso   1.000  C
  C45      1.0000 0.66500  0.20440  0.14070  Biso   1.000  C
  C46      1.0000 0.20440  0.53940  0.64070  Biso   1.000  C
  C47      1.0000 0.46060  0.66500  0.64070  Biso   1.000  C
  C48      1.0000 0.33500  0.79560  0.64070  Biso   1.000  C
  H37      1.0000 0.83970  0.47990  0.08980  Biso   1.000  H
  H38      1.0000 0.52010  0.35980  0.08980  Biso   1.000  H
  H39      1.0000 0.64020  0.16030  0.08980  Biso   1.000  H
  H40      1.0000 0.16030  0.52010  0.58980  Biso   1.000  H
  H41      1.0000 0.47990  0.64020  0.58980  Biso   1.000  H
  H42      1.0000 0.35980  0.83970  0.58980  Biso   1.000  H
  H43      1.0000 0.74680  0.46770  0.11920  Biso   1.000  H
  H44      1.0000 0.53230  0.27910  0.11920  Biso   1.000  H
  H45      1.0000 0.72090  0.25320  0.11920  Biso   1.000  H
  H46      1.0000 0.25320  0.53230  0.61920  Biso   1.000  H
  H47      1.0000 0.46770  0.72090  0.61920  Biso   1.000  H
  H48      1.0000 0.27910  0.74680  0.61920  Biso   1.000  H
  H49      1.0000 0.77440  0.39910  0.15540  Biso   1.000  H
  H50      1.0000 0.60090  0.37530  0.15540  Biso   1.000  H
  H51      1.0000 0.62470  0.22560  0.15540  Biso   1.000  H
  H52      1.0000 0.22560  0.60090  0.65540  Biso   1.000  H
  H53      1.0000 0.39910  0.62470  0.65540  Biso   1.000  H
  H54      1.0000 0.37530  0.77440  0.65540  Biso   1.000  H
  O43      1.0000 0.96030  0.58500  0.52270  Biso   1.000  O
  O44      1.0000 0.41500  0.37530  0.52270  Biso   1.000  O
  O45      1.0000 0.62470  0.03970  0.52270  Biso   1.000  O
  O46      1.0000 0.03970  0.41500  0.02270  Biso   1.000  O
  O47      1.0000 0.58500  0.62470  0.02270  Biso   1.000  O
  O48      1.0000 0.37530  0.96030  0.02270  Biso   1.000  O
  H55      1.0000 0.99800  0.58000  0.48000  Biso   1.000  H
  H56      1.0000 0.42000  0.41800  0.48000  Biso   1.000  H
  H57      1.0000 0.58200  0.00200  0.48000  Biso   1.000  H
  H58      1.0000 0.00200  0.42000  0.98000  Biso   1.000  H
  H59      1.0000 0.58000  0.58200  0.98000  Biso   1.000  H
  H60      1.0000 0.41800  0.99800  0.98000  Biso   1.000  H
  H61      1.0000 0.94300  0.62100  0.48900  Biso   1.000  H
  H62      1.0000 0.37900  0.32200  0.48900  Biso   1.000  H
  H63      1.0000 0.67800  0.05700  0.48900  Biso   1.000  H
  H64      1.0000 0.05700  0.37900  0.98900  Biso   1.000  H
  H65      1.0000 0.62100  0.67800  0.98900  Biso   1.000  H
  H66      1.0000 0.32200  0.94300  0.98900  Biso   1.000  H
  O49      1.0000 0.63040  0.67250  0.51210  Biso   1.000  O
  O50      1.0000 0.32750  0.95790  0.51210  Biso   1.000  O
  O51      1.0000 0.04210  0.36960  0.51210  Biso   1.000  O
  O52      1.0000 0.36960  0.32750  0.01210  Biso   1.000  O
  O53      1.0000 0.67250  0.04210  0.01210  Biso   1.000  O
  O54      1.0000 0.95790  0.63040  0.01210  Biso   1.000  O
  H67      1.0000 0.67100  0.70500  0.55900  Biso   1.000  H
  H68      1.0000 0.29500  0.96600  0.55900  Biso   1.000  H
  H69      1.0000 0.03400  0.32900  0.55900  Biso   1.000  H
  H70      1.0000 0.32900  0.29500  0.05900  Biso   1.000  H
  H71      1.0000 0.70500  0.03400  0.05900  Biso   1.000  H
  H72      1.0000 0.96600  0.67100  0.05900  Biso   1.000  H
  H73      1.0000 0.65500  0.67900  0.45200  Biso   1.000  H
  H74      1.0000 0.32100  0.97600  0.45200  Biso   1.000  H
  H75      1.0000 0.02400  0.34500  0.45200  Biso   1.000  H
  H76      1.0000 0.34500  0.32100  0.95200  Biso   1.000  H
  H77      1.0000 0.67900  0.02400  0.95200  Biso   1.000  H
  H78      1.0000 0.97600  0.65500  0.95200  Biso   1.000  H
  O55      1.0000 0.80890  0.61730  0.50630  Biso   1.000  O
  O56      1.0000 0.38270  0.19160  0.50630  Biso   1.000  O
  O57      1.0000 0.80840  0.19110  0.50630  Biso   1.000  O
  O58      1.0000 0.19110  0.38270  0.00630  Biso   1.000  O
  O59      1.0000 0.61730  0.80840  0.00630  Biso   1.000  O
  O60      1.0000 0.19160  0.80890  0.00630  Biso   1.000  O
  O61      1.0000 0.08710  0.69870  0.66130  Biso   1.000  O
  O62      1.0000 0.30130  0.38840  0.66130  Biso   1.000  O
  O63      1.0000 0.61160  0.91290  0.66130  Biso   1.000  O
  O64      1.0000 0.91290  0.30130  0.16130  Biso   1.000  O
  O65      1.0000 0.69870  0.61160  0.16130  Biso   1.000  O
  O66      1.0000 0.38840  0.08710  0.16130  Biso   1.000  O
  O67      1.0000 0.65100  0.83760  0.51250  Biso   1.000  O
  O68      1.0000 0.16240  0.81340  0.51250  Biso   1.000  O
  O69      1.0000 0.18660  0.34900  0.51250  Biso   1.000  O
  O70      1.0000 0.34900  0.16240  0.01250  Biso   1.000  O
  O71      1.0000 0.83760  0.18660  0.01250  Biso   1.000  O
  O72      1.0000 0.81340  0.65100  0.01250  Biso   1.000  O
  O73      1.0000 0.09060  0.68460  0.37990  Biso   1.000  O
  O74      1.0000 0.31540  0.40600  0.37990  Biso   1.000  O
  O75      1.0000 0.59400  0.90940  0.37990  Biso   1.000  O
  O76      1.0000 0.90940  0.31540  0.87990  Biso   1.000  O
  O77      1.0000 0.68460  0.59400  0.87990  Biso   1.000  O
  O78      1.0000 0.40600  0.09060  0.87990  Biso   1.000  O
  O79      1.0000 0.94670  0.92560  0.52400  Biso   1.000  O
  O80      1.0000 0.07440  0.02110  0.52400  Biso   1.000  O
  O81      1.0000 0.97890  0.05330  0.52400  Biso   1.000  O
  O82      1.0000 0.05330  0.07440  0.02400  Biso   1.000  O
  O83      1.0000 0.92560  0.97890  0.02400  Biso   1.000  O
  O84      1.0000 0.02110  0.94670  0.02400  Biso   1.000  O
  O85      1.0000 0.76130  0.76140  0.78030  Biso   1.000  O
  O86      1.0000 0.23860  0.99990  0.78030  Biso   1.000  O
  O87      1.0000 0.00010  0.23870  0.78030  Biso   1.000  O
  O88      1.0000 0.23870  0.23860  0.28030  Biso   1.000  O
  O89      1.0000 0.76140  0.00010  0.28030  Biso   1.000  O
  O90      1.0000 0.99990  0.76130  0.28030  Biso   1.000  O
  O91      1.0000 0.80160  0.75100  0.43340  Biso   1.000  O
  O92      1.0000 0.24900  0.05060  0.43340  Biso   1.000  O
  O93      1.0000 0.94940  0.19840  0.43340  Biso   1.000  O
  O94      1.0000 0.19840  0.24900  0.93340  Biso   1.000  O
  O95      1.0000 0.75100  0.94940  0.93340  Biso   1.000  O
  O96      1.0000 0.05060  0.80160  0.93340  Biso   1.000  O
  O97      1.0000 0.82670  0.71150  0.32420  Biso   1.000  O
  O98      1.0000 0.28850  0.11520  0.32420  Biso   1.000  O
  O99      1.0000 0.88480  0.17330  0.32420  Biso   1.000  O
  O100     1.0000 0.17330  0.28850  0.82420  Biso   1.000  O
  O101     1.0000 0.71150  0.88480  0.82420  Biso   1.000  O
  O102     1.0000 0.11520  0.82670  0.82420  Biso   1.000  O
  O103     1.0000 0.11300  0.97100  0.31800  Biso   1.000  O
  O104     1.0000 0.02900  0.14200  0.31800  Biso   1.000  O
  O105     1.0000 0.85800  0.88700  0.31800  Biso   1.000  O
  O106     1.0000 0.88700  0.02900  0.81800  Biso   1.000  O
  O107     1.0000 0.97100  0.85800  0.81800  Biso   1.000  O
  O108     1.0000 0.14200  0.11300  0.81800  Biso   1.000  O
  O109     1.0000 0.04360  0.85950  0.58400  Biso   1.000  O
  O110     1.0000 0.14050  0.18410  0.58400  Biso   1.000  O
  O111     1.0000 0.81590  0.95640  0.58400  Biso   1.000  O
  O112     1.0000 0.95640  0.14050  0.08400  Biso   1.000  O
  O113     1.0000 0.85950  0.81590  0.08400  Biso   1.000  O
  O114     1.0000 0.18410  0.04360  0.08400  Biso   1.000  O
