data_image0
_cell_length_a       3.71
_cell_length_b       13.42
_cell_length_c       12.987
_cell_angle_alpha    90
_cell_angle_beta     97.48
_cell_angle_gamma    90

_symmetry_space_group_name_H-M    "P 1"
_symmetry_int_tables_number       1

loop_
  _symmetry_equiv_pos_as_xyz
  'x, y, z'

loop_
  _atom_site_label
  _atom_site_occupancy
  _atom_site_fract_x
  _atom_site_fract_y
  _atom_site_fract_z
  _atom_site_thermal_displace_type
  _atom_site_B_iso_or_equiv
  _atom_site_type_symbol
  Cu1      1.0000 0.50000  0.50000  0.50000  Biso   1.000  Cu
  Cu2      1.0000 0.50000  0.00000  0.00000  Biso   1.000  Cu
  Cl1      1.0000 0.83330  0.54535  0.37119  Biso   1.000  Cl
  Cl2      1.0000 0.16670  0.04535  0.12881  Biso   1.000  Cl
  Cl3      1.0000 0.16670  0.45465  0.62881  Biso   1.000  Cl
  Cl4      1.0000 0.83330  0.95465  0.87119  Biso   1.000  Cl
  N1       1.0000 0.51760  0.64130  0.55460  Biso   1.000  N
  N2       1.0000 0.48240  0.14130  0.94540  Biso   1.000  N
  N3       1.0000 0.48240  0.35870  0.44540  Biso   1.000  N
  N4       1.0000 0.51760  0.85870  0.05460  Biso   1.000  N
  N5       1.0000 0.07070  0.94130  0.39170  Biso   1.000  N
  N6       1.0000 0.92930  0.44130  0.10830  Biso   1.000  N
  N7       1.0000 0.92930  0.05870  0.60830  Biso   1.000  N
  N8       1.0000 0.07070  0.55870  0.89170  Biso   1.000  N
  C1       1.0000 0.38900  0.71520  0.49160  Biso   1.000  C
  C2       1.0000 0.61100  0.21520  0.00840  Biso   1.000  C
  C3       1.0000 0.61100  0.28480  0.50840  Biso   1.000  C
  C4       1.0000 0.38900  0.78480  0.99160  Biso   1.000  C
  H1       1.0000 0.31410  0.70120  0.42200  Biso   1.000  H
  H2       1.0000 0.68590  0.20120  0.07800  Biso   1.000  H
  H3       1.0000 0.68590  0.29880  0.57800  Biso   1.000  H
  H4       1.0000 0.31410  0.79880  0.92200  Biso   1.000  H
  C5       1.0000 0.36310  0.81290  0.52680  Biso   1.000  C
  C6       1.0000 0.63690  0.31290  0.97320  Biso   1.000  C
  C7       1.0000 0.63690  0.18710  0.47320  Biso   1.000  C
  C8       1.0000 0.36310  0.68710  0.02680  Biso   1.000  C
  C9       1.0000 0.48410  0.83500  0.63010  Biso   1.000  C
  C10      1.0000 0.51590  0.33500  0.86990  Biso   1.000  C
  C11      1.0000 0.51590  0.16500  0.36990  Biso   1.000  C
  C12      1.0000 0.48410  0.66500  0.13010  Biso   1.000  C
  H5       1.0000 0.47180  0.89960  0.65540  Biso   1.000  H
  H6       1.0000 0.52820  0.39960  0.84460  Biso   1.000  H
  H7       1.0000 0.52820  0.10040  0.34460  Biso   1.000  H
  H8       1.0000 0.47180  0.60040  0.15540  Biso   1.000  H
  C13      1.0000 0.62280  0.75840  0.69420  Biso   1.000  C
  C14      1.0000 0.37720  0.25840  0.80580  Biso   1.000  C
  C15      1.0000 0.37720  0.24160  0.30580  Biso   1.000  C
  C16      1.0000 0.62280  0.74160  0.19420  Biso   1.000  C
  H9       1.0000 0.70950  0.77110  0.76340  Biso   1.000  H
  H10      1.0000 0.29050  0.27110  0.73660  Biso   1.000  H
  H11      1.0000 0.29050  0.22890  0.23660  Biso   1.000  H
  H12      1.0000 0.70950  0.72890  0.26340  Biso   1.000  H
  C17      1.0000 0.63270  0.66230  0.65500  Biso   1.000  C
  C18      1.0000 0.36730  0.16230  0.84500  Biso   1.000  C
  C19      1.0000 0.36730  0.33770  0.34500  Biso   1.000  C
  C20      1.0000 0.63270  0.83770  0.15500  Biso   1.000  C
  H13      1.0000 0.72140  0.61090  0.69930  Biso   1.000  H
  H14      1.0000 0.27860  0.11090  0.80070  Biso   1.000  H
  H15      1.0000 0.27860  0.38910  0.30070  Biso   1.000  H
  H16      1.0000 0.72140  0.88910  0.19930  Biso   1.000  H
  C21      1.0000 0.20570  0.88680  0.45200  Biso   1.000  C
  C22      1.0000 0.79430  0.38680  0.04800  Biso   1.000  C
  C23      1.0000 0.79430  0.11320  0.54800  Biso   1.000  C
  C24      1.0000 0.20570  0.61320  0.95200  Biso   1.000  C
