data_image0
_cell_length_a       10.021
_cell_length_b       13.739
_cell_length_c       18.812
_cell_angle_alpha    90
_cell_angle_beta     91.981
_cell_angle_gamma    90

_symmetry_space_group_name_H-M    "P 1"
_symmetry_int_tables_number       1

loop_
  _symmetry_equiv_pos_as_xyz
  'x, y, z'

loop_
  _atom_site_label
  _atom_site_occupancy
  _atom_site_fract_x
  _atom_site_fract_y
  _atom_site_fract_z
  _atom_site_thermal_displace_type
  _atom_site_B_iso_or_equiv
  _atom_site_type_symbol
  Cd1      1.0000 0.89128  0.58754  0.04850  Biso   1.000  Cd
  Cd2      1.0000 0.60872  0.08754  0.45150  Biso   1.000  Cd
  Cd3      1.0000 0.10872  0.41246  0.95150  Biso   1.000  Cd
  Cd4      1.0000 0.39128  0.91246  0.54850  Biso   1.000  Cd
  Cu1      1.0000 0.16271  0.53171  0.31066  Biso   1.000  Cu
  Cu2      1.0000 0.33729  0.03171  0.18934  Biso   1.000  Cu
  Cu3      1.0000 0.83729  0.46829  0.68934  Biso   1.000  Cu
  Cu4      1.0000 0.66271  0.96829  0.81066  Biso   1.000  Cu
  O1       1.0000 0.97850  0.67072  0.15036  Biso   1.000  O
  O2       1.0000 0.52150  0.17072  0.34964  Biso   1.000  O
  O3       1.0000 0.02150  0.32928  0.84964  Biso   1.000  O
  O4       1.0000 0.47850  0.82928  0.65036  Biso   1.000  O
  O5       1.0000 0.93450  0.48033  0.13695  Biso   1.000  O
  O6       1.0000 0.56550  0.98033  0.36305  Biso   1.000  O
  O7       1.0000 0.06550  0.51967  0.86305  Biso   1.000  O
  O8       1.0000 0.43450  0.01967  0.63695  Biso   1.000  O
  O9       1.0000 0.85791  0.44909  0.97809  Biso   1.000  O
  O10      1.0000 0.64209  0.94909  0.52191  Biso   1.000  O
  O11      1.0000 0.14209  0.55091  0.02191  Biso   1.000  O
  O12      1.0000 0.35791  0.05091  0.47809  Biso   1.000  O
  O13      1.0000 0.96534  0.31694  0.01371  Biso   1.000  O
  O14      1.0000 0.53466  0.81694  0.48629  Biso   1.000  O
  O15      1.0000 0.03466  0.68306  0.98629  Biso   1.000  O
  O16      1.0000 0.46534  0.18306  0.51371  Biso   1.000  O
  O17      1.0000 0.72600  0.02659  0.08762  Biso   1.000  O
  O18      1.0000 0.77400  0.52659  0.41238  Biso   1.000  O
  O19      1.0000 0.27400  0.97341  0.91238  Biso   1.000  O
  O20      1.0000 0.22600  0.47341  0.58762  Biso   1.000  O
  O21      1.0000 0.50456  0.02502  0.08962  Biso   1.000  O
  O22      1.0000 0.99544  0.52502  0.41038  Biso   1.000  O
  O23      1.0000 0.49544  0.97498  0.91038  Biso   1.000  O
  O24      1.0000 0.00456  0.47498  0.58962  Biso   1.000  O
  O25      1.0000 0.25770  0.29640  0.98188  Biso   1.000  O
  O26      1.0000 0.24230  0.79640  0.51812  Biso   1.000  O
  O27      1.0000 0.74230  0.70360  0.01812  Biso   1.000  O
  O28      1.0000 0.75770  0.20360  0.48188  Biso   1.000  O
  O29      1.0000 0.35800  0.42733  0.94401  Biso   1.000  O
  O30      1.0000 0.14200  0.92733  0.55599  Biso   1.000  O
  O31      1.0000 0.64200  0.57267  0.05599  Biso   1.000  O
  O32      1.0000 0.85800  0.07267  0.44401  Biso   1.000  O
  N1       1.0000 0.07780  0.64251  0.26133  Biso   1.000  N
  N2       1.0000 0.42220  0.14251  0.23867  Biso   1.000  N
  N3       1.0000 0.92220  0.35749  0.73867  Biso   1.000  N
  N4       1.0000 0.57780  0.85749  0.76133  Biso   1.000  N
  N5       1.0000 0.04310  0.45489  0.24539  Biso   1.000  N
  N6       1.0000 0.45690  0.95489  0.25461  Biso   1.000  N
  N7       1.0000 0.95690  0.54511  0.75461  Biso   1.000  N
  N8       1.0000 0.54310  0.04511  0.74539  Biso   1.000  N
  N9       1.0000 0.24750  0.41066  0.34861  Biso   1.000  N
  N10      1.0000 0.25250  0.91066  0.15139  Biso   1.000  N
  N11      1.0000 0.75250  0.58934  0.65139  Biso   1.000  N
  N12      1.0000 0.74750  0.08934  0.84861  Biso   1.000  N
  N13      1.0000 0.29560  0.62360  0.35818  Biso   1.000  N
  N14      1.0000 0.20440  0.12360  0.14182  Biso   1.000  N
  N15      1.0000 0.70440  0.37640  0.64182  Biso   1.000  N
  N16      1.0000 0.79560  0.87640  0.85818  Biso   1.000  N
  C1       1.0000 0.01910  0.61724  0.19951  Biso   1.000  C
  C2       1.0000 0.48090  0.11724  0.30049  Biso   1.000  C
  C3       1.0000 0.98090  0.38276  0.80049  Biso   1.000  C
  C4       1.0000 0.51910  0.88276  0.69951  Biso   1.000  C
  C5       1.0000 0.99760  0.50834  0.19111  Biso   1.000  C
  C6       1.0000 0.50240  0.00834  0.30889  Biso   1.000  C
  C7       1.0000 0.00240  0.49166  0.80889  Biso   1.000  C
  C8       1.0000 0.49760  0.99166  0.69111  Biso   1.000  C
  C9       1.0000 0.00670  0.35680  0.25171  Biso   1.000  C
  C10      1.0000 0.49330  0.85680  0.24829  Biso   1.000  C
  C11      1.0000 0.99330  0.64320  0.74829  Biso   1.000  C
  C12      1.0000 0.50670  0.14320  0.75171  Biso   1.000  C
  C13      1.0000 0.89800  0.31490  0.21472  Biso   1.000  C
  C14      1.0000 0.60200  0.81490  0.28528  Biso   1.000  C
  C15      1.0000 0.10200  0.68510  0.78528  Biso   1.000  C
  C16      1.0000 0.39800  0.18510  0.71472  Biso   1.000  C
  H1       1.0000 0.85030  0.35140  0.18080  Biso   1.000  H
  H2       1.0000 0.64970  0.85140  0.31920  Biso   1.000  H
  H3       1.0000 0.14970  0.64860  0.81920  Biso   1.000  H
  H4       1.0000 0.35030  0.14860  0.68080  Biso   1.000  H
  C17      1.0000 0.86030  0.22020  0.22768  Biso   1.000  C
  C18      1.0000 0.63970  0.72020  0.27232  Biso   1.000  C
  C19      1.0000 0.13970  0.77980  0.77232  Biso   1.000  C
  C20      1.0000 0.36030  0.27980  0.72768  Biso   1.000  C
  H5       1.0000 0.78670  0.19430  0.20290  Biso   1.000  H
  H6       1.0000 0.71330  0.69430  0.29710  Biso   1.000  H
  H7       1.0000 0.21330  0.80570  0.79710  Biso   1.000  H
  H8       1.0000 0.28670  0.30570  0.70290  Biso   1.000  H
  C21      1.0000 0.92860  0.16390  0.27606  Biso   1.000  C
  C22      1.0000 0.57140  0.66390  0.22394  Biso   1.000  C
  C23      1.0000 0.07140  0.83610  0.72394  Biso   1.000  C
  C24      1.0000 0.42860  0.33610  0.77606  Biso   1.000  C
  H9       1.0000 0.90100  0.10070  0.28550  Biso   1.000  H
  H10      1.0000 0.59900  0.60070  0.21450  Biso   1.000  H
  H11      1.0000 0.09900  0.89930  0.71450  Biso   1.000  H
  H12      1.0000 0.40100  0.39930  0.78550  Biso   1.000  H
  C25      1.0000 0.03850  0.20240  0.31036  Biso   1.000  C
  C26      1.0000 0.46150  0.70240  0.18964  Biso   1.000  C
  C27      1.0000 0.96150  0.79760  0.68964  Biso   1.000  C
  C28      1.0000 0.53850  0.29760  0.81036  Biso   1.000  C
  H13      1.0000 0.08790  0.16320  0.34180  Biso   1.000  H
  H14      1.0000 0.41210  0.66320  0.15820  Biso   1.000  H
  H15      1.0000 0.91210  0.83680  0.65820  Biso   1.000  H
  H16      1.0000 0.58790  0.33680  0.84180  Biso   1.000  H
  C29      1.0000 0.07950  0.29781  0.30009  Biso   1.000  C
  C30      1.0000 0.42050  0.79781  0.19991  Biso   1.000  C
  C31      1.0000 0.92050  0.70219  0.69991  Biso   1.000  C
  C32      1.0000 0.57950  0.20219  0.80009  Biso   1.000  C
  C33      1.0000 0.19730  0.32760  0.33996  Biso   1.000  C
  C34      1.0000 0.30270  0.82760  0.16004  Biso   1.000  C
  C35      1.0000 0.80270  0.67240  0.66004  Biso   1.000  C
  C36      1.0000 0.69730  0.17240  0.83996  Biso   1.000  C
  H17      1.0000 0.24370  0.27740  0.36300  Biso   1.000  H
  H18      1.0000 0.25630  0.77740  0.13700  Biso   1.000  H
  H19      1.0000 0.75630  0.72260  0.63700  Biso   1.000  H
  H20      1.0000 0.74370  0.22260  0.86300  Biso   1.000  H
  C37      1.0000 0.36630  0.41460  0.39810  Biso   1.000  C
  C38      1.0000 0.13370  0.91460  0.10190  Biso   1.000  C
  C39      1.0000 0.63370  0.58540  0.60190  Biso   1.000  C
  C40      1.0000 0.86630  0.08540  0.89810  Biso   1.000  C
  H21      1.0000 0.41590  0.35430  0.39460  Biso   1.000  H
  H22      1.0000 0.08410  0.85430  0.10540  Biso   1.000  H
  H23      1.0000 0.58410  0.64570  0.60540  Biso   1.000  H
  H24      1.0000 0.91590  0.14570  0.89460  Biso   1.000  H
  H25      1.0000 0.33690  0.42040  0.44650  Biso   1.000  H
  H26      1.0000 0.16310  0.92040  0.05350  Biso   1.000  H
  H27      1.0000 0.66310  0.57960  0.55350  Biso   1.000  H
  H28      1.0000 0.83690  0.07960  0.94650  Biso   1.000  H
  C41      1.0000 0.45570  0.49770  0.38240  Biso   1.000  C
  C42      1.0000 0.04430  0.99770  0.11760  Biso   1.000  C
  C43      1.0000 0.54430  0.50230  0.61760  Biso   1.000  C
  C44      1.0000 0.95570  0.00230  0.88240  Biso   1.000  C
  H29      1.0000 0.54270  0.48570  0.40480  Biso   1.000  H
  H30      1.0000 0.95730  0.98570  0.09520  Biso   1.000  H
  H31      1.0000 0.45730  0.51430  0.59520  Biso   1.000  H
  H32      1.0000 0.04270  0.01430  0.90480  Biso   1.000  H
  H33      1.0000 0.46710  0.50070  0.33140  Biso   1.000  H
  H34      1.0000 0.03290  0.00070  0.16860  Biso   1.000  H
  H35      1.0000 0.53290  0.49930  0.66860  Biso   1.000  H
  H36      1.0000 0.96710  0.99930  0.83140  Biso   1.000  H
  C45      1.0000 0.40690  0.59160  0.40640  Biso   1.000  C
  C46      1.0000 0.09310  0.09160  0.09360  Biso   1.000  C
  C47      1.0000 0.59310  0.40840  0.59360  Biso   1.000  C
  C48      1.0000 0.90690  0.90840  0.90640  Biso   1.000  C
  H37      1.0000 0.47840  0.63920  0.40630  Biso   1.000  H
  H38      1.0000 0.02160  0.13920  0.09370  Biso   1.000  H
  H39      1.0000 0.52160  0.36080  0.59370  Biso   1.000  H
  H40      1.0000 0.97840  0.86080  0.90630  Biso   1.000  H
  H41      1.0000 0.37620  0.58600  0.45460  Biso   1.000  H
  H42      1.0000 0.12380  0.08600  0.04540  Biso   1.000  H
  H43      1.0000 0.62380  0.41400  0.54540  Biso   1.000  H
  H44      1.0000 0.87620  0.91400  0.95460  Biso   1.000  H
  C49      1.0000 0.38120  0.40670  0.38560  Biso   1.000  C
  C50      1.0000 0.11880  0.90670  0.11440  Biso   1.000  C
  C51      1.0000 0.61880  0.59330  0.61440  Biso   1.000  C
  C52      1.0000 0.88120  0.09330  0.88560  Biso   1.000  C
  H45      1.0000 0.38750  0.34860  0.41490  Biso   1.000  H
  H46      1.0000 0.11250  0.84860  0.08510  Biso   1.000  H
  H47      1.0000 0.61250  0.65140  0.58510  Biso   1.000  H
  H48      1.0000 0.88750  0.15140  0.91490  Biso   1.000  H
  H49      1.0000 0.45000  0.40330  0.35070  Biso   1.000  H
  H50      1.0000 0.05000  0.90330  0.14930  Biso   1.000  H
  H51      1.0000 0.55000  0.59670  0.64930  Biso   1.000  H
  H52      1.0000 0.95000  0.09670  0.85070  Biso   1.000  H
  C53      1.0000 0.40290  0.49420  0.43100  Biso   1.000  C
  C54      1.0000 0.09710  0.99420  0.06900  Biso   1.000  C
  C55      1.0000 0.59710  0.50580  0.56900  Biso   1.000  C
  C56      1.0000 0.90290  0.00580  0.93100  Biso   1.000  C
  H53      1.0000 0.32690  0.50310  0.46080  Biso   1.000  H
  H54      1.0000 0.17310  0.00310  0.03920  Biso   1.000  H
  H55      1.0000 0.67310  0.49690  0.53920  Biso   1.000  H
  H56      1.0000 0.82690  0.99690  0.96080  Biso   1.000  H
  H57      1.0000 0.48150  0.48470  0.46170  Biso   1.000  H
  H58      1.0000 0.01850  0.98470  0.03830  Biso   1.000  H
  H59      1.0000 0.51850  0.51530  0.53830  Biso   1.000  H
  H60      1.0000 0.98150  0.01530  0.96170  Biso   1.000  H
  C57      1.0000 0.42030  0.58090  0.38750  Biso   1.000  C
  C58      1.0000 0.07970  0.08090  0.11250  Biso   1.000  C
  C59      1.0000 0.57970  0.41910  0.61250  Biso   1.000  C
  C60      1.0000 0.92030  0.91910  0.88750  Biso   1.000  C
  H61      1.0000 0.47680  0.56450  0.34840  Biso   1.000  H
  H62      1.0000 0.02320  0.06450  0.15160  Biso   1.000  H
  H63      1.0000 0.52320  0.43550  0.65160  Biso   1.000  H
  H64      1.0000 0.97680  0.93550  0.84840  Biso   1.000  H
  H65      1.0000 0.46680  0.62980  0.41620  Biso   1.000  H
  H66      1.0000 0.03320  0.12980  0.08380  Biso   1.000  H
  H67      1.0000 0.53320  0.37020  0.58380  Biso   1.000  H
  H68      1.0000 0.96680  0.87020  0.91620  Biso   1.000  H
  C61      1.0000 0.28650  0.71550  0.35801  Biso   1.000  C
  C62      1.0000 0.21350  0.21550  0.14199  Biso   1.000  C
  C63      1.0000 0.71350  0.28450  0.64199  Biso   1.000  C
  C64      1.0000 0.78650  0.78450  0.85801  Biso   1.000  C
  H69      1.0000 0.35780  0.74890  0.37960  Biso   1.000  H
  H70      1.0000 0.14220  0.24890  0.12040  Biso   1.000  H
  H71      1.0000 0.64220  0.25110  0.62040  Biso   1.000  H
  H72      1.0000 0.85780  0.75110  0.87960  Biso   1.000  H
  C65      1.0000 0.18050  0.77480  0.32877  Biso   1.000  C
  C66      1.0000 0.31950  0.27480  0.17123  Biso   1.000  C
  C67      1.0000 0.81950  0.22520  0.67123  Biso   1.000  C
  C68      1.0000 0.68050  0.72520  0.82877  Biso   1.000  C
  C69      1.0000 0.17880  0.87140  0.35211  Biso   1.000  C
  C70      1.0000 0.32120  0.37140  0.14789  Biso   1.000  C
  C71      1.0000 0.82120  0.12860  0.64789  Biso   1.000  C
  C72      1.0000 0.67880  0.62860  0.85211  Biso   1.000  C
  H73      1.0000 0.25130  0.89600  0.37860  Biso   1.000  H
  H74      1.0000 0.24870  0.39600  0.12140  Biso   1.000  H
  H75      1.0000 0.74870  0.10400  0.62140  Biso   1.000  H
  H76      1.0000 0.75130  0.60400  0.87860  Biso   1.000  H
  C73      1.0000 0.07140  0.93030  0.33640  Biso   1.000  C
  C74      1.0000 0.42860  0.43030  0.16360  Biso   1.000  C
  C75      1.0000 0.92860  0.06970  0.66360  Biso   1.000  C
  C76      1.0000 0.57140  0.56970  0.83640  Biso   1.000  C
  H77      1.0000 0.06900  0.99380  0.35340  Biso   1.000  H
  H78      1.0000 0.43100  0.49380  0.14660  Biso   1.000  H
  H79      1.0000 0.93100  0.00620  0.64660  Biso   1.000  H
  H80      1.0000 0.56900  0.50620  0.85340  Biso   1.000  H
  C77      1.0000 0.96780  0.89400  0.29510  Biso   1.000  C
  C78      1.0000 0.53220  0.39400  0.20490  Biso   1.000  C
  C79      1.0000 0.03220  0.10600  0.70490  Biso   1.000  C
  C80      1.0000 0.46780  0.60600  0.79510  Biso   1.000  C
  H81      1.0000 0.89310  0.93260  0.28570  Biso   1.000  H
  H82      1.0000 0.60690  0.43260  0.21430  Biso   1.000  H
  H83      1.0000 0.10690  0.06740  0.71430  Biso   1.000  H
  H84      1.0000 0.39310  0.56740  0.78570  Biso   1.000  H
  C81      1.0000 0.97210  0.80190  0.26742  Biso   1.000  C
  C82      1.0000 0.52790  0.30190  0.23258  Biso   1.000  C
  C83      1.0000 0.02790  0.19810  0.73258  Biso   1.000  C
  C84      1.0000 0.47210  0.69810  0.76742  Biso   1.000  C
  H85      1.0000 0.90290  0.78070  0.23700  Biso   1.000  H
  H86      1.0000 0.59710  0.28070  0.26300  Biso   1.000  H
  H87      1.0000 0.09710  0.21930  0.76300  Biso   1.000  H
  H88      1.0000 0.40290  0.71930  0.73700  Biso   1.000  H
  C85      1.0000 0.07750  0.74006  0.28382  Biso   1.000  C
  C86      1.0000 0.42250  0.24006  0.21618  Biso   1.000  C
  C87      1.0000 0.92250  0.25994  0.71618  Biso   1.000  C
  C88      1.0000 0.57750  0.75994  0.78382  Biso   1.000  C
  C89      1.0000 0.73060  0.31177  0.01414  Biso   1.000  C
  C90      1.0000 0.76940  0.81177  0.48586  Biso   1.000  C
  C91      1.0000 0.26940  0.68823  0.98586  Biso   1.000  C
  C92      1.0000 0.23060  0.18823  0.51414  Biso   1.000  C
  C93      1.0000 0.61010  0.35450  0.99292  Biso   1.000  C
  C94      1.0000 0.88990  0.85450  0.50708  Biso   1.000  C
  C95      1.0000 0.38990  0.64550  0.00708  Biso   1.000  C
  C96      1.0000 0.11010  0.14550  0.49292  Biso   1.000  C
  H89      1.0000 0.60870  0.41790  0.97570  Biso   1.000  H
  H90      1.0000 0.89130  0.91790  0.52430  Biso   1.000  H
  H91      1.0000 0.39130  0.58210  0.02430  Biso   1.000  H
  H92      1.0000 0.10870  0.08210  0.47570  Biso   1.000  H
  C97      1.0000 0.49170  0.30275  0.99742  Biso   1.000  C
  C98      1.0000 0.00830  0.80275  0.50258  Biso   1.000  C
  C99      1.0000 0.50830  0.69725  0.00258  Biso   1.000  C
  C100     1.0000 0.99170  0.19725  0.49742  Biso   1.000  C
  C101     1.0000 0.49380  0.20985  0.02495  Biso   1.000  C
  C102     1.0000 0.00620  0.70985  0.47505  Biso   1.000  C
  C103     1.0000 0.50620  0.79015  0.97505  Biso   1.000  C
  C104     1.0000 0.99380  0.29015  0.52495  Biso   1.000  C
  H93      1.0000 0.41430  0.17560  0.02840  Biso   1.000  H
  H94      1.0000 0.08570  0.67560  0.47160  Biso   1.000  H
  H95      1.0000 0.58570  0.82440  0.97160  Biso   1.000  H
  H96      1.0000 0.91430  0.32440  0.52840  Biso   1.000  H
  C105     1.0000 0.61300  0.16655  0.04771  Biso   1.000  C
  C106     1.0000 0.88700  0.66655  0.45229  Biso   1.000  C
  C107     1.0000 0.38700  0.83345  0.95229  Biso   1.000  C
  C108     1.0000 0.11300  0.33345  0.54771  Biso   1.000  C
  C109     1.0000 0.73130  0.21787  0.04137  Biso   1.000  C
  C110     1.0000 0.76870  0.71787  0.45863  Biso   1.000  C
  C111     1.0000 0.26870  0.78213  0.95863  Biso   1.000  C
  C112     1.0000 0.23130  0.28213  0.54137  Biso   1.000  C
  H97      1.0000 0.81190  0.18900  0.05550  Biso   1.000  H
  H98      1.0000 0.68810  0.68900  0.44450  Biso   1.000  H
  H99      1.0000 0.18810  0.81100  0.94450  Biso   1.000  H
  H100     1.0000 0.31190  0.31100  0.55550  Biso   1.000  H
  C113     1.0000 0.86020  0.36350  0.00252  Biso   1.000  C
  C114     1.0000 0.63980  0.86350  0.49748  Biso   1.000  C
  C115     1.0000 0.13980  0.63650  0.99748  Biso   1.000  C
  C116     1.0000 0.36020  0.13650  0.50252  Biso   1.000  C
  C117     1.0000 0.36150  0.34631  0.97220  Biso   1.000  C
  C118     1.0000 0.13850  0.84631  0.52780  Biso   1.000  C
  C119     1.0000 0.63850  0.65369  0.02780  Biso   1.000  C
  C120     1.0000 0.86150  0.15369  0.47220  Biso   1.000  C
  C121     1.0000 0.60690  0.06676  0.07690  Biso   1.000  C
  C122     1.0000 0.89310  0.56676  0.42310  Biso   1.000  C
  C123     1.0000 0.39310  0.93324  0.92310  Biso   1.000  C
  C124     1.0000 0.10690  0.43324  0.57690  Biso   1.000  C
  C125     1.0000 0.27820  0.07960  0.88520  Biso   1.000  C
  C126     1.0000 0.22180  0.57960  0.61480  Biso   1.000  C
  C127     1.0000 0.72180  0.92040  0.11480  Biso   1.000  C
  C128     1.0000 0.77820  0.42040  0.38520  Biso   1.000  C
  H101     1.0000 0.20560  0.11560  0.90430  Biso   1.000  H
  H102     1.0000 0.29440  0.61560  0.59570  Biso   1.000  H
  H103     1.0000 0.79440  0.88440  0.09570  Biso   1.000  H
  H104     1.0000 0.70560  0.38440  0.40430  Biso   1.000  H
  H105     1.0000 0.27040  0.08000  0.83420  Biso   1.000  H
  H106     1.0000 0.22960  0.58000  0.66580  Biso   1.000  H
  H107     1.0000 0.72960  0.92000  0.16580  Biso   1.000  H
  H108     1.0000 0.77040  0.42000  0.33420  Biso   1.000  H
  H109     1.0000 0.36130  0.10910  0.90030  Biso   1.000  H
  H110     1.0000 0.13870  0.60910  0.59970  Biso   1.000  H
  H111     1.0000 0.63870  0.89090  0.09970  Biso   1.000  H
  H112     1.0000 0.86130  0.39090  0.40030  Biso   1.000  H
  O33      1.0000 0.24950  0.15090  0.87830  Biso   1.000  O
  O34      1.0000 0.25050  0.65090  0.62170  Biso   1.000  O
  O35      1.0000 0.75050  0.84910  0.12170  Biso   1.000  O
  O36      1.0000 0.74950  0.34910  0.37830  Biso   1.000  O
