data_image0
_cell_length_a       10.1376
_cell_length_b       12.3611
_cell_length_c       13.8352
_cell_angle_alpha    100.522
_cell_angle_beta     107.486
_cell_angle_gamma    109.188

_symmetry_space_group_name_H-M    "P 1"
_symmetry_int_tables_number       1

loop_
  _symmetry_equiv_pos_as_xyz
  'x, y, z'

loop_
  _atom_site_label
  _atom_site_occupancy
  _atom_site_fract_x
  _atom_site_fract_y
  _atom_site_fract_z
  _atom_site_thermal_displace_type
  _atom_site_B_iso_or_equiv
  _atom_site_type_symbol
  Cu1      1.0000 0.16932  0.23395  0.95553  Biso   1.000  Cu
  Cu2      1.0000 0.83068  0.76605  0.04447  Biso   1.000  Cu
  Zn1      1.0000 0.41887  0.44846  0.37712  Biso   1.000  Zn
  Zn2      1.0000 0.58113  0.55154  0.62288  Biso   1.000  Zn
  Zn3      1.0000 0.28280  0.25279  0.49456  Biso   1.000  Zn
  Zn4      1.0000 0.71720  0.74721  0.50544  Biso   1.000  Zn
  O1       1.0000 0.20890  0.31161  0.25692  Biso   1.000  O
  O2       1.0000 0.79110  0.68839  0.74308  Biso   1.000  O
  O3       1.0000 0.46490  0.44512  0.24109  Biso   1.000  O
  O4       1.0000 0.53510  0.55488  0.75891  Biso   1.000  O
  O5       1.0000 0.06490  0.16498  0.44321  Biso   1.000  O
  O6       1.0000 0.93510  0.83502  0.55679  Biso   1.000  O
  O7       1.0000 0.04420  0.33795  0.48701  Biso   1.000  O
  O8       1.0000 0.95580  0.66205  0.51299  Biso   1.000  O
  O9       1.0000 0.63900  0.78348  0.37373  Biso   1.000  O
  O10      1.0000 0.36100  0.21652  0.62627  Biso   1.000  O
  O11      1.0000 0.40770  0.78010  0.33300  Biso   1.000  O
  O12      1.0000 0.59230  0.21990  0.66700  Biso   1.000  O
  O13      1.0000 0.35300  0.16531  0.40252  Biso   1.000  O
  O14      1.0000 0.64700  0.83469  0.59748  Biso   1.000  O
  O15      1.0000 0.52250  0.32458  0.38705  Biso   1.000  O
  O16      1.0000 0.47750  0.67542  0.61295  Biso   1.000  O
  O17      1.0000 0.36921  0.42288  0.50889  Biso   1.000  O
  O18      1.0000 0.63079  0.57712  0.49111  Biso   1.000  O
  H1       1.0000 0.30190  0.44760  0.51400  Biso   1.000  H
  H2       1.0000 0.69810  0.55240  0.48600  Biso   1.000  H
  O19      1.0000 0.31560  0.56560  0.35730  Biso   1.000  O
  O20      1.0000 0.68440  0.43440  0.64270  Biso   1.000  O
  H3       1.0000 0.36150  0.63210  0.34880  Biso   1.000  H
  H4       1.0000 0.63850  0.36790  0.65120  Biso   1.000  H
  H5       1.0000 0.22630  0.55000  0.35490  Biso   1.000  H
  H6       1.0000 0.77370  0.45000  0.64510  Biso   1.000  H
  O21      1.0000 0.03660  0.50720  0.37540  Biso   1.000  O
  O22      1.0000 0.96340  0.49280  0.62460  Biso   1.000  O
  H7       1.0000 0.03380  0.44960  0.40110  Biso   1.000  H
  H8       1.0000 0.96620  0.55040  0.59890  Biso   1.000  H
  H9       1.0000 0.01160  0.55990  0.40410  Biso   1.000  H
  H10      1.0000 0.98840  0.44010  0.59590  Biso   1.000  H
  N1       1.0000 0.09840  0.22290  0.07220  Biso   1.000  N
  N2       1.0000 0.90160  0.77710  0.92780  Biso   1.000  N
  N3       1.0000 0.36860  0.32590  0.06545  Biso   1.000  N
  N4       1.0000 0.63140  0.67410  0.93455  Biso   1.000  N
  N5       1.0000 0.23470  0.29730  0.84919  Biso   1.000  N
  N6       1.0000 0.76530  0.70270  0.15081  Biso   1.000  N
  N7       1.0000 0.98750  0.10550  0.84784  Biso   1.000  N
  N8       1.0000 0.01250  0.89450  0.15216  Biso   1.000  N
  C1       1.0000 0.21050  0.29620  0.16610  Biso   1.000  C
  C2       1.0000 0.78950  0.70380  0.83390  Biso   1.000  C
  C3       1.0000 0.36230  0.36420  0.15900  Biso   1.000  C
  C4       1.0000 0.63770  0.63580  0.84100  Biso   1.000  C
  C5       1.0000 0.50590  0.35550  0.05010  Biso   1.000  C
  C6       1.0000 0.49410  0.64450  0.94990  Biso   1.000  C
  C7       1.0000 0.64110  0.37320  0.12950  Biso   1.000  C
  C8       1.0000 0.35890  0.62680  0.87050  Biso   1.000  C
  H11      1.0000 0.64420  0.37240  0.19720  Biso   1.000  H
  H12      1.0000 0.35580  0.62760  0.80280  Biso   1.000  H
  C9       1.0000 0.77020  0.39170  0.10880  Biso   1.000  C
  C10      1.0000 0.22980  0.60830  0.89120  Biso   1.000  C
  H13      1.0000 0.85890  0.40190  0.16240  Biso   1.000  H
  H14      1.0000 0.14110  0.59810  0.83760  Biso   1.000  H
  C11      1.0000 0.76980  0.39540  0.01000  Biso   1.000  C
  C12      1.0000 0.23020  0.60460  0.99000  Biso   1.000  C
  H15      1.0000 0.85750  0.40820  0.99680  Biso   1.000  H
  H16      1.0000 0.14250  0.59180  0.00320  Biso   1.000  H
  C13      1.0000 0.63890  0.38010  0.93110  Biso   1.000  C
  C14      1.0000 0.36110  0.61990  0.06890  Biso   1.000  C
  H17      1.0000 0.63920  0.38440  0.86480  Biso   1.000  H
  H18      1.0000 0.36080  0.61560  0.13520  Biso   1.000  H
  C15      1.0000 0.50450  0.35820  0.94830  Biso   1.000  C
  C16      1.0000 0.49550  0.64180  0.05170  Biso   1.000  C
  C17      1.0000 0.37150  0.34180  0.85830  Biso   1.000  C
  C18      1.0000 0.62850  0.65820  0.14170  Biso   1.000  C
  H19      1.0000 0.38870  0.36640  0.80190  Biso   1.000  H
  H20      1.0000 0.61130  0.63360  0.19810  Biso   1.000  H
  C19      1.0000 0.11670  0.29270  0.75300  Biso   1.000  C
  C20      1.0000 0.88330  0.70730  0.24700  Biso   1.000  C
  H21      1.0000 0.16430  0.32280  0.70650  Biso   1.000  H
  H22      1.0000 0.83570  0.67720  0.29350  Biso   1.000  H
  H23      1.0000 0.07160  0.34630  0.77420  Biso   1.000  H
  H24      1.0000 0.92840  0.65370  0.22580  Biso   1.000  H
  C21      1.0000 0.99400  0.17050  0.69160  Biso   1.000  C
  C22      1.0000 0.00600  0.82950  0.30840  Biso   1.000  C
  H25      1.0000 0.89780  0.17730  0.67660  Biso   1.000  H
  H26      1.0000 0.10220  0.82270  0.32340  Biso   1.000  H
  H27      1.0000 0.00190  0.14550  0.62370  Biso   1.000  H
  H28      1.0000 0.99810  0.85450  0.37630  Biso   1.000  H
  C23      1.0000 0.98890  0.07290  0.74050  Biso   1.000  C
  C24      1.0000 0.01110  0.92710  0.25950  Biso   1.000  C
  H29      1.0000 0.89870  0.00060  0.69510  Biso   1.000  H
  H30      1.0000 0.10130  0.99940  0.30490  Biso   1.000  H
  H31      1.0000 0.07640  0.05500  0.74490  Biso   1.000  H
  H32      1.0000 0.92360  0.94500  0.25510  Biso   1.000  H
  C25      1.0000 0.87500  0.04150  0.86500  Biso   1.000  C
  C26      1.0000 0.12500  0.95850  0.13500  Biso   1.000  C
  H33      1.0000 0.79900  0.97660  0.80720  Biso   1.000  H
  H34      1.0000 0.20100  0.02340  0.19280  Biso   1.000  H
  C27      1.0000 0.85110  0.05770  0.96430  Biso   1.000  C
  C28      1.0000 0.14890  0.94230  0.03570  Biso   1.000  C
  C29      1.0000 0.71090  0.97670  0.95720  Biso   1.000  C
  C30      1.0000 0.28910  0.02330  0.04280  Biso   1.000  C
  H35      1.0000 0.64410  0.91870  0.89200  Biso   1.000  H
  H36      1.0000 0.35590  0.08130  0.10800  Biso   1.000  H
  C31      1.0000 0.66920  0.97990  0.04110  Biso   1.000  C
  C32      1.0000 0.33080  0.02010  0.95890  Biso   1.000  C
  H37      1.0000 0.57760  0.92300  0.03480  Biso   1.000  H
  H38      1.0000 0.42240  0.07700  0.96520  Biso   1.000  H
  C33      1.0000 0.76620  0.06990  0.13690  Biso   1.000  C
  C34      1.0000 0.23380  0.93010  0.86310  Biso   1.000  C
  H39      1.0000 0.73690  0.07620  0.19450  Biso   1.000  H
  H40      1.0000 0.26310  0.92380  0.80550  Biso   1.000  H
  C35      1.0000 0.90540  0.15010  0.14770  Biso   1.000  C
  C36      1.0000 0.09460  0.84990  0.85230  Biso   1.000  C
  H41      1.0000 0.96880  0.20890  0.21320  Biso   1.000  H
  H42      1.0000 0.03120  0.79110  0.78680  Biso   1.000  H
  C37      1.0000 0.95460  0.14590  0.06350  Biso   1.000  C
  C38      1.0000 0.04540  0.85410  0.93650  Biso   1.000  C
  C39      1.0000 0.82190  0.15560  0.41900  Biso   1.000  C
  C40      1.0000 0.17810  0.84440  0.58100  Biso   1.000  C
  C41      1.0000 0.76270  0.03140  0.40100  Biso   1.000  C
  C42      1.0000 0.23730  0.96860  0.59900  Biso   1.000  C
  H43      1.0000 0.82650  0.99140  0.40570  Biso   1.000  H
  H44      1.0000 0.17350  0.00860  0.59430  Biso   1.000  H
  C43      1.0000 0.60970  0.96680  0.37620  Biso   1.000  C
  C44      1.0000 0.39030  0.03320  0.62380  Biso   1.000  C
  C45      1.0000 0.51590  0.02860  0.37220  Biso   1.000  C
  C46      1.0000 0.48410  0.97140  0.62780  Biso   1.000  C
  H45      1.0000 0.41390  0.98660  0.35790  Biso   1.000  H
  H46      1.0000 0.58610  0.01340  0.64210  Biso   1.000  H
  C47      1.0000 0.57360  0.15170  0.38950  Biso   1.000  C
  C48      1.0000 0.42640  0.84830  0.61050  Biso   1.000  C
  C49      1.0000 0.72620  0.21480  0.41110  Biso   1.000  C
  C50      1.0000 0.27380  0.78520  0.58890  Biso   1.000  C
  H47      1.0000 0.76420  0.29710  0.42040  Biso   1.000  H
  H48      1.0000 0.23580  0.70290  0.57960  Biso   1.000  H
  C51      1.0000 0.98810  0.22600  0.45110  Biso   1.000  C
  C52      1.0000 0.01190  0.77400  0.54890  Biso   1.000  C
  C53      1.0000 0.54540  0.83370  0.35960  Biso   1.000  C
  C54      1.0000 0.45460  0.16630  0.64040  Biso   1.000  C
  C55      1.0000 0.47640  0.22030  0.39240  Biso   1.000  C
  C56      1.0000 0.52360  0.77970  0.60760  Biso   1.000  C
