data_image0
_cell_length_a       9.993
_cell_length_b       13.395
_cell_length_c       10.502
_cell_angle_alpha    90
_cell_angle_beta     106.04
_cell_angle_gamma    90

_symmetry_space_group_name_H-M    "P 1"
_symmetry_int_tables_number       1

loop_
  _symmetry_equiv_pos_as_xyz
  'x, y, z'

loop_
  _atom_site_label
  _atom_site_occupancy
  _atom_site_fract_x
  _atom_site_fract_y
  _atom_site_fract_z
  _atom_site_thermal_displace_type
  _atom_site_B_iso_or_equiv
  _atom_site_type_symbol
  Cu1      1.0000 0.49936  0.03899  0.25157  Biso   1.000  Cu
  Cu2      1.0000 0.00064  0.53899  0.24843  Biso   1.000  Cu
  Cu3      1.0000 0.50064  0.96101  0.74843  Biso   1.000  Cu
  Cu4      1.0000 0.99936  0.46101  0.75157  Biso   1.000  Cu
  N1       1.0000 0.66590  0.04160  0.41100  Biso   1.000  N
  N2       1.0000 0.83410  0.54160  0.08900  Biso   1.000  N
  N3       1.0000 0.33410  0.95840  0.58900  Biso   1.000  N
  N4       1.0000 0.16590  0.45840  0.91100  Biso   1.000  N
  N5       1.0000 0.65940  0.99480  0.50440  Biso   1.000  N
  N6       1.0000 0.84060  0.49480  0.99560  Biso   1.000  N
  N7       1.0000 0.34060  0.00520  0.49560  Biso   1.000  N
  N8       1.0000 0.15940  0.50520  0.00440  Biso   1.000  N
  N9       1.0000 0.65930  0.94920  0.59710  Biso   1.000  N
  N10      1.0000 0.84070  0.44920  0.90290  Biso   1.000  N
  N11      1.0000 0.34070  0.05080  0.40290  Biso   1.000  N
  N12      1.0000 0.15930  0.55080  0.09710  Biso   1.000  N
  N13      1.0000 0.32930  0.03600  0.09550  Biso   1.000  N
  N14      1.0000 0.17070  0.53600  0.40450  Biso   1.000  N
  N15      1.0000 0.67070  0.96400  0.90450  Biso   1.000  N
  N16      1.0000 0.82930  0.46400  0.59550  Biso   1.000  N
  N17      1.0000 0.34040  0.99900  0.99670  Biso   1.000  N
  N18      1.0000 0.15960  0.49900  0.50330  Biso   1.000  N
  N19      1.0000 0.65960  0.00100  0.00330  Biso   1.000  N
  N20      1.0000 0.84040  0.50100  0.49670  Biso   1.000  N
  N21      1.0000 0.34490  0.96220  0.89980  Biso   1.000  N
  N22      1.0000 0.15510  0.46220  0.60020  Biso   1.000  N
  N23      1.0000 0.65510  0.03780  0.10020  Biso   1.000  N
  N24      1.0000 0.84490  0.53780  0.39980  Biso   1.000  N
  N25      1.0000 0.49290  0.88770  0.26070  Biso   1.000  N
  N26      1.0000 0.00710  0.38770  0.23930  Biso   1.000  N
  N27      1.0000 0.50710  0.11230  0.73930  Biso   1.000  N
  N28      1.0000 0.99290  0.61230  0.76070  Biso   1.000  N
  N29      1.0000 0.50190  0.19030  0.24210  Biso   1.000  N
  N30      1.0000 0.99810  0.69030  0.25790  Biso   1.000  N
  N31      1.0000 0.49810  0.80970  0.75790  Biso   1.000  N
  N32      1.0000 0.00190  0.30970  0.74210  Biso   1.000  N
  C1       1.0000 0.61150  0.83400  0.27920  Biso   1.000  C
  C2       1.0000 0.88850  0.33400  0.22080  Biso   1.000  C
  C3       1.0000 0.38850  0.16600  0.72080  Biso   1.000  C
  C4       1.0000 0.11150  0.66600  0.77920  Biso   1.000  C
  H1       1.0000 0.69360  0.86710  0.28020  Biso   1.000  H
  H2       1.0000 0.80640  0.36710  0.21980  Biso   1.000  H
  H3       1.0000 0.30640  0.13290  0.71980  Biso   1.000  H
  H4       1.0000 0.19360  0.63290  0.78020  Biso   1.000  H
  C5       1.0000 0.61470  0.73220  0.29660  Biso   1.000  C
  C6       1.0000 0.88530  0.23220  0.20340  Biso   1.000  C
  C7       1.0000 0.38530  0.26780  0.70340  Biso   1.000  C
  C8       1.0000 0.11470  0.76780  0.79660  Biso   1.000  C
  H5       1.0000 0.69790  0.69730  0.30910  Biso   1.000  H
  H6       1.0000 0.80210  0.19730  0.19090  Biso   1.000  H
  H7       1.0000 0.30210  0.30270  0.69090  Biso   1.000  H
  H8       1.0000 0.19790  0.80270  0.80910  Biso   1.000  H
  C9       1.0000 0.49050  0.68090  0.29530  Biso   1.000  C
  C10      1.0000 0.00950  0.18090  0.20470  Biso   1.000  C
  C11      1.0000 0.50950  0.31910  0.70470  Biso   1.000  C
  C12      1.0000 0.99050  0.81910  0.79530  Biso   1.000  C
  C13      1.0000 0.37200  0.73640  0.26900  Biso   1.000  C
  C14      1.0000 0.12800  0.23640  0.23100  Biso   1.000  C
  C15      1.0000 0.62800  0.26360  0.73100  Biso   1.000  C
  C16      1.0000 0.87200  0.76360  0.76900  Biso   1.000  C
  H9       1.0000 0.28680  0.70530  0.26080  Biso   1.000  H
  H10      1.0000 0.21320  0.20530  0.23920  Biso   1.000  H
  H11      1.0000 0.71320  0.29470  0.73920  Biso   1.000  H
  H12      1.0000 0.78680  0.79470  0.76080  Biso   1.000  H
  C17      1.0000 0.37740  0.83870  0.25440  Biso   1.000  C
  C18      1.0000 0.12260  0.33870  0.24560  Biso   1.000  C
  C19      1.0000 0.62260  0.16130  0.74560  Biso   1.000  C
  C20      1.0000 0.87740  0.66130  0.75440  Biso   1.000  C
  H13      1.0000 0.29490  0.87470  0.23940  Biso   1.000  H
  H14      1.0000 0.20510  0.37470  0.26060  Biso   1.000  H
  H15      1.0000 0.70510  0.12530  0.76060  Biso   1.000  H
  H16      1.0000 0.79490  0.62530  0.73940  Biso   1.000  H
  C21      1.0000 0.54500  0.24750  0.34770  Biso   1.000  C
  C22      1.0000 0.95500  0.74750  0.15230  Biso   1.000  C
  C23      1.0000 0.45500  0.75250  0.65230  Biso   1.000  C
  C24      1.0000 0.04500  0.25250  0.84770  Biso   1.000  C
  H17      1.0000 0.57280  0.21720  0.43050  Biso   1.000  H
  H18      1.0000 0.92720  0.71720  0.06950  Biso   1.000  H
  H19      1.0000 0.42720  0.78280  0.56950  Biso   1.000  H
  H20      1.0000 0.07280  0.28280  0.93050  Biso   1.000  H
  C25      1.0000 0.55080  0.35060  0.34130  Biso   1.000  C
  C26      1.0000 0.94920  0.85060  0.15870  Biso   1.000  C
  C27      1.0000 0.44920  0.64940  0.65870  Biso   1.000  C
  C28      1.0000 0.05080  0.14940  0.84130  Biso   1.000  C
  H21      1.0000 0.58530  0.38720  0.41860  Biso   1.000  H
  H22      1.0000 0.91470  0.88720  0.08140  Biso   1.000  H
  H23      1.0000 0.41470  0.61280  0.58140  Biso   1.000  H
  H24      1.0000 0.08530  0.11280  0.91860  Biso   1.000  H
  C29      1.0000 0.50660  0.39890  0.22300  Biso   1.000  C
  C30      1.0000 0.99340  0.89890  0.27700  Biso   1.000  C
  C31      1.0000 0.49340  0.60110  0.77700  Biso   1.000  C
  C32      1.0000 0.00660  0.10110  0.72300  Biso   1.000  C
  C33      1.0000 0.46530  0.33910  0.11180  Biso   1.000  C
  C34      1.0000 0.03470  0.83910  0.38820  Biso   1.000  C
  C35      1.0000 0.53470  0.66090  0.88820  Biso   1.000  C
  C36      1.0000 0.96530  0.16090  0.61180  Biso   1.000  C
  H25      1.0000 0.43760  0.36820  0.02820  Biso   1.000  H
  H26      1.0000 0.06240  0.86820  0.47180  Biso   1.000  H
  H27      1.0000 0.56240  0.63180  0.97180  Biso   1.000  H
  H28      1.0000 0.93760  0.13180  0.52820  Biso   1.000  H
  C37      1.0000 0.46500  0.23710  0.12370  Biso   1.000  C
  C38      1.0000 0.03500  0.73710  0.37630  Biso   1.000  C
  C39      1.0000 0.53500  0.76290  0.87630  Biso   1.000  C
  C40      1.0000 0.96500  0.26290  0.62370  Biso   1.000  C
  H29      1.0000 0.43820  0.19860  0.04710  Biso   1.000  H
  H30      1.0000 0.06180  0.69860  0.45290  Biso   1.000  H
  H31      1.0000 0.56180  0.80140  0.95290  Biso   1.000  H
  H32      1.0000 0.93820  0.30140  0.54710  Biso   1.000  H
  C41      1.0000 0.49010  0.56980  0.32080  Biso   1.000  C
  C42      1.0000 0.00990  0.06980  0.17920  Biso   1.000  C
  C43      1.0000 0.50990  0.43020  0.67920  Biso   1.000  C
  C44      1.0000 0.99010  0.93020  0.82080  Biso   1.000  C
  H33      1.0000 0.40090  0.55050  0.33300  Biso   1.000  H
  H34      1.0000 0.09910  0.05050  0.16700  Biso   1.000  H
  H35      1.0000 0.59910  0.44950  0.66700  Biso   1.000  H
  H36      1.0000 0.90090  0.94950  0.83300  Biso   1.000  H
  H37      1.0000 0.56180  0.55390  0.40140  Biso   1.000  H
  H38      1.0000 0.93820  0.05390  0.09860  Biso   1.000  H
  H39      1.0000 0.43820  0.44610  0.59860  Biso   1.000  H
  H40      1.0000 0.06180  0.94610  0.90140  Biso   1.000  H
  C45      1.0000 0.51630  0.51110  0.20540  Biso   1.000  C
  C46      1.0000 0.98370  0.01110  0.29460  Biso   1.000  C
  C47      1.0000 0.48370  0.48890  0.79460  Biso   1.000  C
  C48      1.0000 0.01630  0.98890  0.70540  Biso   1.000  C
  H41      1.0000 0.44860  0.53100  0.12400  Biso   1.000  H
  H42      1.0000 0.05140  0.03100  0.37600  Biso   1.000  H
  H43      1.0000 0.55140  0.46900  0.87600  Biso   1.000  H
  H44      1.0000 0.94860  0.96900  0.62400  Biso   1.000  H
  H45      1.0000 0.60820  0.52740  0.19730  Biso   1.000  H
  H46      1.0000 0.89180  0.02740  0.30270  Biso   1.000  H
  H47      1.0000 0.39180  0.47260  0.80270  Biso   1.000  H
  H48      1.0000 0.10820  0.97260  0.69730  Biso   1.000  H
