data_image0
_cell_length_a       10.8336
_cell_length_b       12.1408
_cell_length_c       21.585
_cell_angle_alpha    90
_cell_angle_beta     90
_cell_angle_gamma    90

_symmetry_space_group_name_H-M    "P 1"
_symmetry_int_tables_number       1

loop_
  _symmetry_equiv_pos_as_xyz
  'x, y, z'

loop_
  _atom_site_label
  _atom_site_occupancy
  _atom_site_fract_x
  _atom_site_fract_y
  _atom_site_fract_z
  _atom_site_thermal_displace_type
  _atom_site_B_iso_or_equiv
  _atom_site_type_symbol
  Cu1      1.0000 0.87713  0.71662  0.78265  Biso   1.000  Cu
  Cu2      1.0000 0.12287  0.28338  0.28265  Biso   1.000  Cu
  Cu3      1.0000 0.37713  0.28338  0.78265  Biso   1.000  Cu
  Cu4      1.0000 0.62287  0.71662  0.28265  Biso   1.000  Cu
  S1       1.0000 0.36544  0.48883  0.94110  Biso   1.000  S
  S2       1.0000 0.63456  0.51117  0.44110  Biso   1.000  S
  S3       1.0000 0.86544  0.51117  0.94110  Biso   1.000  S
  S4       1.0000 0.13456  0.48883  0.44110  Biso   1.000  S
  O1       1.0000 0.70500  0.68510  0.80010  Biso   1.000  O
  O2       1.0000 0.29500  0.31490  0.30010  Biso   1.000  O
  O3       1.0000 0.20500  0.31490  0.80010  Biso   1.000  O
  O4       1.0000 0.79500  0.68510  0.30010  Biso   1.000  O
  O5       1.0000 0.61270  0.83160  0.75700  Biso   1.000  O
  O6       1.0000 0.38730  0.16840  0.25700  Biso   1.000  O
  O7       1.0000 0.11270  0.16840  0.75700  Biso   1.000  O
  O8       1.0000 0.88730  0.83160  0.25700  Biso   1.000  O
  O9       1.0000 0.39630  0.55580  0.99550  Biso   1.000  O
  O10      1.0000 0.60370  0.44420  0.49550  Biso   1.000  O
  O11      1.0000 0.89630  0.44420  0.99550  Biso   1.000  O
  O12      1.0000 0.10370  0.55580  0.49550  Biso   1.000  O
  O13      1.0000 0.45730  0.40630  0.92840  Biso   1.000  O
  O14      1.0000 0.54270  0.59370  0.42840  Biso   1.000  O
  O15      1.0000 0.95730  0.59370  0.92840  Biso   1.000  O
  O16      1.0000 0.04270  0.40630  0.42840  Biso   1.000  O
  O17      1.0000 0.23880  0.45110  0.94420  Biso   1.000  O
  O18      1.0000 0.76120  0.54890  0.44420  Biso   1.000  O
  O19      1.0000 0.73880  0.54890  0.94420  Biso   1.000  O
  O20      1.0000 0.26120  0.45110  0.44420  Biso   1.000  O
  O21      1.0000 0.05250  0.68690  0.79470  Biso   1.000  O
  O22      1.0000 0.94750  0.31310  0.29470  Biso   1.000  O
  O23      1.0000 0.55250  0.31310  0.79470  Biso   1.000  O
  O24      1.0000 0.44750  0.68690  0.29470  Biso   1.000  O
  O25      1.0000 0.15120  0.80130  0.73040  Biso   1.000  O
  O26      1.0000 0.84880  0.19870  0.23040  Biso   1.000  O
  O27      1.0000 0.65120  0.19870  0.73040  Biso   1.000  O
  O28      1.0000 0.34880  0.80130  0.23040  Biso   1.000  O
  O29      1.0000 0.91080  0.84830  0.70320  Biso   1.000  O
  O30      1.0000 0.08920  0.15170  0.20320  Biso   1.000  O
  O31      1.0000 0.41080  0.15170  0.70320  Biso   1.000  O
  O32      1.0000 0.58920  0.84830  0.20320  Biso   1.000  O
  H1       1.0000 0.87100  0.82900  0.73500  Biso   1.000  H
  H2       1.0000 0.12900  0.17100  0.23500  Biso   1.000  H
  H3       1.0000 0.37100  0.17100  0.73500  Biso   1.000  H
  H4       1.0000 0.62900  0.82900  0.23500  Biso   1.000  H
  H5       1.0000 0.98830  0.85100  0.70600  Biso   1.000  H
  H6       1.0000 0.01170  0.14900  0.20600  Biso   1.000  H
  H7       1.0000 0.48830  0.14900  0.70600  Biso   1.000  H
  H8       1.0000 0.51170  0.85100  0.20600  Biso   1.000  H
  N1       1.0000 0.88920  0.82690  0.85130  Biso   1.000  N
  N2       1.0000 0.11080  0.17310  0.35130  Biso   1.000  N
  N3       1.0000 0.38920  0.17310  0.85130  Biso   1.000  N
  N4       1.0000 0.61080  0.82690  0.35130  Biso   1.000  N
  N5       1.0000 0.62500  0.60350  0.21400  Biso   1.000  N
  N6       1.0000 0.37500  0.39650  0.71400  Biso   1.000  N
  N7       1.0000 0.12500  0.39650  0.21400  Biso   1.000  N
  N8       1.0000 0.87500  0.60350  0.71400  Biso   1.000  N
  N9       1.0000 0.70580  0.31630  0.04330  Biso   1.000  N
  N10      1.0000 0.29420  0.68370  0.54330  Biso   1.000  N
  N11      1.0000 0.20580  0.68370  0.04330  Biso   1.000  N
  N12      1.0000 0.79420  0.31630  0.54330  Biso   1.000  N
  H9       1.0000 0.73100  0.37400  0.02800  Biso   1.000  H
  H10      1.0000 0.26900  0.62600  0.52800  Biso   1.000  H
  H11      1.0000 0.23100  0.62600  0.02800  Biso   1.000  H
  H12      1.0000 0.76900  0.37400  0.52800  Biso   1.000  H
  N13      1.0000 0.82880  0.10830  0.02220  Biso   1.000  N
  N14      1.0000 0.17120  0.89170  0.52220  Biso   1.000  N
  N15      1.0000 0.32880  0.89170  0.02220  Biso   1.000  N
  N16      1.0000 0.67120  0.10830  0.52220  Biso   1.000  N
  C1       1.0000 0.61060  0.74430  0.78760  Biso   1.000  C
  C2       1.0000 0.38940  0.25570  0.28760  Biso   1.000  C
  C3       1.0000 0.11060  0.25570  0.78760  Biso   1.000  C
  C4       1.0000 0.88940  0.74430  0.28760  Biso   1.000  C
  C5       1.0000 0.48820  0.70160  0.81060  Biso   1.000  C
  C6       1.0000 0.51180  0.29840  0.31060  Biso   1.000  C
  C7       1.0000 0.98820  0.29840  0.81060  Biso   1.000  C
  C8       1.0000 0.01180  0.70160  0.31060  Biso   1.000  C
  C9       1.0000 0.48630  0.62260  0.85820  Biso   1.000  C
  C10      1.0000 0.51370  0.37740  0.35820  Biso   1.000  C
  C11      1.0000 0.98630  0.37740  0.85820  Biso   1.000  C
  C12      1.0000 0.01370  0.62260  0.35820  Biso   1.000  C
  H13      1.0000 0.56060  0.59740  0.87690  Biso   1.000  H
  H14      1.0000 0.43940  0.40260  0.37690  Biso   1.000  H
  H15      1.0000 0.06060  0.40260  0.87690  Biso   1.000  H
  H16      1.0000 0.93940  0.59740  0.37690  Biso   1.000  H
  C13      1.0000 0.37210  0.58270  0.87710  Biso   1.000  C
  C14      1.0000 0.62790  0.41730  0.37710  Biso   1.000  C
  C15      1.0000 0.87210  0.41730  0.87710  Biso   1.000  C
  C16      1.0000 0.12790  0.58270  0.37710  Biso   1.000  C
  C17      1.0000 0.26540  0.61460  0.84850  Biso   1.000  C
  C18      1.0000 0.73460  0.38540  0.34850  Biso   1.000  C
  C19      1.0000 0.76540  0.38540  0.84850  Biso   1.000  C
  C20      1.0000 0.23460  0.61460  0.34850  Biso   1.000  C
  H17      1.0000 0.18910  0.58280  0.86070  Biso   1.000  H
  H18      1.0000 0.81090  0.41720  0.36070  Biso   1.000  H
  H19      1.0000 0.68910  0.41720  0.86070  Biso   1.000  H
  H20      1.0000 0.31090  0.58280  0.36070  Biso   1.000  H
  C21      1.0000 0.26760  0.69290  0.80190  Biso   1.000  C
  C22      1.0000 0.73240  0.30710  0.30190  Biso   1.000  C
  C23      1.0000 0.76760  0.30710  0.80190  Biso   1.000  C
  C24      1.0000 0.23240  0.69290  0.30190  Biso   1.000  C
  C25      1.0000 0.38260  0.73660  0.78380  Biso   1.000  C
  C26      1.0000 0.61740  0.26340  0.28380  Biso   1.000  C
  C27      1.0000 0.88260  0.26340  0.78380  Biso   1.000  C
  C28      1.0000 0.11740  0.73660  0.28380  Biso   1.000  C
  H21      1.0000 0.38580  0.79140  0.75250  Biso   1.000  H
  H22      1.0000 0.61420  0.20860  0.25250  Biso   1.000  H
  H23      1.0000 0.88580  0.20860  0.75250  Biso   1.000  H
  H24      1.0000 0.11420  0.79140  0.25250  Biso   1.000  H
  C29      1.0000 0.14880  0.72970  0.77270  Biso   1.000  C
  C30      1.0000 0.85120  0.27030  0.27270  Biso   1.000  C
  C31      1.0000 0.64880  0.27030  0.77270  Biso   1.000  C
  C32      1.0000 0.35120  0.72970  0.27270  Biso   1.000  C
  C33      1.0000 0.97100  0.90770  0.84980  Biso   1.000  C
  C34      1.0000 0.02900  0.09230  0.34980  Biso   1.000  C
  C35      1.0000 0.47100  0.09230  0.84980  Biso   1.000  C
  C36      1.0000 0.52900  0.90770  0.34980  Biso   1.000  C
  H25      1.0000 0.01970  0.91560  0.81340  Biso   1.000  H
  H26      1.0000 0.98030  0.08440  0.31340  Biso   1.000  H
  H27      1.0000 0.51970  0.08440  0.81340  Biso   1.000  H
  H28      1.0000 0.48030  0.91560  0.31340  Biso   1.000  H
  C37      1.0000 0.82100  0.81850  0.90320  Biso   1.000  C
  C38      1.0000 0.17900  0.18150  0.40320  Biso   1.000  C
  C39      1.0000 0.32100  0.18150  0.90320  Biso   1.000  C
  C40      1.0000 0.67900  0.81850  0.40320  Biso   1.000  C
  H29      1.0000 0.76090  0.76160  0.90540  Biso   1.000  H
  H30      1.0000 0.23910  0.23840  0.40540  Biso   1.000  H
  H31      1.0000 0.26090  0.23840  0.90540  Biso   1.000  H
  H32      1.0000 0.73910  0.76160  0.40540  Biso   1.000  H
  C41      1.0000 0.99020  0.98170  0.89790  Biso   1.000  C
  C42      1.0000 0.00980  0.01830  0.39790  Biso   1.000  C
  C43      1.0000 0.49020  0.01830  0.89790  Biso   1.000  C
  C44      1.0000 0.50980  0.98170  0.39790  Biso   1.000  C
  H33      1.0000 0.05010  0.03840  0.89380  Biso   1.000  H
  H34      1.0000 0.94990  0.96160  0.39380  Biso   1.000  H
  H35      1.0000 0.55010  0.96160  0.89380  Biso   1.000  H
  H36      1.0000 0.44990  0.03840  0.39380  Biso   1.000  H
  C45      1.0000 0.92220  0.97240  0.95120  Biso   1.000  C
  C46      1.0000 0.07780  0.02760  0.45120  Biso   1.000  C
  C47      1.0000 0.42220  0.02760  0.95120  Biso   1.000  C
  C48      1.0000 0.57780  0.97240  0.45120  Biso   1.000  C
  C49      1.0000 0.54900  0.51770  0.21350  Biso   1.000  C
  C50      1.0000 0.45100  0.48230  0.71350  Biso   1.000  C
  C51      1.0000 0.04900  0.48230  0.21350  Biso   1.000  C
  C52      1.0000 0.95100  0.51770  0.71350  Biso   1.000  C
  H37      1.0000 0.49720  0.50610  0.24830  Biso   1.000  H
  H38      1.0000 0.50280  0.49390  0.74830  Biso   1.000  H
  H39      1.0000 0.99720  0.49390  0.24830  Biso   1.000  H
  H40      1.0000 0.00280  0.50610  0.74830  Biso   1.000  H
  C53      1.0000 0.54170  0.44470  0.16460  Biso   1.000  C
  C54      1.0000 0.45830  0.55530  0.66460  Biso   1.000  C
  C55      1.0000 0.04170  0.55530  0.16460  Biso   1.000  C
  C56      1.0000 0.95830  0.44470  0.66460  Biso   1.000  C
  H41      1.0000 0.48510  0.38490  0.16640  Biso   1.000  H
  H42      1.0000 0.51490  0.61510  0.66640  Biso   1.000  H
  H43      1.0000 0.98510  0.61510  0.16640  Biso   1.000  H
  H44      1.0000 0.01490  0.38490  0.66640  Biso   1.000  H
  C57      1.0000 0.61470  0.45780  0.11410  Biso   1.000  C
  C58      1.0000 0.38530  0.54220  0.61410  Biso   1.000  C
  C59      1.0000 0.11470  0.54220  0.11410  Biso   1.000  C
  C60      1.0000 0.88530  0.45780  0.61410  Biso   1.000  C
  C61      1.0000 0.59580  0.38520  0.05810  Biso   1.000  C
  C62      1.0000 0.40420  0.61480  0.55810  Biso   1.000  C
  C63      1.0000 0.09580  0.61480  0.05810  Biso   1.000  C
  C64      1.0000 0.90420  0.38520  0.55810  Biso   1.000  C
  H45      1.0000 0.52410  0.33640  0.06550  Biso   1.000  H
  H46      1.0000 0.47590  0.66360  0.56550  Biso   1.000  H
  H47      1.0000 0.02410  0.66360  0.06550  Biso   1.000  H
  H48      1.0000 0.97590  0.33640  0.56550  Biso   1.000  H
  H49      1.0000 0.57620  0.43210  0.02180  Biso   1.000  H
  H50      1.0000 0.42380  0.56790  0.52180  Biso   1.000  H
  H51      1.0000 0.07620  0.56790  0.02180  Biso   1.000  H
  H52      1.0000 0.92380  0.43210  0.52180  Biso   1.000  H
  C65      1.0000 0.85730  0.17590  0.07620  Biso   1.000  C
  C66      1.0000 0.14270  0.82410  0.57620  Biso   1.000  C
  C67      1.0000 0.35730  0.82410  0.07620  Biso   1.000  C
  C68      1.0000 0.64270  0.17590  0.57620  Biso   1.000  C
  H53      1.0000 0.92600  0.22670  0.06600  Biso   1.000  H
  H54      1.0000 0.07400  0.77330  0.56600  Biso   1.000  H
  H55      1.0000 0.42600  0.77330  0.06600  Biso   1.000  H
  H56      1.0000 0.57400  0.22670  0.56600  Biso   1.000  H
  H57      1.0000 0.88460  0.12790  0.11060  Biso   1.000  H
  H58      1.0000 0.11540  0.87210  0.61060  Biso   1.000  H
  H59      1.0000 0.38460  0.87210  0.11060  Biso   1.000  H
  H60      1.0000 0.61540  0.12790  0.61060  Biso   1.000  H
  C69      1.0000 0.74610  0.24220  0.09660  Biso   1.000  C
  C70      1.0000 0.25390  0.75780  0.59660  Biso   1.000  C
  C71      1.0000 0.24610  0.75780  0.09660  Biso   1.000  C
  C72      1.0000 0.75390  0.24220  0.59660  Biso   1.000  C
  H61      1.0000 0.76750  0.28750  0.13310  Biso   1.000  H
  H62      1.0000 0.23250  0.71250  0.63310  Biso   1.000  H
  H63      1.0000 0.26750  0.71250  0.13310  Biso   1.000  H
  H64      1.0000 0.73250  0.28750  0.63310  Biso   1.000  H
  H65      1.0000 0.67790  0.19200  0.10820  Biso   1.000  H
  H66      1.0000 0.32210  0.80800  0.60820  Biso   1.000  H
  H67      1.0000 0.17790  0.80800  0.10820  Biso   1.000  H
  H68      1.0000 0.82210  0.19200  0.60820  Biso   1.000  H
  C73      1.0000 0.78990  0.17760  0.97110  Biso   1.000  C
  C74      1.0000 0.21010  0.82240  0.47110  Biso   1.000  C
  C75      1.0000 0.28990  0.82240  0.97110  Biso   1.000  C
  C76      1.0000 0.71010  0.17760  0.47110  Biso   1.000  C
  H69      1.0000 0.77110  0.13100  0.93470  Biso   1.000  H
  H70      1.0000 0.22890  0.86900  0.43470  Biso   1.000  H
  H71      1.0000 0.27110  0.86900  0.93470  Biso   1.000  H
  H72      1.0000 0.72890  0.13100  0.43470  Biso   1.000  H
  H73      1.0000 0.85780  0.22810  0.95970  Biso   1.000  H
  H74      1.0000 0.14220  0.77190  0.45970  Biso   1.000  H
  H75      1.0000 0.35780  0.77190  0.95970  Biso   1.000  H
  H76      1.0000 0.64220  0.22810  0.45970  Biso   1.000  H
  C77      1.0000 0.67750  0.24360  0.98820  Biso   1.000  C
  C78      1.0000 0.32250  0.75640  0.48820  Biso   1.000  C
  C79      1.0000 0.17750  0.75640  0.98820  Biso   1.000  C
  C80      1.0000 0.82250  0.24360  0.48820  Biso   1.000  C
  H77      1.0000 0.60850  0.19340  0.99840  Biso   1.000  H
  H78      1.0000 0.39150  0.80660  0.49840  Biso   1.000  H
  H79      1.0000 0.10850  0.80660  0.99840  Biso   1.000  H
  H80      1.0000 0.89150  0.19340  0.49840  Biso   1.000  H
  H81      1.0000 0.65210  0.28980  0.95260  Biso   1.000  H
  H82      1.0000 0.34790  0.71020  0.45260  Biso   1.000  H
  H83      1.0000 0.15210  0.71020  0.95260  Biso   1.000  H
  H84      1.0000 0.84790  0.28980  0.45260  Biso   1.000  H
  C81      1.0000 0.94290  0.04440  0.00580  Biso   1.000  C
  C82      1.0000 0.05710  0.95560  0.50580  Biso   1.000  C
  C83      1.0000 0.44290  0.95560  0.00580  Biso   1.000  C
  C84      1.0000 0.55710  0.04440  0.50580  Biso   1.000  C
  H85      1.0000 0.01100  0.09630  0.99680  Biso   1.000  H
  H86      1.0000 0.98900  0.90370  0.49680  Biso   1.000  H
  H87      1.0000 0.51100  0.90370  0.99680  Biso   1.000  H
  H88      1.0000 0.48900  0.09630  0.49680  Biso   1.000  H
  H89      1.0000 0.96780  0.99860  0.04160  Biso   1.000  H
  H90      1.0000 0.03220  0.00140  0.54160  Biso   1.000  H
  H91      1.0000 0.46780  0.00140  0.04160  Biso   1.000  H
  H92      1.0000 0.53220  0.99860  0.54160  Biso   1.000  H
  C85      1.0000 0.83350  0.88800  0.95350  Biso   1.000  C
  C86      1.0000 0.16650  0.11200  0.45350  Biso   1.000  C
  C87      1.0000 0.33350  0.11200  0.95350  Biso   1.000  C
  C88      1.0000 0.66650  0.88800  0.45350  Biso   1.000  C
  H93      1.0000 0.78290  0.87890  0.98910  Biso   1.000  H
  H94      1.0000 0.21710  0.12110  0.48910  Biso   1.000  H
  H95      1.0000 0.28290  0.12110  0.98910  Biso   1.000  H
  H96      1.0000 0.71710  0.87890  0.48910  Biso   1.000  H
  C89      1.0000 0.69420  0.54510  0.11540  Biso   1.000  C
  C90      1.0000 0.30580  0.45490  0.61540  Biso   1.000  C
  C91      1.0000 0.19420  0.45490  0.11540  Biso   1.000  C
  C92      1.0000 0.80580  0.54510  0.61540  Biso   1.000  C
  H97      1.0000 0.74830  0.55820  0.08150  Biso   1.000  H
  H98      1.0000 0.25170  0.44180  0.58150  Biso   1.000  H
  H99      1.0000 0.24830  0.44180  0.08150  Biso   1.000  H
  H100     1.0000 0.75170  0.55820  0.58150  Biso   1.000  H
  C93      1.0000 0.69580  0.61330  0.16540  Biso   1.000  C
  C94      1.0000 0.30420  0.38670  0.66540  Biso   1.000  C
  C95      1.0000 0.19580  0.38670  0.16540  Biso   1.000  C
  C96      1.0000 0.80420  0.61330  0.66540  Biso   1.000  C
  H101     1.0000 0.75280  0.67270  0.16490  Biso   1.000  H
  H102     1.0000 0.24720  0.32730  0.66490  Biso   1.000  H
  H103     1.0000 0.25280  0.32730  0.16490  Biso   1.000  H
  H104     1.0000 0.74720  0.67270  0.66490  Biso   1.000  H
  O33      1.0000 0.55110  0.83390  0.62710  Biso   1.000  O
  O34      1.0000 0.44890  0.16610  0.12710  Biso   1.000  O
  O35      1.0000 0.05110  0.16610  0.62710  Biso   1.000  O
  O36      1.0000 0.94890  0.83390  0.12710  Biso   1.000  O
  H105     1.0000 0.56400  0.82100  0.66540  Biso   1.000  H
  H106     1.0000 0.43600  0.17900  0.16540  Biso   1.000  H
  H107     1.0000 0.06400  0.17900  0.66540  Biso   1.000  H
  H108     1.0000 0.93600  0.82100  0.16540  Biso   1.000  H
  H109     1.0000 0.62010  0.86190  0.61610  Biso   1.000  H
  H110     1.0000 0.37990  0.13810  0.11610  Biso   1.000  H
  H111     1.0000 0.12010  0.13810  0.61610  Biso   1.000  H
  H112     1.0000 0.87990  0.86190  0.11610  Biso   1.000  H
  O37      1.0000 0.77320  0.00180  0.75500  Biso   1.000  O
  O38      1.0000 0.22680  0.99820  0.25500  Biso   1.000  O
  O39      1.0000 0.27320  0.99820  0.75500  Biso   1.000  O
  O40      1.0000 0.72680  0.00180  0.25500  Biso   1.000  O
  H113     1.0000 0.73570  0.06190  0.74750  Biso   1.000  H
  H114     1.0000 0.26430  0.93810  0.24750  Biso   1.000  H
  H115     1.0000 0.23570  0.93810  0.74750  Biso   1.000  H
  H116     1.0000 0.76430  0.06190  0.24750  Biso   1.000  H
  H117     1.0000 0.75500  0.95500  0.72600  Biso   1.000  H
  H118     1.0000 0.24500  0.04500  0.22600  Biso   1.000  H
  H119     1.0000 0.25500  0.04500  0.72600  Biso   1.000  H
  H120     1.0000 0.74500  0.95500  0.22600  Biso   1.000  H
  O41      1.0000 0.10520  0.29730  0.99900  Biso   1.000  O
  O42      1.0000 0.89480  0.70270  0.49900  Biso   1.000  O
  O43      1.0000 0.60520  0.70270  0.99900  Biso   1.000  O
  O44      1.0000 0.39480  0.29730  0.49900  Biso   1.000  O
  O45      1.0000 0.79150  0.91260  0.58920  Biso   1.000  O
  O46      1.0000 0.20850  0.08740  0.08920  Biso   1.000  O
  O47      1.0000 0.29150  0.08740  0.58920  Biso   1.000  O
  O48      1.0000 0.70850  0.91260  0.08920  Biso   1.000  O
  O49      1.0000 0.78590  0.82880  0.58980  Biso   1.000  O
  O50      1.0000 0.21410  0.17120  0.08980  Biso   1.000  O
  O51      1.0000 0.28590  0.17120  0.58980  Biso   1.000  O
  O52      1.0000 0.71410  0.82880  0.08980  Biso   1.000  O
