data_image0
_cell_length_a       25.503
_cell_length_b       10.0788
_cell_length_c       24.478
_cell_angle_alpha    90
_cell_angle_beta     98.66
_cell_angle_gamma    90

_symmetry_space_group_name_H-M    "P 1"
_symmetry_int_tables_number       1

loop_
  _symmetry_equiv_pos_as_xyz
  'x, y, z'

loop_
  _atom_site_label
  _atom_site_occupancy
  _atom_site_fract_x
  _atom_site_fract_y
  _atom_site_fract_z
  _atom_site_thermal_displace_type
  _atom_site_B_iso_or_equiv
  _atom_site_type_symbol
  Cu1      1.0000 0.46461  0.64824  0.04081  Biso   1.000  Cu
  Cu2      1.0000 0.53539  0.64824  0.45919  Biso   1.000  Cu
  Cu3      1.0000 0.96461  0.14824  0.04081  Biso   1.000  Cu
  Cu4      1.0000 0.03539  0.14824  0.45919  Biso   1.000  Cu
  Cu5      1.0000 0.53539  0.35176  0.95919  Biso   1.000  Cu
  Cu6      1.0000 0.46461  0.35176  0.54081  Biso   1.000  Cu
  Cu7      1.0000 0.03539  0.85176  0.95919  Biso   1.000  Cu
  Cu8      1.0000 0.96461  0.85176  0.54081  Biso   1.000  Cu
  S1       1.0000 0.35154  0.20574  0.21201  Biso   1.000  S
  S2       1.0000 0.64846  0.20574  0.28799  Biso   1.000  S
  S3       1.0000 0.85154  0.70574  0.21201  Biso   1.000  S
  S4       1.0000 0.14846  0.70574  0.28799  Biso   1.000  S
  S5       1.0000 0.64846  0.79426  0.78799  Biso   1.000  S
  S6       1.0000 0.35154  0.79426  0.71201  Biso   1.000  S
  S7       1.0000 0.14846  0.29426  0.78799  Biso   1.000  S
  S8       1.0000 0.85154  0.29426  0.71201  Biso   1.000  S
  O1       1.0000 0.36530  0.10710  0.25445  Biso   1.000  O
  O2       1.0000 0.63470  0.10710  0.24555  Biso   1.000  O
  O3       1.0000 0.86530  0.60710  0.25445  Biso   1.000  O
  O4       1.0000 0.13470  0.60710  0.24555  Biso   1.000  O
  O5       1.0000 0.63470  0.89290  0.74555  Biso   1.000  O
  O6       1.0000 0.36530  0.89290  0.75445  Biso   1.000  O
  O7       1.0000 0.13470  0.39290  0.74555  Biso   1.000  O
  O8       1.0000 0.86530  0.39290  0.75445  Biso   1.000  O
  O9       1.0000 0.29743  0.18930  0.18531  Biso   1.000  O
  O10      1.0000 0.70257  0.18930  0.31469  Biso   1.000  O
  O11      1.0000 0.79743  0.68930  0.18531  Biso   1.000  O
  O12      1.0000 0.20257  0.68930  0.31469  Biso   1.000  O
  O13      1.0000 0.70257  0.81070  0.81469  Biso   1.000  O
  O14      1.0000 0.29743  0.81070  0.68531  Biso   1.000  O
  O15      1.0000 0.20257  0.31070  0.81469  Biso   1.000  O
  O16      1.0000 0.79743  0.31070  0.68531  Biso   1.000  O
  O17      1.0000 0.36298  0.33990  0.23001  Biso   1.000  O
  O18      1.0000 0.63702  0.33990  0.26999  Biso   1.000  O
  O19      1.0000 0.86298  0.83990  0.23001  Biso   1.000  O
  O20      1.0000 0.13702  0.83990  0.26999  Biso   1.000  O
  O21      1.0000 0.63702  0.66010  0.76999  Biso   1.000  O
  O22      1.0000 0.36298  0.66010  0.73001  Biso   1.000  O
  O23      1.0000 0.13702  0.16010  0.76999  Biso   1.000  O
  O24      1.0000 0.86298  0.16010  0.73001  Biso   1.000  O
  O25      1.0000 0.44070  0.47510  0.06468  Biso   1.000  O
  O26      1.0000 0.55930  0.47510  0.43532  Biso   1.000  O
  O27      1.0000 0.94070  0.97510  0.06468  Biso   1.000  O
  O28      1.0000 0.05930  0.97510  0.43532  Biso   1.000  O
  O29      1.0000 0.55930  0.52490  0.93532  Biso   1.000  O
  O30      1.0000 0.44070  0.52490  0.56468  Biso   1.000  O
  O31      1.0000 0.05930  0.02490  0.93532  Biso   1.000  O
  O32      1.0000 0.94070  0.02490  0.56468  Biso   1.000  O
  O33      1.0000 0.46527  0.85060  0.04982  Biso   1.000  O
  O34      1.0000 0.53473  0.85060  0.45018  Biso   1.000  O
  O35      1.0000 0.96527  0.35060  0.04982  Biso   1.000  O
  O36      1.0000 0.03473  0.35060  0.45018  Biso   1.000  O
  O37      1.0000 0.53473  0.14940  0.95018  Biso   1.000  O
  O38      1.0000 0.46527  0.14940  0.54982  Biso   1.000  O
  O39      1.0000 0.03473  0.64940  0.95018  Biso   1.000  O
  O40      1.0000 0.96527  0.64940  0.54982  Biso   1.000  O
  O41      1.0000 0.43106  0.78290  0.12225  Biso   1.000  O
  O42      1.0000 0.56894  0.78290  0.37775  Biso   1.000  O
  O43      1.0000 0.93106  0.28290  0.12225  Biso   1.000  O
  O44      1.0000 0.06894  0.28290  0.37775  Biso   1.000  O
  O45      1.0000 0.56894  0.21710  0.87775  Biso   1.000  O
  O46      1.0000 0.43106  0.21710  0.62225  Biso   1.000  O
  O47      1.0000 0.06894  0.71710  0.87775  Biso   1.000  O
  O48      1.0000 0.93106  0.71710  0.62225  Biso   1.000  O
  O49      1.0000 0.49754  0.33780  0.03201  Biso   1.000  O
  O50      1.0000 0.50246  0.33780  0.46799  Biso   1.000  O
  O51      1.0000 0.99754  0.83780  0.03201  Biso   1.000  O
  O52      1.0000 0.00246  0.83780  0.46799  Biso   1.000  O
  O53      1.0000 0.50246  0.66220  0.96799  Biso   1.000  O
  O54      1.0000 0.49754  0.66220  0.53201  Biso   1.000  O
  O55      1.0000 0.00246  0.16220  0.96799  Biso   1.000  O
  O56      1.0000 0.99754  0.16220  0.53201  Biso   1.000  O
  N1       1.0000 0.39344  0.66220  0.99312  Biso   1.000  N
  N2       1.0000 0.60656  0.66220  0.50688  Biso   1.000  N
  N3       1.0000 0.89344  0.16220  0.99312  Biso   1.000  N
  N4       1.0000 0.10656  0.16220  0.50688  Biso   1.000  N
  N5       1.0000 0.60656  0.33780  0.00688  Biso   1.000  N
  N6       1.0000 0.39344  0.33780  0.49312  Biso   1.000  N
  N7       1.0000 0.10656  0.83780  0.00688  Biso   1.000  N
  N8       1.0000 0.89344  0.83780  0.49312  Biso   1.000  N
  N9       1.0000 0.23641  0.73320  0.83928  Biso   1.000  N
  N10      1.0000 0.76359  0.73320  0.66072  Biso   1.000  N
  N11      1.0000 0.73641  0.23320  0.83928  Biso   1.000  N
  N12      1.0000 0.26359  0.23320  0.66072  Biso   1.000  N
  N13      1.0000 0.76359  0.26680  0.16072  Biso   1.000  N
  N14      1.0000 0.23641  0.26680  0.33928  Biso   1.000  N
  N15      1.0000 0.26359  0.76680  0.16072  Biso   1.000  N
  N16      1.0000 0.73641  0.76680  0.33928  Biso   1.000  N
  N17      1.0000 0.18446  0.89450  0.74938  Biso   1.000  N
  N18      1.0000 0.81554  0.89450  0.75062  Biso   1.000  N
  N19      1.0000 0.68446  0.39450  0.74938  Biso   1.000  N
  N20      1.0000 0.31554  0.39450  0.75062  Biso   1.000  N
  N21      1.0000 0.81554  0.10550  0.25062  Biso   1.000  N
  N22      1.0000 0.18446  0.10550  0.24938  Biso   1.000  N
  N23      1.0000 0.31554  0.60550  0.25062  Biso   1.000  N
  N24      1.0000 0.68446  0.60550  0.24938  Biso   1.000  N
  H1       1.0000 0.15880  0.90700  0.76300  Biso   1.000  H
  H2       1.0000 0.84120  0.90700  0.73700  Biso   1.000  H
  H3       1.0000 0.65880  0.40700  0.76300  Biso   1.000  H
  H4       1.0000 0.34120  0.40700  0.73700  Biso   1.000  H
  H5       1.0000 0.84120  0.09300  0.23700  Biso   1.000  H
  H6       1.0000 0.15880  0.09300  0.26300  Biso   1.000  H
  H7       1.0000 0.34120  0.59300  0.23700  Biso   1.000  H
  H8       1.0000 0.65880  0.59300  0.26300  Biso   1.000  H
  N25      1.0000 0.03501  0.87440  0.59001  Biso   1.000  N
  N26      1.0000 0.96499  0.87440  0.90999  Biso   1.000  N
  N27      1.0000 0.53501  0.37440  0.59001  Biso   1.000  N
  N28      1.0000 0.46499  0.37440  0.90999  Biso   1.000  N
  N29      1.0000 0.96499  0.12560  0.40999  Biso   1.000  N
  N30      1.0000 0.03501  0.12560  0.09001  Biso   1.000  N
  N31      1.0000 0.46499  0.62560  0.40999  Biso   1.000  N
  N32      1.0000 0.53501  0.62560  0.09001  Biso   1.000  N
  C1       1.0000 0.38708  0.70980  0.94144  Biso   1.000  C
  C2       1.0000 0.61292  0.70980  0.55856  Biso   1.000  C
  C3       1.0000 0.88708  0.20980  0.94144  Biso   1.000  C
  C4       1.0000 0.11292  0.20980  0.55856  Biso   1.000  C
  C5       1.0000 0.61292  0.29020  0.05856  Biso   1.000  C
  C6       1.0000 0.38708  0.29020  0.44144  Biso   1.000  C
  C7       1.0000 0.11292  0.79020  0.05856  Biso   1.000  C
  C8       1.0000 0.88708  0.79020  0.44144  Biso   1.000  C
  H9       1.0000 0.41750  0.74120  0.92730  Biso   1.000  H
  H10      1.0000 0.58250  0.74120  0.57270  Biso   1.000  H
  H11      1.0000 0.91750  0.24120  0.92730  Biso   1.000  H
  H12      1.0000 0.08250  0.24120  0.57270  Biso   1.000  H
  H13      1.0000 0.58250  0.25880  0.07270  Biso   1.000  H
  H14      1.0000 0.41750  0.25880  0.42730  Biso   1.000  H
  H15      1.0000 0.08250  0.75880  0.07270  Biso   1.000  H
  H16      1.0000 0.91750  0.75880  0.42730  Biso   1.000  H
  C9       1.0000 0.34950  0.62050  0.01248  Biso   1.000  C
  C10      1.0000 0.65050  0.62050  0.48752  Biso   1.000  C
  C11      1.0000 0.84950  0.12050  0.01248  Biso   1.000  C
  C12      1.0000 0.15050  0.12050  0.48752  Biso   1.000  C
  C13      1.0000 0.65050  0.37950  0.98752  Biso   1.000  C
  C14      1.0000 0.34950  0.37950  0.51248  Biso   1.000  C
  C15      1.0000 0.15050  0.87950  0.98752  Biso   1.000  C
  C16      1.0000 0.84950  0.87950  0.51248  Biso   1.000  C
  H17      1.0000 0.35300  0.58740  0.04920  Biso   1.000  H
  H18      1.0000 0.64700  0.58740  0.45080  Biso   1.000  H
  H19      1.0000 0.85300  0.08740  0.04920  Biso   1.000  H
  H20      1.0000 0.14700  0.08740  0.45080  Biso   1.000  H
  H21      1.0000 0.64700  0.41260  0.95080  Biso   1.000  H
  H22      1.0000 0.35300  0.41260  0.54920  Biso   1.000  H
  H23      1.0000 0.14700  0.91260  0.95080  Biso   1.000  H
  H24      1.0000 0.85300  0.91260  0.54920  Biso   1.000  H
  C17      1.0000 0.29991  0.62380  0.98163  Biso   1.000  C
  C18      1.0000 0.70009  0.62380  0.51837  Biso   1.000  C
  C19      1.0000 0.79991  0.12380  0.98163  Biso   1.000  C
  C20      1.0000 0.20009  0.12380  0.51837  Biso   1.000  C
  C21      1.0000 0.70009  0.37620  0.01837  Biso   1.000  C
  C22      1.0000 0.29991  0.37620  0.48163  Biso   1.000  C
  C23      1.0000 0.20009  0.87620  0.01837  Biso   1.000  C
  C24      1.0000 0.79991  0.87620  0.48163  Biso   1.000  C
  H25      1.0000 0.27010  0.59380  0.99720  Biso   1.000  H
  H26      1.0000 0.72990  0.59380  0.50280  Biso   1.000  H
  H27      1.0000 0.77010  0.09380  0.99720  Biso   1.000  H
  H28      1.0000 0.22990  0.09380  0.50280  Biso   1.000  H
  H29      1.0000 0.72990  0.40620  0.00280  Biso   1.000  H
  H30      1.0000 0.27010  0.40620  0.49720  Biso   1.000  H
  H31      1.0000 0.22990  0.90620  0.00280  Biso   1.000  H
  H32      1.0000 0.77010  0.90620  0.49720  Biso   1.000  H
  C25      1.0000 0.33863  0.71560  0.90764  Biso   1.000  C
  C26      1.0000 0.66137  0.71560  0.59236  Biso   1.000  C
  C27      1.0000 0.83863  0.21560  0.90764  Biso   1.000  C
  C28      1.0000 0.16137  0.21560  0.59236  Biso   1.000  C
  C29      1.0000 0.66137  0.28440  0.09236  Biso   1.000  C
  C30      1.0000 0.33863  0.28440  0.40764  Biso   1.000  C
  C31      1.0000 0.16137  0.78440  0.09236  Biso   1.000  C
  C32      1.0000 0.83863  0.78440  0.40764  Biso   1.000  C
  H33      1.0000 0.33630  0.74970  0.87120  Biso   1.000  H
  H34      1.0000 0.66370  0.74970  0.62880  Biso   1.000  H
  H35      1.0000 0.83630  0.24970  0.87120  Biso   1.000  H
  H36      1.0000 0.16370  0.24970  0.62880  Biso   1.000  H
  H37      1.0000 0.66370  0.25030  0.12880  Biso   1.000  H
  H38      1.0000 0.33630  0.25030  0.37120  Biso   1.000  H
  H39      1.0000 0.16370  0.75030  0.12880  Biso   1.000  H
  H40      1.0000 0.83630  0.75030  0.37120  Biso   1.000  H
  C33      1.0000 0.29333  0.67120  0.92726  Biso   1.000  C
  C34      1.0000 0.70667  0.67120  0.57274  Biso   1.000  C
  C35      1.0000 0.79333  0.17120  0.92726  Biso   1.000  C
  C36      1.0000 0.20667  0.17120  0.57274  Biso   1.000  C
  C37      1.0000 0.70667  0.32880  0.07274  Biso   1.000  C
  C38      1.0000 0.29333  0.32880  0.42726  Biso   1.000  C
  C39      1.0000 0.20667  0.82880  0.07274  Biso   1.000  C
  C40      1.0000 0.79333  0.82880  0.42726  Biso   1.000  C
  C41      1.0000 0.24002  0.66440  0.89239  Biso   1.000  C
  C42      1.0000 0.75998  0.66440  0.60761  Biso   1.000  C
  C43      1.0000 0.74002  0.16440  0.89239  Biso   1.000  C
  C44      1.0000 0.25998  0.16440  0.60761  Biso   1.000  C
  C45      1.0000 0.75998  0.33560  0.10761  Biso   1.000  C
  C46      1.0000 0.24002  0.33560  0.39239  Biso   1.000  C
  C47      1.0000 0.25998  0.83560  0.10761  Biso   1.000  C
  C48      1.0000 0.74002  0.83560  0.39239  Biso   1.000  C
  H41      1.0000 0.21350  0.70310  0.91340  Biso   1.000  H
  H42      1.0000 0.78650  0.70310  0.58660  Biso   1.000  H
  H43      1.0000 0.71350  0.20310  0.91340  Biso   1.000  H
  H44      1.0000 0.28650  0.20310  0.58660  Biso   1.000  H
  H45      1.0000 0.78650  0.29690  0.08660  Biso   1.000  H
  H46      1.0000 0.21350  0.29690  0.41340  Biso   1.000  H
  H47      1.0000 0.28650  0.79690  0.08660  Biso   1.000  H
  H48      1.0000 0.71350  0.79690  0.41340  Biso   1.000  H
  H49      1.0000 0.23060  0.57000  0.88530  Biso   1.000  H
  H50      1.0000 0.76940  0.57000  0.61470  Biso   1.000  H
  H51      1.0000 0.73060  0.07000  0.88530  Biso   1.000  H
  H52      1.0000 0.26940  0.07000  0.61470  Biso   1.000  H
  H53      1.0000 0.76940  0.43000  0.11470  Biso   1.000  H
  H54      1.0000 0.23060  0.43000  0.38530  Biso   1.000  H
  H55      1.0000 0.26940  0.93000  0.11470  Biso   1.000  H
  H56      1.0000 0.73060  0.93000  0.38530  Biso   1.000  H
  C49      1.0000 0.23133  0.87670  0.84534  Biso   1.000  C
  C50      1.0000 0.76867  0.87670  0.65466  Biso   1.000  C
  C51      1.0000 0.73133  0.37670  0.84534  Biso   1.000  C
  C52      1.0000 0.26867  0.37670  0.65466  Biso   1.000  C
  C53      1.0000 0.76867  0.12330  0.15466  Biso   1.000  C
  C54      1.0000 0.23133  0.12330  0.34534  Biso   1.000  C
  C55      1.0000 0.26867  0.62330  0.15466  Biso   1.000  C
  C56      1.0000 0.73133  0.62330  0.34534  Biso   1.000  C
  H57      1.0000 0.19830  0.89680  0.86050  Biso   1.000  H
  H58      1.0000 0.80170  0.89680  0.63950  Biso   1.000  H
  H59      1.0000 0.69830  0.39680  0.86050  Biso   1.000  H
  H60      1.0000 0.30170  0.39680  0.63950  Biso   1.000  H
  H61      1.0000 0.80170  0.10320  0.13950  Biso   1.000  H
  H62      1.0000 0.19830  0.10320  0.36050  Biso   1.000  H
  H63      1.0000 0.30170  0.60320  0.13950  Biso   1.000  H
  H64      1.0000 0.69830  0.60320  0.36050  Biso   1.000  H
  H65      1.0000 0.26170  0.91050  0.87170  Biso   1.000  H
  H66      1.0000 0.73830  0.91050  0.62830  Biso   1.000  H
  H67      1.0000 0.76170  0.41050  0.87170  Biso   1.000  H
  H68      1.0000 0.23830  0.41050  0.62830  Biso   1.000  H
  H69      1.0000 0.73830  0.08950  0.12830  Biso   1.000  H
  H70      1.0000 0.26170  0.08950  0.37170  Biso   1.000  H
  H71      1.0000 0.23830  0.58950  0.12830  Biso   1.000  H
  H72      1.0000 0.76170  0.58950  0.37170  Biso   1.000  H
  C57      1.0000 0.23000  0.94570  0.79019  Biso   1.000  C
  C58      1.0000 0.77000  0.94570  0.70981  Biso   1.000  C
  C59      1.0000 0.73000  0.44570  0.79019  Biso   1.000  C
  C60      1.0000 0.27000  0.44570  0.70981  Biso   1.000  C
  C61      1.0000 0.77000  0.05430  0.20981  Biso   1.000  C
  C62      1.0000 0.23000  0.05430  0.29019  Biso   1.000  C
  C63      1.0000 0.27000  0.55430  0.20981  Biso   1.000  C
  C64      1.0000 0.73000  0.55430  0.29019  Biso   1.000  C
  H73      1.0000 0.26380  0.92960  0.77590  Biso   1.000  H
  H74      1.0000 0.73620  0.92960  0.72410  Biso   1.000  H
  H75      1.0000 0.76380  0.42960  0.77590  Biso   1.000  H
  H76      1.0000 0.23620  0.42960  0.72410  Biso   1.000  H
  H77      1.0000 0.73620  0.07040  0.22410  Biso   1.000  H
  H78      1.0000 0.26380  0.07040  0.27590  Biso   1.000  H
  H79      1.0000 0.23620  0.57040  0.22410  Biso   1.000  H
  H80      1.0000 0.76380  0.57040  0.27590  Biso   1.000  H
  H81      1.0000 0.22610  0.04250  0.79500  Biso   1.000  H
  H82      1.0000 0.77390  0.04250  0.70500  Biso   1.000  H
  H83      1.0000 0.72610  0.54250  0.79500  Biso   1.000  H
  H84      1.0000 0.27390  0.54250  0.70500  Biso   1.000  H
  H85      1.0000 0.77390  0.95750  0.20500  Biso   1.000  H
  H86      1.0000 0.22610  0.95750  0.29500  Biso   1.000  H
  H87      1.0000 0.27390  0.45750  0.20500  Biso   1.000  H
  H88      1.0000 0.72610  0.45750  0.29500  Biso   1.000  H
  C65      1.0000 0.19067  0.68390  0.80186  Biso   1.000  C
  C66      1.0000 0.80933  0.68390  0.69814  Biso   1.000  C
  C67      1.0000 0.69067  0.18390  0.80186  Biso   1.000  C
  C68      1.0000 0.30933  0.18390  0.69814  Biso   1.000  C
  C69      1.0000 0.80933  0.31610  0.19814  Biso   1.000  C
  C70      1.0000 0.19067  0.31610  0.30186  Biso   1.000  C
  C71      1.0000 0.30933  0.81610  0.19814  Biso   1.000  C
  C72      1.0000 0.69067  0.81610  0.30186  Biso   1.000  C
  H89      1.0000 0.19340  0.58650  0.79830  Biso   1.000  H
  H90      1.0000 0.80660  0.58650  0.70170  Biso   1.000  H
  H91      1.0000 0.69340  0.08650  0.79830  Biso   1.000  H
  H92      1.0000 0.30660  0.08650  0.70170  Biso   1.000  H
  H93      1.0000 0.80660  0.41350  0.20170  Biso   1.000  H
  H94      1.0000 0.19340  0.41350  0.29830  Biso   1.000  H
  H95      1.0000 0.30660  0.91350  0.20170  Biso   1.000  H
  H96      1.0000 0.69340  0.91350  0.29830  Biso   1.000  H
  H97      1.0000 0.15790  0.70370  0.81740  Biso   1.000  H
  H98      1.0000 0.84210  0.70370  0.68260  Biso   1.000  H
  H99      1.0000 0.65790  0.20370  0.81740  Biso   1.000  H
  H100     1.0000 0.34210  0.20370  0.68260  Biso   1.000  H
  H101     1.0000 0.84210  0.29630  0.18260  Biso   1.000  H
  H102     1.0000 0.15790  0.29630  0.31740  Biso   1.000  H
  H103     1.0000 0.34210  0.79630  0.18260  Biso   1.000  H
  H104     1.0000 0.65790  0.79630  0.31740  Biso   1.000  H
  C73      1.0000 0.18753  0.74740  0.74547  Biso   1.000  C
  C74      1.0000 0.81247  0.74740  0.75453  Biso   1.000  C
  C75      1.0000 0.68753  0.24740  0.74547  Biso   1.000  C
  C76      1.0000 0.31247  0.24740  0.75453  Biso   1.000  C
  C77      1.0000 0.81247  0.25260  0.25453  Biso   1.000  C
  C78      1.0000 0.18753  0.25260  0.24547  Biso   1.000  C
  C79      1.0000 0.31247  0.75260  0.25453  Biso   1.000  C
  C80      1.0000 0.68753  0.75260  0.24547  Biso   1.000  C
  H105     1.0000 0.15580  0.71380  0.72110  Biso   1.000  H
  H106     1.0000 0.84420  0.71380  0.77890  Biso   1.000  H
  H107     1.0000 0.65580  0.21380  0.72110  Biso   1.000  H
  H108     1.0000 0.34420  0.21380  0.77890  Biso   1.000  H
  H109     1.0000 0.84420  0.28620  0.27890  Biso   1.000  H
  H110     1.0000 0.15580  0.28620  0.22110  Biso   1.000  H
  H111     1.0000 0.34420  0.78620  0.27890  Biso   1.000  H
  H112     1.0000 0.65580  0.78620  0.22110  Biso   1.000  H
  H113     1.0000 0.21920  0.72250  0.72890  Biso   1.000  H
  H114     1.0000 0.78080  0.72250  0.77110  Biso   1.000  H
  H115     1.0000 0.71920  0.22250  0.72890  Biso   1.000  H
  H116     1.0000 0.28080  0.22250  0.77110  Biso   1.000  H
  H117     1.0000 0.78080  0.27750  0.27110  Biso   1.000  H
  H118     1.0000 0.21920  0.27750  0.22890  Biso   1.000  H
  H119     1.0000 0.28080  0.77750  0.27110  Biso   1.000  H
  H120     1.0000 0.71920  0.77750  0.22890  Biso   1.000  H
  C81      1.0000 0.18289  0.95920  0.69352  Biso   1.000  C
  C82      1.0000 0.81711  0.95920  0.80648  Biso   1.000  C
  C83      1.0000 0.68289  0.45920  0.69352  Biso   1.000  C
  C84      1.0000 0.31711  0.45920  0.80648  Biso   1.000  C
  C85      1.0000 0.81711  0.04080  0.30648  Biso   1.000  C
  C86      1.0000 0.18289  0.04080  0.19352  Biso   1.000  C
  C87      1.0000 0.31711  0.54080  0.30648  Biso   1.000  C
  C88      1.0000 0.68289  0.54080  0.19352  Biso   1.000  C
  H121     1.0000 0.21310  0.92680  0.67610  Biso   1.000  H
  H122     1.0000 0.78690  0.92680  0.82390  Biso   1.000  H
  H123     1.0000 0.71310  0.42680  0.67610  Biso   1.000  H
  H124     1.0000 0.28690  0.42680  0.82390  Biso   1.000  H
  H125     1.0000 0.78690  0.07320  0.32390  Biso   1.000  H
  H126     1.0000 0.21310  0.07320  0.17610  Biso   1.000  H
  H127     1.0000 0.28690  0.57320  0.32390  Biso   1.000  H
  H128     1.0000 0.71310  0.57320  0.17610  Biso   1.000  H
  H129     1.0000 0.18660  0.05640  0.69820  Biso   1.000  H
  H130     1.0000 0.81340  0.05640  0.80180  Biso   1.000  H
  H131     1.0000 0.68660  0.55640  0.69820  Biso   1.000  H
  H132     1.0000 0.31340  0.55640  0.80180  Biso   1.000  H
  H133     1.0000 0.81340  0.94360  0.30180  Biso   1.000  H
  H134     1.0000 0.18660  0.94360  0.19820  Biso   1.000  H
  H135     1.0000 0.31340  0.44360  0.30180  Biso   1.000  H
  H136     1.0000 0.68660  0.44360  0.19820  Biso   1.000  H
  C89      1.0000 0.13176  0.92860  0.65655  Biso   1.000  C
  C90      1.0000 0.86824  0.92860  0.84345  Biso   1.000  C
  C91      1.0000 0.63176  0.42860  0.65655  Biso   1.000  C
  C92      1.0000 0.36824  0.42860  0.84345  Biso   1.000  C
  C93      1.0000 0.86824  0.07140  0.34345  Biso   1.000  C
  C94      1.0000 0.13176  0.07140  0.15655  Biso   1.000  C
  C95      1.0000 0.36824  0.57140  0.34345  Biso   1.000  C
  C96      1.0000 0.63176  0.57140  0.15655  Biso   1.000  C
  C97      1.0000 0.12927  0.85170  0.60933  Biso   1.000  C
  C98      1.0000 0.87073  0.85170  0.89067  Biso   1.000  C
  C99      1.0000 0.62927  0.35170  0.60933  Biso   1.000  C
  C100     1.0000 0.37073  0.35170  0.89067  Biso   1.000  C
  C101     1.0000 0.87073  0.14830  0.39067  Biso   1.000  C
  C102     1.0000 0.12927  0.14830  0.10933  Biso   1.000  C
  C103     1.0000 0.37073  0.64830  0.39067  Biso   1.000  C
  C104     1.0000 0.62927  0.64830  0.10933  Biso   1.000  C
  H137     1.0000 0.16080  0.81600  0.59890  Biso   1.000  H
  H138     1.0000 0.83920  0.81600  0.90110  Biso   1.000  H
  H139     1.0000 0.66080  0.31600  0.59890  Biso   1.000  H
  H140     1.0000 0.33920  0.31600  0.90110  Biso   1.000  H
  H141     1.0000 0.83920  0.18400  0.40110  Biso   1.000  H
  H142     1.0000 0.16080  0.18400  0.09890  Biso   1.000  H
  H143     1.0000 0.33920  0.68400  0.40110  Biso   1.000  H
  H144     1.0000 0.66080  0.68400  0.09890  Biso   1.000  H
  C105     1.0000 0.08445  0.97850  0.66934  Biso   1.000  C
  C106     1.0000 0.91555  0.97850  0.83066  Biso   1.000  C
  C107     1.0000 0.58445  0.47850  0.66934  Biso   1.000  C
  C108     1.0000 0.41555  0.47850  0.83066  Biso   1.000  C
  C109     1.0000 0.91555  0.02150  0.33066  Biso   1.000  C
  C110     1.0000 0.08445  0.02150  0.16934  Biso   1.000  C
  C111     1.0000 0.41555  0.52150  0.33066  Biso   1.000  C
  C112     1.0000 0.58445  0.52150  0.16934  Biso   1.000  C
  H145     1.0000 0.08430  0.03280  0.70100  Biso   1.000  H
  H146     1.0000 0.91570  0.03280  0.79900  Biso   1.000  H
  H147     1.0000 0.58430  0.53280  0.70100  Biso   1.000  H
  H148     1.0000 0.41570  0.53280  0.79900  Biso   1.000  H
  H149     1.0000 0.91570  0.96720  0.29900  Biso   1.000  H
  H150     1.0000 0.08430  0.96720  0.20100  Biso   1.000  H
  H151     1.0000 0.41570  0.46720  0.29900  Biso   1.000  H
  H152     1.0000 0.58430  0.46720  0.20100  Biso   1.000  H
  C113     1.0000 0.08113  0.82750  0.57775  Biso   1.000  C
  C114     1.0000 0.91887  0.82750  0.92225  Biso   1.000  C
  C115     1.0000 0.58113  0.32750  0.57775  Biso   1.000  C
  C116     1.0000 0.41887  0.32750  0.92225  Biso   1.000  C
  C117     1.0000 0.91887  0.17250  0.42225  Biso   1.000  C
  C118     1.0000 0.08113  0.17250  0.07775  Biso   1.000  C
  C119     1.0000 0.41887  0.67250  0.42225  Biso   1.000  C
  C120     1.0000 0.58113  0.67250  0.07775  Biso   1.000  C
  H153     1.0000 0.08030  0.77470  0.54550  Biso   1.000  H
  H154     1.0000 0.91970  0.77470  0.95450  Biso   1.000  H
  H155     1.0000 0.58030  0.27470  0.54550  Biso   1.000  H
  H156     1.0000 0.41970  0.27470  0.95450  Biso   1.000  H
  H157     1.0000 0.91970  0.22530  0.45450  Biso   1.000  H
  H158     1.0000 0.08030  0.22530  0.04550  Biso   1.000  H
  H159     1.0000 0.41970  0.72530  0.45450  Biso   1.000  H
  H160     1.0000 0.58030  0.72530  0.04550  Biso   1.000  H
  C121     1.0000 0.03789  0.94880  0.63595  Biso   1.000  C
  C122     1.0000 0.96211  0.94880  0.86405  Biso   1.000  C
  C123     1.0000 0.53789  0.44880  0.63595  Biso   1.000  C
  C124     1.0000 0.46211  0.44880  0.86405  Biso   1.000  C
  C125     1.0000 0.96211  0.05120  0.36405  Biso   1.000  C
  C126     1.0000 0.03789  0.05120  0.13595  Biso   1.000  C
  C127     1.0000 0.46211  0.55120  0.36405  Biso   1.000  C
  C128     1.0000 0.53789  0.55120  0.13595  Biso   1.000  C
  H161     1.0000 0.00580  0.98260  0.64580  Biso   1.000  H
  H162     1.0000 0.99420  0.98260  0.85420  Biso   1.000  H
  H163     1.0000 0.50580  0.48260  0.64580  Biso   1.000  H
  H164     1.0000 0.49420  0.48260  0.85420  Biso   1.000  H
  H165     1.0000 0.99420  0.01740  0.35420  Biso   1.000  H
  H166     1.0000 0.00580  0.01740  0.14580  Biso   1.000  H
  H167     1.0000 0.49420  0.51740  0.35420  Biso   1.000  H
  H168     1.0000 0.50580  0.51740  0.14580  Biso   1.000  H
  C129     1.0000 0.40438  0.04240  0.14910  Biso   1.000  C
  C130     1.0000 0.59562  0.04240  0.35090  Biso   1.000  C
  C131     1.0000 0.90438  0.54240  0.14910  Biso   1.000  C
  C132     1.0000 0.09562  0.54240  0.35090  Biso   1.000  C
  C133     1.0000 0.59562  0.95760  0.85090  Biso   1.000  C
  C134     1.0000 0.40438  0.95760  0.64910  Biso   1.000  C
  C135     1.0000 0.09562  0.45760  0.85090  Biso   1.000  C
  C136     1.0000 0.90438  0.45760  0.64910  Biso   1.000  C
  H169     1.0000 0.39270  0.97160  0.16990  Biso   1.000  H
  H170     1.0000 0.60730  0.97160  0.33010  Biso   1.000  H
  H171     1.0000 0.89270  0.47160  0.16990  Biso   1.000  H
  H172     1.0000 0.10730  0.47160  0.33010  Biso   1.000  H
  H173     1.0000 0.60730  0.02840  0.83010  Biso   1.000  H
  H174     1.0000 0.39270  0.02840  0.66990  Biso   1.000  H
  H175     1.0000 0.10730  0.52840  0.83010  Biso   1.000  H
  H176     1.0000 0.89270  0.52840  0.66990  Biso   1.000  H
  C137     1.0000 0.44437  0.87230  0.09286  Biso   1.000  C
  C138     1.0000 0.55563  0.87230  0.40714  Biso   1.000  C
  C139     1.0000 0.94437  0.37230  0.09286  Biso   1.000  C
  C140     1.0000 0.05563  0.37230  0.40714  Biso   1.000  C
  C141     1.0000 0.55563  0.12770  0.90714  Biso   1.000  C
  C142     1.0000 0.44437  0.12770  0.59286  Biso   1.000  C
  C143     1.0000 0.05563  0.62770  0.90714  Biso   1.000  C
  C144     1.0000 0.94437  0.62770  0.59286  Biso   1.000  C
  C145     1.0000 0.43409  0.01530  0.10690  Biso   1.000  C
  C146     1.0000 0.56591  0.01530  0.39310  Biso   1.000  C
  C147     1.0000 0.93409  0.51530  0.10690  Biso   1.000  C
  C148     1.0000 0.06591  0.51530  0.39310  Biso   1.000  C
  C149     1.0000 0.56591  0.98470  0.89310  Biso   1.000  C
  C150     1.0000 0.43409  0.98470  0.60690  Biso   1.000  C
  C151     1.0000 0.06591  0.48470  0.89310  Biso   1.000  C
  C152     1.0000 0.93409  0.48470  0.60690  Biso   1.000  C
  C153     1.0000 0.44027  0.25010  0.09016  Biso   1.000  C
  C154     1.0000 0.55973  0.25010  0.40984  Biso   1.000  C
  C155     1.0000 0.94027  0.75010  0.09016  Biso   1.000  C
  C156     1.0000 0.05973  0.75010  0.40984  Biso   1.000  C
  C157     1.0000 0.55973  0.74990  0.90984  Biso   1.000  C
  C158     1.0000 0.44027  0.74990  0.59016  Biso   1.000  C
  C159     1.0000 0.05973  0.24990  0.90984  Biso   1.000  C
  C160     1.0000 0.94027  0.24990  0.59016  Biso   1.000  C
  C161     1.0000 0.40921  0.27690  0.13095  Biso   1.000  C
  C162     1.0000 0.59079  0.27690  0.36905  Biso   1.000  C
  C163     1.0000 0.90921  0.77690  0.13095  Biso   1.000  C
  C164     1.0000 0.09079  0.77690  0.36905  Biso   1.000  C
  C165     1.0000 0.59079  0.72310  0.86905  Biso   1.000  C
  C166     1.0000 0.40921  0.72310  0.63095  Biso   1.000  C
  C167     1.0000 0.09079  0.22310  0.86905  Biso   1.000  C
  C168     1.0000 0.90921  0.22310  0.63095  Biso   1.000  C
  H177     1.0000 0.40000  0.36560  0.13840  Biso   1.000  H
  H178     1.0000 0.60000  0.36560  0.36160  Biso   1.000  H
  H179     1.0000 0.90000  0.86560  0.13840  Biso   1.000  H
  H180     1.0000 0.10000  0.86560  0.36160  Biso   1.000  H
  H181     1.0000 0.60000  0.63440  0.86160  Biso   1.000  H
  H182     1.0000 0.40000  0.63440  0.63840  Biso   1.000  H
  H183     1.0000 0.10000  0.13440  0.86160  Biso   1.000  H
  H184     1.0000 0.90000  0.13440  0.63840  Biso   1.000  H
  C169     1.0000 0.39181  0.17210  0.16069  Biso   1.000  C
  C170     1.0000 0.60819  0.17210  0.33931  Biso   1.000  C
  C171     1.0000 0.89181  0.67210  0.16069  Biso   1.000  C
  C172     1.0000 0.10819  0.67210  0.33931  Biso   1.000  C
  C173     1.0000 0.60819  0.82790  0.83931  Biso   1.000  C
  C174     1.0000 0.39181  0.82790  0.66069  Biso   1.000  C
  C175     1.0000 0.10819  0.32790  0.83931  Biso   1.000  C
  C176     1.0000 0.89181  0.32790  0.66069  Biso   1.000  C
  C177     1.0000 0.46125  0.36230  0.05935  Biso   1.000  C
  C178     1.0000 0.53875  0.36230  0.44065  Biso   1.000  C
  C179     1.0000 0.96125  0.86230  0.05935  Biso   1.000  C
  C180     1.0000 0.03875  0.86230  0.44065  Biso   1.000  C
  C181     1.0000 0.53875  0.63770  0.94065  Biso   1.000  C
  C182     1.0000 0.46125  0.63770  0.55935  Biso   1.000  C
  C183     1.0000 0.03875  0.13770  0.94065  Biso   1.000  C
  C184     1.0000 0.96125  0.13770  0.55935  Biso   1.000  C
  C185     1.0000 0.45263  0.11990  0.07838  Biso   1.000  C
  C186     1.0000 0.54737  0.11990  0.42162  Biso   1.000  C
  C187     1.0000 0.95263  0.61990  0.07838  Biso   1.000  C
  C188     1.0000 0.04737  0.61990  0.42162  Biso   1.000  C
  C189     1.0000 0.54737  0.88010  0.92162  Biso   1.000  C
  C190     1.0000 0.45263  0.88010  0.57838  Biso   1.000  C
  C191     1.0000 0.04737  0.38010  0.92162  Biso   1.000  C
  C192     1.0000 0.95263  0.38010  0.57838  Biso   1.000  C
  H185     1.0000 0.47400  0.10250  0.05060  Biso   1.000  H
  H186     1.0000 0.52600  0.10250  0.44940  Biso   1.000  H
  H187     1.0000 0.97400  0.60250  0.05060  Biso   1.000  H
  H188     1.0000 0.02600  0.60250  0.44940  Biso   1.000  H
  H189     1.0000 0.52600  0.89750  0.94940  Biso   1.000  H
  H190     1.0000 0.47400  0.89750  0.55060  Biso   1.000  H
  H191     1.0000 0.02600  0.39750  0.94940  Biso   1.000  H
  H192     1.0000 0.97400  0.39750  0.55060  Biso   1.000  H
  O57      1.0000 0.50000  0.44130  0.25000  Biso   1.000  O
  O58      1.0000 0.00000  0.94130  0.25000  Biso   1.000  O
  O59      1.0000 0.50000  0.55870  0.75000  Biso   1.000  O
  O60      1.0000 0.00000  0.05870  0.75000  Biso   1.000  O
  H193     1.0000 0.47190  0.45200  0.23160  Biso   1.000  H
  H194     1.0000 0.52810  0.45200  0.26840  Biso   1.000  H
  H195     1.0000 0.97190  0.95200  0.23160  Biso   1.000  H
  H196     1.0000 0.02810  0.95200  0.26840  Biso   1.000  H
  H197     1.0000 0.52810  0.54800  0.76840  Biso   1.000  H
  H198     1.0000 0.47190  0.54800  0.73160  Biso   1.000  H
  H199     1.0000 0.02810  0.04800  0.76840  Biso   1.000  H
  H200     1.0000 0.97190  0.04800  0.73160  Biso   1.000  H
  O61      1.0000 0.41659  0.61700  0.20860  Biso   1.000  O
  O62      1.0000 0.58341  0.61700  0.29140  Biso   1.000  O
  O63      1.0000 0.91659  0.11700  0.20860  Biso   1.000  O
  O64      1.0000 0.08341  0.11700  0.29140  Biso   1.000  O
  O65      1.0000 0.58341  0.38300  0.79140  Biso   1.000  O
  O66      1.0000 0.41659  0.38300  0.70860  Biso   1.000  O
  O67      1.0000 0.08341  0.88300  0.79140  Biso   1.000  O
  O68      1.0000 0.91659  0.88300  0.70860  Biso   1.000  O
  H201     1.0000 0.42100  0.69000  0.19360  Biso   1.000  H
  H202     1.0000 0.57900  0.69000  0.30640  Biso   1.000  H
  H203     1.0000 0.92100  0.19000  0.19360  Biso   1.000  H
  H204     1.0000 0.07900  0.19000  0.30640  Biso   1.000  H
  H205     1.0000 0.57900  0.31000  0.80640  Biso   1.000  H
  H206     1.0000 0.42100  0.31000  0.69360  Biso   1.000  H
  H207     1.0000 0.07900  0.81000  0.80640  Biso   1.000  H
  H208     1.0000 0.92100  0.81000  0.69360  Biso   1.000  H
  H209     1.0000 0.44090  0.56690  0.22260  Biso   1.000  H
  H210     1.0000 0.55910  0.56690  0.27740  Biso   1.000  H
  H211     1.0000 0.94090  0.06690  0.22260  Biso   1.000  H
  H212     1.0000 0.05910  0.06690  0.27740  Biso   1.000  H
  H213     1.0000 0.55910  0.43310  0.77740  Biso   1.000  H
  H214     1.0000 0.44090  0.43310  0.72260  Biso   1.000  H
  H215     1.0000 0.05910  0.93310  0.77740  Biso   1.000  H
  H216     1.0000 0.94090  0.93310  0.72260  Biso   1.000  H
  O69      1.0000 0.25690  0.20090  0.07300  Biso   1.000  O
  O70      1.0000 0.74310  0.20090  0.42700  Biso   1.000  O
  O71      1.0000 0.75690  0.70090  0.07300  Biso   1.000  O
  O72      1.0000 0.24310  0.70090  0.42700  Biso   1.000  O
  O73      1.0000 0.74310  0.79910  0.92700  Biso   1.000  O
  O74      1.0000 0.25690  0.79910  0.57300  Biso   1.000  O
  O75      1.0000 0.24310  0.29910  0.92700  Biso   1.000  O
  O76      1.0000 0.75690  0.29910  0.57300  Biso   1.000  O
  H217     1.0000 0.27370  0.22700  0.04500  Biso   1.000  H
  H218     1.0000 0.72630  0.22700  0.45500  Biso   1.000  H
  H219     1.0000 0.77370  0.72700  0.04500  Biso   1.000  H
  H220     1.0000 0.22630  0.72700  0.45500  Biso   1.000  H
  H221     1.0000 0.72630  0.77300  0.95500  Biso   1.000  H
  H222     1.0000 0.27370  0.77300  0.54500  Biso   1.000  H
  H223     1.0000 0.22630  0.27300  0.95500  Biso   1.000  H
  H224     1.0000 0.77370  0.27300  0.54500  Biso   1.000  H
  H225     1.0000 0.26570  0.25020  0.10360  Biso   1.000  H
  H226     1.0000 0.73430  0.25020  0.39640  Biso   1.000  H
  H227     1.0000 0.76570  0.75020  0.10360  Biso   1.000  H
  H228     1.0000 0.23430  0.75020  0.39640  Biso   1.000  H
  H229     1.0000 0.73430  0.74980  0.89640  Biso   1.000  H
  H230     1.0000 0.26570  0.74980  0.60360  Biso   1.000  H
  H231     1.0000 0.23430  0.24980  0.89640  Biso   1.000  H
  H232     1.0000 0.76570  0.24980  0.60360  Biso   1.000  H
  O77      1.0000 0.40870  0.02040  0.95692  Biso   1.000  O
  O78      1.0000 0.59130  0.02040  0.54308  Biso   1.000  O
  O79      1.0000 0.90870  0.52040  0.95692  Biso   1.000  O
  O80      1.0000 0.09130  0.52040  0.54308  Biso   1.000  O
  O81      1.0000 0.59130  0.97960  0.04308  Biso   1.000  O
  O82      1.0000 0.40870  0.97960  0.45692  Biso   1.000  O
  O83      1.0000 0.09130  0.47960  0.04308  Biso   1.000  O
  O84      1.0000 0.90870  0.47960  0.45692  Biso   1.000  O
  H233     1.0000 0.42800  0.97500  0.98200  Biso   1.000  H
  H234     1.0000 0.57200  0.97500  0.51800  Biso   1.000  H
  H235     1.0000 0.92800  0.47500  0.98200  Biso   1.000  H
  H236     1.0000 0.07200  0.47500  0.51800  Biso   1.000  H
  H237     1.0000 0.57200  0.02500  0.01800  Biso   1.000  H
  H238     1.0000 0.42800  0.02500  0.48200  Biso   1.000  H
  H239     1.0000 0.07200  0.52500  0.01800  Biso   1.000  H
  H240     1.0000 0.92800  0.52500  0.48200  Biso   1.000  H
  H241     1.0000 0.41700  0.00100  0.92540  Biso   1.000  H
  H242     1.0000 0.58300  0.00100  0.57460  Biso   1.000  H
  H243     1.0000 0.91700  0.50100  0.92540  Biso   1.000  H
  H244     1.0000 0.08300  0.50100  0.57460  Biso   1.000  H
  H245     1.0000 0.58300  0.99900  0.07460  Biso   1.000  H
  H246     1.0000 0.41700  0.99900  0.42540  Biso   1.000  H
  H247     1.0000 0.08300  0.49900  0.07460  Biso   1.000  H
  H248     1.0000 0.91700  0.49900  0.42540  Biso   1.000  H
  O85      1.0000 0.70130  0.08750  0.51610  Biso   1.000  O
  O86      1.0000 0.29870  0.08750  0.98390  Biso   1.000  O
  O87      1.0000 0.20130  0.58750  0.51610  Biso   1.000  O
  O88      1.0000 0.79870  0.58750  0.98390  Biso   1.000  O
  O89      1.0000 0.29870  0.91250  0.48390  Biso   1.000  O
  O90      1.0000 0.70130  0.91250  0.01610  Biso   1.000  O
  O91      1.0000 0.79870  0.41250  0.48390  Biso   1.000  O
  O92      1.0000 0.20130  0.41250  0.01610  Biso   1.000  O
  H249     1.0000 0.71410  0.12230  0.48930  Biso   1.000  H
  H250     1.0000 0.28590  0.12230  0.01070  Biso   1.000  H
  H251     1.0000 0.21410  0.62230  0.48930  Biso   1.000  H
  H252     1.0000 0.78590  0.62230  0.01070  Biso   1.000  H
  H253     1.0000 0.28590  0.87770  0.51070  Biso   1.000  H
  H254     1.0000 0.71410  0.87770  0.98930  Biso   1.000  H
  H255     1.0000 0.78590  0.37770  0.51070  Biso   1.000  H
  H256     1.0000 0.21410  0.37770  0.98930  Biso   1.000  H
  H257     1.0000 0.67090  0.06940  0.52450  Biso   1.000  H
  H258     1.0000 0.32910  0.06940  0.97550  Biso   1.000  H
  H259     1.0000 0.17090  0.56940  0.52450  Biso   1.000  H
  H260     1.0000 0.82910  0.56940  0.97550  Biso   1.000  H
  H261     1.0000 0.32910  0.93060  0.47550  Biso   1.000  H
  H262     1.0000 0.67090  0.93060  0.02450  Biso   1.000  H
  H263     1.0000 0.82910  0.43060  0.47550  Biso   1.000  H
  H264     1.0000 0.17090  0.43060  0.02450  Biso   1.000  H
  O93      1.0000 0.52560  0.83310  0.21310  Biso   1.000  O
  O94      1.0000 0.47440  0.83310  0.28690  Biso   1.000  O
  O95      1.0000 0.02560  0.33310  0.21310  Biso   1.000  O
  O96      1.0000 0.97440  0.33310  0.28690  Biso   1.000  O
  O97      1.0000 0.47440  0.16690  0.78690  Biso   1.000  O
  O98      1.0000 0.52560  0.16690  0.71310  Biso   1.000  O
  O99      1.0000 0.97440  0.66690  0.78690  Biso   1.000  O
  O100     1.0000 0.02560  0.66690  0.71310  Biso   1.000  O
  O101     1.0000 0.40620  0.02500  0.84710  Biso   1.000  O
  O102     1.0000 0.59380  0.02500  0.65290  Biso   1.000  O
  O103     1.0000 0.90620  0.52500  0.84710  Biso   1.000  O
  O104     1.0000 0.09380  0.52500  0.65290  Biso   1.000  O
  O105     1.0000 0.59380  0.97500  0.15290  Biso   1.000  O
  O106     1.0000 0.40620  0.97500  0.34710  Biso   1.000  O
  O107     1.0000 0.09380  0.47500  0.15290  Biso   1.000  O
  O108     1.0000 0.90620  0.47500  0.34710  Biso   1.000  O
  O109     1.0000 0.52260  0.02990  0.22400  Biso   1.000  O
  O110     1.0000 0.47740  0.02990  0.27600  Biso   1.000  O
  O111     1.0000 0.02260  0.52990  0.22400  Biso   1.000  O
  O112     1.0000 0.97740  0.52990  0.27600  Biso   1.000  O
  O113     1.0000 0.47740  0.97010  0.77600  Biso   1.000  O
  O114     1.0000 0.52260  0.97010  0.72400  Biso   1.000  O
  O115     1.0000 0.97740  0.47010  0.77600  Biso   1.000  O
  O116     1.0000 0.02260  0.47010  0.72400  Biso   1.000  O
  O117     1.0000 0.35180  0.03250  0.85310  Biso   1.000  O
  O118     1.0000 0.64820  0.03250  0.64690  Biso   1.000  O
  O119     1.0000 0.85180  0.53250  0.85310  Biso   1.000  O
  O120     1.0000 0.14820  0.53250  0.64690  Biso   1.000  O
  O121     1.0000 0.64820  0.96750  0.14690  Biso   1.000  O
  O122     1.0000 0.35180  0.96750  0.35310  Biso   1.000  O
  O123     1.0000 0.14820  0.46750  0.14690  Biso   1.000  O
  O124     1.0000 0.85180  0.46750  0.35310  Biso   1.000  O
  O125     1.0000 0.52460  0.20640  0.20970  Biso   1.000  O
  O126     1.0000 0.47540  0.20640  0.29030  Biso   1.000  O
  O127     1.0000 0.02460  0.70640  0.20970  Biso   1.000  O
  O128     1.0000 0.97540  0.70640  0.29030  Biso   1.000  O
  O129     1.0000 0.47540  0.79360  0.79030  Biso   1.000  O
  O130     1.0000 0.52460  0.79360  0.70970  Biso   1.000  O
  O131     1.0000 0.97540  0.29360  0.79030  Biso   1.000  O
  O132     1.0000 0.02460  0.29360  0.70970  Biso   1.000  O
