data_image0
_cell_length_a       8.7372
_cell_length_b       10.8585
_cell_length_c       21.576
_cell_angle_alpha    93.741
_cell_angle_beta     96.091
_cell_angle_gamma    106.185

_symmetry_space_group_name_H-M    "P 1"
_symmetry_int_tables_number       1

loop_
  _symmetry_equiv_pos_as_xyz
  'x, y, z'

loop_
  _atom_site_label
  _atom_site_occupancy
  _atom_site_fract_x
  _atom_site_fract_y
  _atom_site_fract_z
  _atom_site_thermal_displace_type
  _atom_site_B_iso_or_equiv
  _atom_site_type_symbol
  Cu1      1.0000 0.49571  0.64630  0.24183  Biso   1.000  Cu
  Cu2      1.0000 0.50429  0.35370  0.75817  Biso   1.000  Cu
  Cu3      1.0000 0.33530  0.73249  0.09964  Biso   1.000  Cu
  Cu4      1.0000 0.66470  0.26751  0.90036  Biso   1.000  Cu
  Cu5      1.0000 0.45163  0.91216  0.24459  Biso   1.000  Cu
  Cu6      1.0000 0.54837  0.08784  0.75541  Biso   1.000  Cu
  Cu7      1.0000 0.62777  0.82819  0.38300  Biso   1.000  Cu
  Cu8      1.0000 0.37223  0.17181  0.61700  Biso   1.000  Cu
  S1       1.0000 0.75830  0.38515  0.56865  Biso   1.000  S
  S2       1.0000 0.24170  0.61485  0.43135  Biso   1.000  S
  S3       1.0000 0.19920  0.16538  0.91703  Biso   1.000  S
  S4       1.0000 0.80080  0.83462  0.08297  Biso   1.000  S
  O1       1.0000 0.19500  0.28990  0.89531  Biso   1.000  O
  O2       1.0000 0.80500  0.71010  0.10469  Biso   1.000  O
  O3       1.0000 0.73360  0.50410  0.59205  Biso   1.000  O
  O4       1.0000 0.26640  0.49590  0.40795  Biso   1.000  O
  O5       1.0000 0.92350  0.38160  0.57484  Biso   1.000  O
  O6       1.0000 0.07650  0.61840  0.42516  Biso   1.000  O
  O7       1.0000 0.94970  0.52250  0.79950  Biso   1.000  O
  O8       1.0000 0.05030  0.47750  0.20050  Biso   1.000  O
  O9       1.0000 0.04170  0.07680  0.91543  Biso   1.000  O
  O10      1.0000 0.95830  0.92320  0.08457  Biso   1.000  O
  O11      1.0000 0.51420  0.06370  0.30481  Biso   1.000  O
  O12      1.0000 0.48580  0.93630  0.69519  Biso   1.000  O
  O13      1.0000 0.60150  0.99980  0.39553  Biso   1.000  O
  O14      1.0000 0.39850  0.00020  0.60447  Biso   1.000  O
  O15      1.0000 0.44890  0.03710  0.18404  Biso   1.000  O
  O16      1.0000 0.55110  0.96290  0.81596  Biso   1.000  O
  O17      1.0000 0.34050  0.90840  0.09495  Biso   1.000  O
  O18      1.0000 0.65950  0.09160  0.90505  Biso   1.000  O
  O19      1.0000 0.31030  0.11120  0.88655  Biso   1.000  O
  O20      1.0000 0.68970  0.88880  0.11345  Biso   1.000  O
  O21      1.0000 0.50870  0.52360  0.30188  Biso   1.000  O
  O22      1.0000 0.49130  0.47640  0.69812  Biso   1.000  O
  O23      1.0000 0.66440  0.66130  0.38112  Biso   1.000  O
  O24      1.0000 0.33560  0.33870  0.61888  Biso   1.000  O
  O25      1.0000 0.35460  0.56070  0.08836  Biso   1.000  O
  O26      1.0000 0.64540  0.43930  0.91164  Biso   1.000  O
  O27      1.0000 0.42920  0.49630  0.18032  Biso   1.000  O
  O28      1.0000 0.57080  0.50370  0.81968  Biso   1.000  O
  O29      1.0000 0.65510  0.27030  0.59279  Biso   1.000  O
  O30      1.0000 0.34490  0.72970  0.40721  Biso   1.000  O
  O31      1.0000 0.47020  0.77390  0.18185  Biso   1.000  O
  O32      1.0000 0.52980  0.22610  0.81815  Biso   1.000  O
  H1       1.0000 0.44100  0.75300  0.21470  Biso   1.000  H
  H2       1.0000 0.55900  0.24700  0.78530  Biso   1.000  H
  O33      1.0000 0.48220  0.78480  0.30304  Biso   1.000  O
  O34      1.0000 0.51780  0.21520  0.69696  Biso   1.000  O
  H3       1.0000 0.39700  0.77300  0.31900  Biso   1.000  H
  H4       1.0000 0.60300  0.22700  0.68100  Biso   1.000  H
  O35      1.0000 0.13190  0.07720  0.65781  Biso   1.000  O
  O36      1.0000 0.86810  0.92280  0.34219  Biso   1.000  O
  O37      1.0000 0.18920  0.86190  0.24370  Biso   1.000  O
  O38      1.0000 0.81080  0.13810  0.75630  Biso   1.000  O
  H5       1.0000 0.16000  0.82500  0.20730  Biso   1.000  H
  H6       1.0000 0.84000  0.17500  0.79270  Biso   1.000  H
  H7       1.0000 0.17300  0.80900  0.27100  Biso   1.000  H
  H8       1.0000 0.82700  0.19100  0.72900  Biso   1.000  H
  O39      1.0000 0.74680  0.69920  0.23020  Biso   1.000  O
  O40      1.0000 0.25320  0.30080  0.76980  Biso   1.000  O
  H9       1.0000 0.80800  0.68000  0.25800  Biso   1.000  H
  H10      1.0000 0.19200  0.32000  0.74200  Biso   1.000  H
  H11      1.0000 0.77900  0.69500  0.19510  Biso   1.000  H
  H12      1.0000 0.22100  0.30500  0.80490  Biso   1.000  H
  O41      1.0000 0.10390  0.68220  0.13690  Biso   1.000  O
  O42      1.0000 0.89610  0.31780  0.86310  Biso   1.000  O
  H13      1.0000 0.09500  0.61000  0.15200  Biso   1.000  H
  H14      1.0000 0.90500  0.39000  0.84800  Biso   1.000  H
  H15      1.0000 0.00800  0.68400  0.12500  Biso   1.000  H
  H16      1.0000 0.99200  0.31600  0.87500  Biso   1.000  H
  N1       1.0000 0.99820  0.72830  0.78140  Biso   1.000  N
  N2       1.0000 0.00180  0.27170  0.21860  Biso   1.000  N
  N3       1.0000 0.23970  0.70700  0.00740  Biso   1.000  N
  N4       1.0000 0.76030  0.29300  0.99260  Biso   1.000  N
  N5       1.0000 0.74720  0.86350  0.47080  Biso   1.000  N
  N6       1.0000 0.25280  0.13650  0.52920  Biso   1.000  N
  C1       1.0000 0.06260  0.75300  0.92530  Biso   1.000  C
  C2       1.0000 0.93740  0.24700  0.07470  Biso   1.000  C
  H17      1.0000 0.98730  0.79810  0.91290  Biso   1.000  H
  H18      1.0000 0.01270  0.20190  0.08710  Biso   1.000  H
  C3       1.0000 0.01280  0.63740  0.81700  Biso   1.000  C
  C4       1.0000 0.98720  0.36260  0.18300  Biso   1.000  C
  C5       1.0000 0.10350  0.67220  0.88260  Biso   1.000  C
  C6       1.0000 0.89650  0.32780  0.11740  Biso   1.000  C
  C7       1.0000 0.28180  0.63180  0.96430  Biso   1.000  C
  C8       1.0000 0.71820  0.36820  0.03570  Biso   1.000  C
  H19      1.0000 0.36190  0.59140  0.97680  Biso   1.000  H
  H20      1.0000 0.63810  0.40860  0.02320  Biso   1.000  H
  C9       1.0000 0.13440  0.76730  0.98720  Biso   1.000  C
  C10      1.0000 0.86560  0.23270  0.01280  Biso   1.000  C
  H21      1.0000 0.10610  0.82350  0.01670  Biso   1.000  H
  H22      1.0000 0.89390  0.17650  0.98330  Biso   1.000  H
  C11      1.0000 0.21280  0.61090  0.90200  Biso   1.000  C
  C12      1.0000 0.78720  0.38910  0.09800  Biso   1.000  C
  H23      1.0000 0.24200  0.55410  0.87320  Biso   1.000  H
  H24      1.0000 0.75800  0.44590  0.12680  Biso   1.000  H
  C13      1.0000 0.87250  0.81970  0.48570  Biso   1.000  C
  C14      1.0000 0.12750  0.18030  0.51430  Biso   1.000  C
  H25      1.0000 0.89970  0.76520  0.45510  Biso   1.000  H
  H26      1.0000 0.10030  0.23480  0.54490  Biso   1.000  H
  C15      1.0000 0.36870  0.12780  0.09330  Biso   1.000  C
  C16      1.0000 0.63130  0.87220  0.90670  Biso   1.000  C
  C17      1.0000 0.39130  0.24940  0.12410  Biso   1.000  C
  C18      1.0000 0.60870  0.75060  0.87590  Biso   1.000  C
  H27      1.0000 0.42840  0.26520  0.16770  Biso   1.000  H
  H28      1.0000 0.57160  0.73480  0.83230  Biso   1.000  H
  C19      1.0000 0.28150  0.20180  0.99680  Biso   1.000  C
  C20      1.0000 0.71850  0.79820  0.00320  Biso   1.000  C
  C21      1.0000 0.38660  0.01600  0.12700  Biso   1.000  C
  C22      1.0000 0.61340  0.98400  0.87300  Biso   1.000  C
  C23      1.0000 0.30250  0.32270  0.02760  Biso   1.000  C
  C24      1.0000 0.69750  0.67730  0.97240  Biso   1.000  C
  H29      1.0000 0.27770  0.38870  0.00520  Biso   1.000  H
  H30      1.0000 0.72230  0.61130  0.99480  Biso   1.000  H
  C25      1.0000 0.31630  0.10480  0.02970  Biso   1.000  C
  C26      1.0000 0.68370  0.89520  0.97030  Biso   1.000  C
  H31      1.0000 0.30410  0.02250  0.00840  Biso   1.000  H
  H32      1.0000 0.69590  0.97750  0.99160  Biso   1.000  H
  C27      1.0000 0.60530  0.21710  0.39260  Biso   1.000  C
  C28      1.0000 0.39470  0.78290  0.60740  Biso   1.000  C
  C29      1.0000 0.66060  0.24050  0.45590  Biso   1.000  C
  C30      1.0000 0.33940  0.75950  0.54410  Biso   1.000  C
  H33      1.0000 0.67890  0.17250  0.47840  Biso   1.000  H
  H34      1.0000 0.32110  0.82750  0.52160  Biso   1.000  H
  C31      1.0000 0.58090  0.31650  0.35950  Biso   1.000  C
  C32      1.0000 0.41910  0.68350  0.64050  Biso   1.000  C
  H35      1.0000 0.54260  0.30060  0.31600  Biso   1.000  H
  H36      1.0000 0.45740  0.69940  0.68400  Biso   1.000  H
  C33      1.0000 0.61230  0.43970  0.38980  Biso   1.000  C
  C34      1.0000 0.38770  0.56030  0.61020  Biso   1.000  C
  C35      1.0000 0.66700  0.46210  0.45410  Biso   1.000  C
  C36      1.0000 0.33300  0.53790  0.54590  Biso   1.000  C
  H37      1.0000 0.68830  0.54590  0.47520  Biso   1.000  H
  H38      1.0000 0.31170  0.45410  0.52480  Biso   1.000  H
  C37      1.0000 0.70270  0.93330  0.51500  Biso   1.000  C
  C38      1.0000 0.29730  0.06670  0.48500  Biso   1.000  C
  H39      1.0000 0.60730  0.95800  0.50590  Biso   1.000  H
  H40      1.0000 0.39270  0.04200  0.49410  Biso   1.000  H
  C39      1.0000 0.79140  0.97080  0.57380  Biso   1.000  C
  C40      1.0000 0.20860  0.02920  0.42620  Biso   1.000  C
  H41      1.0000 0.76180  0.02560  0.60350  Biso   1.000  H
  H42      1.0000 0.23820  0.97440  0.39650  Biso   1.000  H
  C41      1.0000 0.92210  0.92750  0.58840  Biso   1.000  C
  C42      1.0000 0.07790  0.07250  0.41160  Biso   1.000  C
  C43      1.0000 0.59170  0.54950  0.35490  Biso   1.000  C
  C44      1.0000 0.40830  0.45050  0.64510  Biso   1.000  C
  C45      1.0000 0.38200  0.48070  0.12280  Biso   1.000  C
  C46      1.0000 0.61800  0.51930  0.87720  Biso   1.000  C
  C47      1.0000 0.57150  0.08220  0.36140  Biso   1.000  C
  C48      1.0000 0.42850  0.91780  0.63860  Biso   1.000  C
  C49      1.0000 0.68990  0.36260  0.48690  Biso   1.000  C
  C50      1.0000 0.31010  0.63740  0.51310  Biso   1.000  C
  C51      1.0000 0.96650  0.85020  0.54440  Biso   1.000  C
  C52      1.0000 0.03350  0.14980  0.45560  Biso   1.000  C
  H43      1.0000 0.05700  0.81910  0.55360  Biso   1.000  H
  H44      1.0000 0.94300  0.18090  0.44640  Biso   1.000  H
  C53      1.0000 0.36030  0.34780  0.09160  Biso   1.000  C
  C54      1.0000 0.63970  0.65220  0.90840  Biso   1.000  C
  C55      1.0000 0.02670  0.97400  0.65100  Biso   1.000  C
  C56      1.0000 0.97330  0.02600  0.34900  Biso   1.000  C
  N7       1.0000 0.03500  0.88440  0.68960  Biso   1.000  N
  N8       1.0000 0.96500  0.11560  0.31040  Biso   1.000  N
  C57      1.0000 0.93500  0.67880  0.71340  Biso   1.000  C
  C58      1.0000 0.06500  0.32120  0.28660  Biso   1.000  C
  H45      1.0000 0.99400  0.61780  0.70010  Biso   1.000  H
  H46      1.0000 0.00600  0.38220  0.29990  Biso   1.000  H
  H47      1.0000 0.82080  0.62880  0.71150  Biso   1.000  H
  H48      1.0000 0.17920  0.37120  0.28850  Biso   1.000  H
  C59      1.0000 0.94200  0.74510  0.68100  Biso   1.000  C
  C60      1.0000 0.05800  0.25490  0.31900  Biso   1.000  C
  H49      1.0000 0.83000  0.74310  0.66720  Biso   1.000  H
  H50      1.0000 0.17000  0.25690  0.33280  Biso   1.000  H
  H51      1.0000 0.98030  0.70790  0.64450  Biso   1.000  H
  H52      1.0000 0.01970  0.29210  0.35550  Biso   1.000  H
  C61      1.0000 0.13300  0.91740  0.75190  Biso   1.000  C
  C62      1.0000 0.86700  0.08260  0.24810  Biso   1.000  C
  H53      1.0000 0.24220  0.96780  0.74520  Biso   1.000  H
  H54      1.0000 0.75780  0.03220  0.25480  Biso   1.000  H
  H55      1.0000 0.08800  0.97670  0.77600  Biso   1.000  H
  H56      1.0000 0.91200  0.02330  0.22400  Biso   1.000  H
  C63      1.0000 0.14700  0.84600  0.78130  Biso   1.000  C
  C64      1.0000 0.85300  0.15400  0.21870  Biso   1.000  C
  H57      1.0000 0.18010  0.88740  0.82470  Biso   1.000  H
  H58      1.0000 0.81990  0.11260  0.17530  Biso   1.000  H
  H59      1.0000 0.23580  0.81400  0.76880  Biso   1.000  H
  H60      1.0000 0.76420  0.18600  0.23120  Biso   1.000  H
  O43      1.0000 0.99520  0.33850  0.69660  Biso   1.000  O
  O44      1.0000 0.00480  0.66150  0.30340  Biso   1.000  O
  H61      1.0000 0.97700  0.38300  0.66700  Biso   1.000  H
  H62      1.0000 0.02300  0.61700  0.33300  Biso   1.000  H
  H63      1.0000 0.01000  0.26800  0.67800  Biso   1.000  H
  H64      1.0000 0.99000  0.73200  0.32200  Biso   1.000  H
  C65      1.0000 0.86900  0.70640  0.72650  Biso   1.000  C
  C66      1.0000 0.13100  0.29360  0.27350  Biso   1.000  C
  C67      1.0000 0.83800  0.79170  0.69990  Biso   1.000  C
  C68      1.0000 0.16200  0.20830  0.30010  Biso   1.000  C
  C69      1.0000 0.04100  0.95410  0.76540  Biso   1.000  C
  C70      1.0000 0.95900  0.04590  0.23460  Biso   1.000  C
  C71      1.0000 0.06900  0.87410  0.79690  Biso   1.000  C
  C72      1.0000 0.93100  0.12590  0.20310  Biso   1.000  C
  H65      1.0000 0.89500  0.64880  0.69430  Biso   1.000  H
  H66      1.0000 0.10500  0.35120  0.30570  Biso   1.000  H
  H67      1.0000 0.76800  0.65660  0.74070  Biso   1.000  H
  H68      1.0000 0.23200  0.34340  0.25930  Biso   1.000  H
  H69      1.0000 0.74550  0.81000  0.71710  Biso   1.000  H
  H70      1.0000 0.25450  0.19000  0.28290  Biso   1.000  H
  H71      1.0000 0.80260  0.75890  0.65530  Biso   1.000  H
  H72      1.0000 0.19740  0.24110  0.34470  Biso   1.000  H
  H73      1.0000 0.14390  0.02020  0.76340  Biso   1.000  H
  H74      1.0000 0.85610  0.97980  0.23660  Biso   1.000  H
  H75      1.0000 0.97310  0.99690  0.78760  Biso   1.000  H
  H76      1.0000 0.02690  0.00310  0.21240  Biso   1.000  H
  H77      1.0000 0.04070  0.89420  0.83890  Biso   1.000  H
  H78      1.0000 0.95930  0.10580  0.16110  Biso   1.000  H
  H79      1.0000 0.18710  0.89090  0.80190  Biso   1.000  H
  H80      1.0000 0.81290  0.10910  0.19810  Biso   1.000  H
  N9       1.0000 0.96300  0.91300  0.70210  Biso   1.000  N
  N10      1.0000 0.03700  0.08700  0.29790  Biso   1.000  N
