data_image0
_cell_length_a       6.4094
_cell_length_b       14.857
_cell_length_c       16.066
_cell_angle_alpha    90
_cell_angle_beta     90
_cell_angle_gamma    90

_symmetry_space_group_name_H-M    "P 1"
_symmetry_int_tables_number       1

loop_
  _symmetry_equiv_pos_as_xyz
  'x, y, z'

loop_
  _atom_site_label
  _atom_site_occupancy
  _atom_site_fract_x
  _atom_site_fract_y
  _atom_site_fract_z
  _atom_site_thermal_displace_type
  _atom_site_B_iso_or_equiv
  _atom_site_type_symbol
  Cu1      1.0000 0.24230  0.40816  0.36393  Biso   1.000  Cu
  Cu2      1.0000 0.25770  0.59184  0.86393  Biso   1.000  Cu
  Cu3      1.0000 0.75770  0.90816  0.13607  Biso   1.000  Cu
  Cu4      1.0000 0.74230  0.09184  0.63607  Biso   1.000  Cu
  Cu5      1.0000 0.98963  0.24296  0.49449  Biso   1.000  Cu
  Cu6      1.0000 0.51037  0.75704  0.99449  Biso   1.000  Cu
  Cu7      1.0000 0.01037  0.74296  0.00551  Biso   1.000  Cu
  Cu8      1.0000 0.48963  0.25704  0.50551  Biso   1.000  Cu
  O1       1.0000 0.24250  0.38180  0.24750  Biso   1.000  O
  O2       1.0000 0.25750  0.61820  0.74750  Biso   1.000  O
  O3       1.0000 0.75750  0.88180  0.25250  Biso   1.000  O
  O4       1.0000 0.74250  0.11820  0.75250  Biso   1.000  O
  O5       1.0000 0.26270  0.51750  0.96720  Biso   1.000  O
  O6       1.0000 0.23730  0.48250  0.46720  Biso   1.000  O
  O7       1.0000 0.73730  0.01750  0.53280  Biso   1.000  O
  O8       1.0000 0.76270  0.98250  0.03280  Biso   1.000  O
  O9       1.0000 0.24510  0.27370  0.43660  Biso   1.000  O
  O10      1.0000 0.25490  0.72630  0.93660  Biso   1.000  O
  O11      1.0000 0.75490  0.77370  0.06340  Biso   1.000  O
  O12      1.0000 0.74510  0.22630  0.56340  Biso   1.000  O
  O13      1.0000 0.28070  0.42850  0.85780  Biso   1.000  O
  O14      1.0000 0.21930  0.57150  0.35780  Biso   1.000  O
  O15      1.0000 0.71930  0.92850  0.64220  Biso   1.000  O
  O16      1.0000 0.78070  0.07150  0.14220  Biso   1.000  O
  O17      1.0000 0.92500  0.12730  0.40890  Biso   1.000  O
  O18      1.0000 0.57500  0.87270  0.90890  Biso   1.000  O
  O19      1.0000 0.07500  0.62730  0.09110  Biso   1.000  O
  O20      1.0000 0.42500  0.37270  0.59110  Biso   1.000  O
  O21      1.0000 0.27800  0.23420  0.26690  Biso   1.000  O
  O22      1.0000 0.22200  0.76580  0.76690  Biso   1.000  O
  O23      1.0000 0.72200  0.73420  0.23310  Biso   1.000  O
  O24      1.0000 0.77800  0.26580  0.73310  Biso   1.000  O
  O25      1.0000 0.26930  0.10390  0.89220  Biso   1.000  O
  O26      1.0000 0.23070  0.89610  0.39220  Biso   1.000  O
  O27      1.0000 0.73070  0.60390  0.60780  Biso   1.000  O
  O28      1.0000 0.76930  0.39610  0.10780  Biso   1.000  O
  O29      1.0000 0.25930  0.04330  0.01420  Biso   1.000  O
  O30      1.0000 0.24070  0.95670  0.51420  Biso   1.000  O
  O31      1.0000 0.74070  0.54330  0.48580  Biso   1.000  O
  O32      1.0000 0.75930  0.45670  0.98580  Biso   1.000  O
  O33      1.0000 0.69700  0.17310  0.27420  Biso   1.000  O
  O34      1.0000 0.80300  0.82690  0.77420  Biso   1.000  O
  O35      1.0000 0.30300  0.67310  0.22580  Biso   1.000  O
  O36      1.0000 0.19700  0.32690  0.72580  Biso   1.000  O
  O37      1.0000 0.49600  0.09580  0.36900  Biso   1.000  O
  O38      1.0000 0.00400  0.90420  0.86900  Biso   1.000  O
  O39      1.0000 0.50400  0.59580  0.13100  Biso   1.000  O
  O40      1.0000 0.99600  0.40420  0.63100  Biso   1.000  O
  N1       1.0000 0.91580  0.39470  0.36950  Biso   1.000  N
  N2       1.0000 0.58420  0.60530  0.86950  Biso   1.000  N
  N3       1.0000 0.08420  0.89470  0.13050  Biso   1.000  N
  N4       1.0000 0.41580  0.10530  0.63050  Biso   1.000  N
  N5       1.0000 0.56700  0.39510  0.37040  Biso   1.000  N
  N6       1.0000 0.93300  0.60490  0.87040  Biso   1.000  N
  N7       1.0000 0.43300  0.89510  0.12960  Biso   1.000  N
  N8       1.0000 0.06700  0.10490  0.62960  Biso   1.000  N
  N9       1.0000 0.64110  0.33780  0.42820  Biso   1.000  N
  N10      1.0000 0.85890  0.66220  0.92820  Biso   1.000  N
  N11      1.0000 0.35890  0.83780  0.07180  Biso   1.000  N
  N12      1.0000 0.14110  0.16220  0.57180  Biso   1.000  N
  N13      1.0000 0.84290  0.33530  0.42530  Biso   1.000  N
  N14      1.0000 0.65710  0.66470  0.92530  Biso   1.000  N
  N15      1.0000 0.15710  0.83530  0.07470  Biso   1.000  N
  N16      1.0000 0.34290  0.16470  0.57470  Biso   1.000  N
  N17      1.0000 0.74400  0.49530  0.27660  Biso   1.000  N
  N18      1.0000 0.75600  0.50470  0.77660  Biso   1.000  N
  N19      1.0000 0.25600  0.99530  0.22340  Biso   1.000  N
  N20      1.0000 0.24400  0.00470  0.72340  Biso   1.000  N
  H1       1.0000 0.85930  0.51720  0.25810  Biso   1.000  H
  H2       1.0000 0.64070  0.48280  0.75810  Biso   1.000  H
  H3       1.0000 0.14070  0.01720  0.24190  Biso   1.000  H
  H4       1.0000 0.35930  0.98280  0.74190  Biso   1.000  H
  H5       1.0000 0.62700  0.51490  0.25770  Biso   1.000  H
  H6       1.0000 0.87300  0.48510  0.75770  Biso   1.000  H
  H7       1.0000 0.37300  0.01490  0.24230  Biso   1.000  H
  H8       1.0000 0.12700  0.98510  0.74230  Biso   1.000  H
  N21      1.0000 0.26940  0.10810  0.96750  Biso   1.000  N
  N22      1.0000 0.23060  0.89190  0.46750  Biso   1.000  N
  N23      1.0000 0.73060  0.60810  0.53250  Biso   1.000  N
  N24      1.0000 0.76940  0.39190  0.03250  Biso   1.000  N
  C1       1.0000 0.26090  0.29110  0.12760  Biso   1.000  C
  C2       1.0000 0.23910  0.70890  0.62760  Biso   1.000  C
  C3       1.0000 0.73910  0.79110  0.37240  Biso   1.000  C
  C4       1.0000 0.76090  0.20890  0.87240  Biso   1.000  C
  C5       1.0000 0.26490  0.36700  0.07650  Biso   1.000  C
  C6       1.0000 0.23510  0.63300  0.57650  Biso   1.000  C
  C7       1.0000 0.73510  0.86700  0.42350  Biso   1.000  C
  C8       1.0000 0.76490  0.13300  0.92350  Biso   1.000  C
  H9       1.0000 0.26510  0.42400  0.10040  Biso   1.000  H
  H10      1.0000 0.23490  0.57600  0.60040  Biso   1.000  H
  H11      1.0000 0.73490  0.92400  0.39960  Biso   1.000  H
  H12      1.0000 0.76510  0.07600  0.89960  Biso   1.000  H
  C9       1.0000 0.26860  0.35870  0.98970  Biso   1.000  C
  C10      1.0000 0.23140  0.64130  0.48970  Biso   1.000  C
  C11      1.0000 0.73140  0.85870  0.51030  Biso   1.000  C
  C12      1.0000 0.76860  0.14130  0.01030  Biso   1.000  C
  C13      1.0000 0.26700  0.27190  0.95380  Biso   1.000  C
  C14      1.0000 0.23300  0.72810  0.45380  Biso   1.000  C
  C15      1.0000 0.73300  0.77190  0.54620  Biso   1.000  C
  C16      1.0000 0.76700  0.22810  0.04620  Biso   1.000  C
  H13      1.0000 0.26540  0.26430  0.89640  Biso   1.000  H
  H14      1.0000 0.23460  0.73570  0.39640  Biso   1.000  H
  H15      1.0000 0.73460  0.76430  0.60360  Biso   1.000  H
  H16      1.0000 0.76540  0.23570  0.10360  Biso   1.000  H
  C17      1.0000 0.26800  0.19910  0.00690  Biso   1.000  C
  C18      1.0000 0.23200  0.80090  0.50690  Biso   1.000  C
  C19      1.0000 0.73200  0.69910  0.49310  Biso   1.000  C
  C20      1.0000 0.76800  0.30090  0.99310  Biso   1.000  C
  C21      1.0000 0.26430  0.20580  0.09270  Biso   1.000  C
  C22      1.0000 0.23570  0.79420  0.59270  Biso   1.000  C
  C23      1.0000 0.73570  0.70580  0.40730  Biso   1.000  C
  C24      1.0000 0.76430  0.29420  0.90730  Biso   1.000  C
  H17      1.0000 0.26420  0.15470  0.12610  Biso   1.000  H
  H18      1.0000 0.23580  0.84530  0.62610  Biso   1.000  H
  H19      1.0000 0.73580  0.65470  0.37390  Biso   1.000  H
  H20      1.0000 0.76420  0.34530  0.87390  Biso   1.000  H
  C25      1.0000 0.26270  0.30190  0.22200  Biso   1.000  C
  C26      1.0000 0.23730  0.69810  0.72200  Biso   1.000  C
  C27      1.0000 0.73730  0.80190  0.27800  Biso   1.000  C
  C28      1.0000 0.76270  0.19810  0.77800  Biso   1.000  C
  C29      1.0000 0.27160  0.43890  0.93340  Biso   1.000  C
  C30      1.0000 0.22840  0.56110  0.43340  Biso   1.000  C
  C31      1.0000 0.72840  0.93890  0.56660  Biso   1.000  C
  C32      1.0000 0.77160  0.06110  0.06660  Biso   1.000  C
  C33      1.0000 0.74680  0.43040  0.33530  Biso   1.000  C
  C34      1.0000 0.75320  0.56960  0.83530  Biso   1.000  C
  C35      1.0000 0.25320  0.93040  0.16470  Biso   1.000  C
  C36      1.0000 0.24680  0.06960  0.66470  Biso   1.000  C
