data_image0
_cell_length_a       10.0134
_cell_length_b       6.5861
_cell_length_c       11.4842
_cell_angle_alpha    90
_cell_angle_beta     90.144
_cell_angle_gamma    90

_symmetry_space_group_name_H-M    "P 1"
_symmetry_int_tables_number       1

loop_
  _symmetry_equiv_pos_as_xyz
  'x, y, z'

loop_
  _atom_site_label
  _atom_site_occupancy
  _atom_site_fract_x
  _atom_site_fract_y
  _atom_site_fract_z
  _atom_site_thermal_displace_type
  _atom_site_B_iso_or_equiv
  _atom_site_type_symbol
  Cu1      1.0000 0.99118  0.25000  0.72874  Biso   1.000  Cu
  Cu2      1.0000 0.00882  0.75000  0.27126  Biso   1.000  Cu
  Cu3      1.0000 0.00000  0.00000  0.00000  Biso   1.000  Cu
  Cu4      1.0000 0.00000  0.50000  0.00000  Biso   1.000  Cu
  O1       1.0000 0.16240  0.25000  0.65720  Biso   1.000  O
  O2       1.0000 0.83760  0.75000  0.34280  Biso   1.000  O
  O3       1.0000 0.79230  0.25000  0.74460  Biso   1.000  O
  O4       1.0000 0.20770  0.75000  0.25540  Biso   1.000  O
  O5       1.0000 0.04130  0.25000  0.91590  Biso   1.000  O
  O6       1.0000 0.95870  0.75000  0.08410  Biso   1.000  O
  O7       1.0000 0.86280  0.25000  0.56460  Biso   1.000  O
  O8       1.0000 0.13720  0.75000  0.43540  Biso   1.000  O
  O9       1.0000 0.29160  0.25000  0.81510  Biso   1.000  O
  O10      1.0000 0.70840  0.75000  0.18490  Biso   1.000  O
  O11      1.0000 0.54970  0.25000  0.24410  Biso   1.000  O
  O12      1.0000 0.45030  0.75000  0.75590  Biso   1.000  O
  O13      1.0000 0.33820  0.25000  0.27290  Biso   1.000  O
  O14      1.0000 0.66180  0.75000  0.72710  Biso   1.000  O
  O15      1.0000 0.75560  0.04490  0.97680  Biso   1.000  O
  O16      1.0000 0.24440  0.54490  0.02320  Biso   1.000  O
  O17      1.0000 0.24440  0.95510  0.02320  Biso   1.000  O
  O18      1.0000 0.75560  0.45510  0.97680  Biso   1.000  O
  O19      1.0000 0.47500  0.25000  0.98700  Biso   1.000  O
  O20      1.0000 0.52500  0.75000  0.01300  Biso   1.000  O
  N1       1.0000 0.99450  0.91740  0.74200  Biso   1.000  N
  N2       1.0000 0.00550  0.41740  0.25800  Biso   1.000  N
  N3       1.0000 0.00550  0.08260  0.25800  Biso   1.000  N
  N4       1.0000 0.99450  0.58260  0.74200  Biso   1.000  N
  N5       1.0000 0.99420  0.84860  0.85000  Biso   1.000  N
  N6       1.0000 0.00580  0.34860  0.15000  Biso   1.000  N
  N7       1.0000 0.00580  0.15140  0.15000  Biso   1.000  N
  N8       1.0000 0.99420  0.65140  0.85000  Biso   1.000  N
  N9       1.0000 0.45370  0.25000  0.30590  Biso   1.000  N
  N10      1.0000 0.54630  0.75000  0.69410  Biso   1.000  N
  C1       1.0000 0.39030  0.25000  0.62620  Biso   1.000  C
  C2       1.0000 0.60970  0.75000  0.37380  Biso   1.000  C
  C3       1.0000 0.52010  0.25000  0.66950  Biso   1.000  C
  C4       1.0000 0.47990  0.75000  0.33050  Biso   1.000  C
  H1       1.0000 0.53440  0.25000  0.74960  Biso   1.000  H
  H2       1.0000 0.46560  0.75000  0.25040  Biso   1.000  H
  C5       1.0000 0.62880  0.25000  0.59420  Biso   1.000  C
  C6       1.0000 0.37120  0.75000  0.40580  Biso   1.000  C
  C7       1.0000 0.60800  0.25000  0.47490  Biso   1.000  C
  C8       1.0000 0.39200  0.75000  0.52510  Biso   1.000  C
  H3       1.0000 0.67940  0.25000  0.42330  Biso   1.000  H
  H4       1.0000 0.32060  0.75000  0.57670  Biso   1.000  H
  C9       1.0000 0.47820  0.25000  0.43530  Biso   1.000  C
  C10      1.0000 0.52180  0.75000  0.56470  Biso   1.000  C
  C11      1.0000 0.37000  0.25000  0.50720  Biso   1.000  C
  C12      1.0000 0.63000  0.75000  0.49280  Biso   1.000  C
  H5       1.0000 0.28390  0.25000  0.47660  Biso   1.000  H
  H6       1.0000 0.71610  0.75000  0.52340  Biso   1.000  H
  C13      1.0000 0.27290  0.25000  0.70880  Biso   1.000  C
  C14      1.0000 0.72710  0.75000  0.29120  Biso   1.000  C
  C15      1.0000 0.77080  0.25000  0.63680  Biso   1.000  C
  C16      1.0000 0.22920  0.75000  0.36320  Biso   1.000  C
  C17      1.0000 0.99700  0.75000  0.67670  Biso   1.000  C
  C18      1.0000 0.00300  0.25000  0.32330  Biso   1.000  C
  H7       1.0000 0.00020  0.75000  0.59580  Biso   1.000  H
  H8       1.0000 0.99980  0.25000  0.40420  Biso   1.000  H
