data_image0
_cell_length_a       18.799
_cell_length_b       16.226
_cell_length_c       19.031
_cell_angle_alpha    90
_cell_angle_beta     90.177
_cell_angle_gamma    90

_symmetry_space_group_name_H-M    "P 1"
_symmetry_int_tables_number       1

loop_
  _symmetry_equiv_pos_as_xyz
  'x, y, z'

loop_
  _atom_site_label
  _atom_site_occupancy
  _atom_site_fract_x
  _atom_site_fract_y
  _atom_site_fract_z
  _atom_site_thermal_displace_type
  _atom_site_B_iso_or_equiv
  _atom_site_type_symbol
  Cu1      1.0000 0.12109  0.26527  0.04289  Biso   1.000  Cu
  Cu2      1.0000 0.87891  0.76527  0.45711  Biso   1.000  Cu
  Cu3      1.0000 0.87891  0.73473  0.95711  Biso   1.000  Cu
  Cu4      1.0000 0.12109  0.23473  0.54289  Biso   1.000  Cu
  Cu5      1.0000 0.62188  0.23684  0.96588  Biso   1.000  Cu
  Cu6      1.0000 0.37812  0.73684  0.53412  Biso   1.000  Cu
  Cu7      1.0000 0.37812  0.76316  0.03412  Biso   1.000  Cu
  Cu8      1.0000 0.62188  0.26316  0.46588  Biso   1.000  Cu
  S1       1.0000 0.39900  0.37620  0.29020  Biso   1.000  S
  S2       1.0000 0.60100  0.87620  0.20980  Biso   1.000  S
  S3       1.0000 0.60100  0.62380  0.70980  Biso   1.000  S
  S4       1.0000 0.39900  0.12380  0.79020  Biso   1.000  S
  S5       1.0000 0.88340  0.14113  0.70941  Biso   1.000  S
  S6       1.0000 0.11660  0.64113  0.79059  Biso   1.000  S
  S7       1.0000 0.11660  0.85887  0.29059  Biso   1.000  S
  S8       1.0000 0.88340  0.35887  0.20941  Biso   1.000  S
  O1       1.0000 0.44500  0.44310  0.29190  Biso   1.000  O
  O2       1.0000 0.55500  0.94310  0.20810  Biso   1.000  O
  O3       1.0000 0.55500  0.55690  0.70810  Biso   1.000  O
  O4       1.0000 0.44500  0.05690  0.79190  Biso   1.000  O
  O5       1.0000 0.90130  0.05880  0.71170  Biso   1.000  O
  O6       1.0000 0.09870  0.55880  0.78830  Biso   1.000  O
  O7       1.0000 0.09870  0.94120  0.28830  Biso   1.000  O
  O8       1.0000 0.90130  0.44120  0.21170  Biso   1.000  O
  O9       1.0000 0.33000  0.39650  0.30690  Biso   1.000  O
  O10      1.0000 0.67000  0.89650  0.19310  Biso   1.000  O
  O11      1.0000 0.67000  0.60350  0.69310  Biso   1.000  O
  O12      1.0000 0.33000  0.10350  0.80690  Biso   1.000  O
  O13      1.0000 0.80880  0.15320  0.68510  Biso   1.000  O
  O14      1.0000 0.19120  0.65320  0.81490  Biso   1.000  O
  O15      1.0000 0.19120  0.84680  0.31490  Biso   1.000  O
  O16      1.0000 0.80880  0.34680  0.18510  Biso   1.000  O
  O17      1.0000 0.58740  0.27470  0.10810  Biso   1.000  O
  O18      1.0000 0.41260  0.77470  0.39190  Biso   1.000  O
  O19      1.0000 0.41260  0.72530  0.89190  Biso   1.000  O
  O20      1.0000 0.58740  0.22530  0.60810  Biso   1.000  O
  O21      1.0000 0.26680  0.29250  0.98830  Biso   1.000  O
  O22      1.0000 0.73320  0.79250  0.51170  Biso   1.000  O
  O23      1.0000 0.73320  0.70750  0.01170  Biso   1.000  O
  O24      1.0000 0.26680  0.20750  0.48830  Biso   1.000  O
  O25      1.0000 0.76900  0.22680  0.00870  Biso   1.000  O
  O26      1.0000 0.23100  0.72680  0.49130  Biso   1.000  O
  O27      1.0000 0.23100  0.77320  0.99130  Biso   1.000  O
  O28      1.0000 0.76900  0.27320  0.50870  Biso   1.000  O
  O29      1.0000 0.42340  0.30930  0.33470  Biso   1.000  O
  O30      1.0000 0.57660  0.80930  0.16530  Biso   1.000  O
  O31      1.0000 0.57660  0.69070  0.66530  Biso   1.000  O
  O32      1.0000 0.42340  0.19070  0.83470  Biso   1.000  O
  O33      1.0000 0.93060  0.19420  0.66850  Biso   1.000  O
  O34      1.0000 0.06940  0.69420  0.83150  Biso   1.000  O
  O35      1.0000 0.06940  0.80580  0.33150  Biso   1.000  O
  O36      1.0000 0.93060  0.30580  0.16850  Biso   1.000  O
  O37      1.0000 0.53080  0.24450  0.00760  Biso   1.000  O
  O38      1.0000 0.46920  0.74450  0.49240  Biso   1.000  O
  O39      1.0000 0.46920  0.75550  0.99240  Biso   1.000  O
  O40      1.0000 0.53080  0.25550  0.50760  Biso   1.000  O
  O41      1.0000 0.02890  0.24950  0.99590  Biso   1.000  O
  O42      1.0000 0.97110  0.74950  0.50410  Biso   1.000  O
  O43      1.0000 0.97110  0.75050  0.00410  Biso   1.000  O
  O44      1.0000 0.02890  0.25050  0.49590  Biso   1.000  O
  O45      1.0000 0.70970  0.23380  0.91090  Biso   1.000  O
  O46      1.0000 0.29030  0.73380  0.58910  Biso   1.000  O
  O47      1.0000 0.29030  0.76620  0.08910  Biso   1.000  O
  O48      1.0000 0.70970  0.26620  0.41090  Biso   1.000  O
  O49      1.0000 0.21060  0.27990  0.09230  Biso   1.000  O
  O50      1.0000 0.78940  0.77990  0.40770  Biso   1.000  O
  O51      1.0000 0.78940  0.72010  0.90770  Biso   1.000  O
  O52      1.0000 0.21060  0.22010  0.59230  Biso   1.000  O
  O53      1.0000 0.08360  0.23720  0.89470  Biso   1.000  O
  O54      1.0000 0.91640  0.73720  0.60530  Biso   1.000  O
  O55      1.0000 0.91640  0.76280  0.10530  Biso   1.000  O
  O56      1.0000 0.08360  0.26280  0.39470  Biso   1.000  O
  O57      1.0000 0.07350  0.25670  0.15080  Biso   1.000  O
  O58      1.0000 0.92650  0.75670  0.34920  Biso   1.000  O
  O59      1.0000 0.92650  0.74330  0.84920  Biso   1.000  O
  O60      1.0000 0.07350  0.24330  0.65080  Biso   1.000  O
  O61      1.0000 0.56660  0.22940  0.85870  Biso   1.000  O
  O62      1.0000 0.43340  0.72940  0.64130  Biso   1.000  O
  O63      1.0000 0.43340  0.77060  0.14130  Biso   1.000  O
  O64      1.0000 0.56660  0.27060  0.35870  Biso   1.000  O
  N1       1.0000 0.68970  0.95800  0.81540  Biso   1.000  N
  N2       1.0000 0.31030  0.45800  0.68460  Biso   1.000  N
  N3       1.0000 0.31030  0.04200  0.18460  Biso   1.000  N
  N4       1.0000 0.68970  0.54200  0.31540  Biso   1.000  N
  N5       1.0000 0.69960  0.96300  0.66220  Biso   1.000  N
  N6       1.0000 0.30040  0.46300  0.83780  Biso   1.000  N
  N7       1.0000 0.30040  0.03700  0.33780  Biso   1.000  N
  N8       1.0000 0.69960  0.53700  0.16220  Biso   1.000  N
  H1       1.0000 0.65400  0.95800  0.67400  Biso   1.000  H
  H2       1.0000 0.34600  0.45800  0.82600  Biso   1.000  H
  H3       1.0000 0.34600  0.04200  0.32600  Biso   1.000  H
  H4       1.0000 0.65400  0.54200  0.17400  Biso   1.000  H
  N9       1.0000 0.18100  0.96680  0.84460  Biso   1.000  N
  N10      1.0000 0.81900  0.46680  0.65540  Biso   1.000  N
  N11      1.0000 0.81900  0.03320  0.15540  Biso   1.000  N
  N12      1.0000 0.18100  0.53320  0.34460  Biso   1.000  N
  H5       1.0000 0.16570  0.91330  0.85970  Biso   1.000  H
  H6       1.0000 0.83430  0.41330  0.64030  Biso   1.000  H
  H7       1.0000 0.83430  0.08670  0.14030  Biso   1.000  H
  H8       1.0000 0.16570  0.58670  0.35970  Biso   1.000  H
  N13      1.0000 0.62020  0.11460  0.98170  Biso   1.000  N
  N14      1.0000 0.37980  0.61460  0.51830  Biso   1.000  N
  N15      1.0000 0.37980  0.88540  0.01830  Biso   1.000  N
  N16      1.0000 0.62020  0.38540  0.48170  Biso   1.000  N
  N17      1.0000 0.63150  0.14280  0.47760  Biso   1.000  N
  N18      1.0000 0.36850  0.64280  0.02240  Biso   1.000  N
  N19      1.0000 0.36850  0.85720  0.52240  Biso   1.000  N
  N20      1.0000 0.63150  0.35720  0.97760  Biso   1.000  N
  N21      1.0000 0.13900  0.14340  0.03330  Biso   1.000  N
  N22      1.0000 0.86100  0.64340  0.46670  Biso   1.000  N
  N23      1.0000 0.86100  0.85660  0.96670  Biso   1.000  N
  N24      1.0000 0.13900  0.35660  0.53330  Biso   1.000  N
  N25      1.0000 0.10120  0.97350  0.71990  Biso   1.000  N
  N26      1.0000 0.89880  0.47350  0.78010  Biso   1.000  N
  N27      1.0000 0.89880  0.02650  0.28010  Biso   1.000  N
  N28      1.0000 0.10120  0.52650  0.21990  Biso   1.000  N
  N29      1.0000 0.11030  0.11080  0.53120  Biso   1.000  N
  N30      1.0000 0.88970  0.61080  0.96880  Biso   1.000  N
  N31      1.0000 0.88970  0.88920  0.46880  Biso   1.000  N
  N32      1.0000 0.11030  0.38920  0.03120  Biso   1.000  N
  C1       1.0000 0.75700  0.92800  0.70890  Biso   1.000  C
  C2       1.0000 0.24300  0.42800  0.79110  Biso   1.000  C
  C3       1.0000 0.24300  0.07200  0.29110  Biso   1.000  C
  C4       1.0000 0.75700  0.57200  0.20890  Biso   1.000  C
  H9       1.0000 0.79090  0.97090  0.72090  Biso   1.000  H
  H10      1.0000 0.20910  0.47090  0.77910  Biso   1.000  H
  H11      1.0000 0.20910  0.02910  0.27910  Biso   1.000  H
  H12      1.0000 0.79090  0.52910  0.22090  Biso   1.000  H
  H13      1.0000 0.78230  0.88480  0.68400  Biso   1.000  H
  H14      1.0000 0.21770  0.38480  0.81600  Biso   1.000  H
  H15      1.0000 0.21770  0.11520  0.31600  Biso   1.000  H
  H16      1.0000 0.78230  0.61520  0.18400  Biso   1.000  H
  C5       1.0000 0.63550  0.97500  0.93260  Biso   1.000  C
  C6       1.0000 0.36450  0.47500  0.56740  Biso   1.000  C
  C7       1.0000 0.36450  0.02500  0.06740  Biso   1.000  C
  C8       1.0000 0.63550  0.52500  0.43260  Biso   1.000  C
  C9       1.0000 0.72620  0.89490  0.77200  Biso   1.000  C
  C10      1.0000 0.27380  0.39490  0.72800  Biso   1.000  C
  C11      1.0000 0.27380  0.10510  0.22800  Biso   1.000  C
  C12      1.0000 0.72620  0.60510  0.27200  Biso   1.000  C
  H17      1.0000 0.69220  0.85240  0.75940  Biso   1.000  H
  H18      1.0000 0.30780  0.35240  0.74060  Biso   1.000  H
  H19      1.0000 0.30780  0.14760  0.24060  Biso   1.000  H
  H20      1.0000 0.69220  0.64760  0.25940  Biso   1.000  H
  H21      1.0000 0.76340  0.86940  0.79990  Biso   1.000  H
  H22      1.0000 0.23660  0.36940  0.70010  Biso   1.000  H
  H23      1.0000 0.23660  0.13060  0.20010  Biso   1.000  H
  H24      1.0000 0.76340  0.63060  0.29990  Biso   1.000  H
  C13      1.0000 0.63130  0.99330  0.77180  Biso   1.000  C
  C14      1.0000 0.36870  0.49330  0.72820  Biso   1.000  C
  C15      1.0000 0.36870  0.00670  0.22820  Biso   1.000  C
  C16      1.0000 0.63130  0.50670  0.27180  Biso   1.000  C
  H25      1.0000 0.59670  0.95060  0.76110  Biso   1.000  H
  H26      1.0000 0.40330  0.45060  0.73890  Biso   1.000  H
  H27      1.0000 0.40330  0.04940  0.23890  Biso   1.000  H
  H28      1.0000 0.59670  0.54940  0.26110  Biso   1.000  H
  H29      1.0000 0.60730  0.03640  0.79790  Biso   1.000  H
  H30      1.0000 0.39270  0.53640  0.70210  Biso   1.000  H
  H31      1.0000 0.39270  0.96360  0.20210  Biso   1.000  H
  H32      1.0000 0.60730  0.46360  0.29790  Biso   1.000  H
  C17      1.0000 0.65990  0.91840  0.87800  Biso   1.000  C
  C18      1.0000 0.34010  0.41840  0.62200  Biso   1.000  C
  C19      1.0000 0.34010  0.08160  0.12200  Biso   1.000  C
  C20      1.0000 0.65990  0.58160  0.37800  Biso   1.000  C
  H33      1.0000 0.69580  0.88240  0.89810  Biso   1.000  H
  H34      1.0000 0.30420  0.38240  0.60190  Biso   1.000  H
  H35      1.0000 0.30420  0.11760  0.10190  Biso   1.000  H
  H36      1.0000 0.69580  0.61760  0.39810  Biso   1.000  H
  H37      1.0000 0.62010  0.88410  0.86370  Biso   1.000  H
  H38      1.0000 0.37990  0.38410  0.63630  Biso   1.000  H
  H39      1.0000 0.37990  0.11590  0.13630  Biso   1.000  H
  H40      1.0000 0.62010  0.61590  0.36370  Biso   1.000  H
  C21      1.0000 0.64430  0.06530  0.93390  Biso   1.000  C
  C22      1.0000 0.35570  0.56530  0.56610  Biso   1.000  C
  C23      1.0000 0.35570  0.93470  0.06610  Biso   1.000  C
  C24      1.0000 0.64430  0.43470  0.43390  Biso   1.000  C
  H41      1.0000 0.66940  0.08890  0.89700  Biso   1.000  H
  H42      1.0000 0.33060  0.58890  0.60300  Biso   1.000  H
  H43      1.0000 0.33060  0.91110  0.10300  Biso   1.000  H
  H44      1.0000 0.66940  0.41110  0.39700  Biso   1.000  H
  C25      1.0000 0.66010  0.02840  0.70420  Biso   1.000  C
  C26      1.0000 0.33990  0.52840  0.79580  Biso   1.000  C
  C27      1.0000 0.33990  0.97160  0.29580  Biso   1.000  C
  C28      1.0000 0.66010  0.47160  0.20420  Biso   1.000  C
  H45      1.0000 0.62120  0.05010  0.67620  Biso   1.000  H
  H46      1.0000 0.37880  0.55010  0.82380  Biso   1.000  H
  H47      1.0000 0.37880  0.94990  0.32380  Biso   1.000  H
  H48      1.0000 0.62120  0.44990  0.17620  Biso   1.000  H
  H49      1.0000 0.69230  0.07350  0.71490  Biso   1.000  H
  H50      1.0000 0.30770  0.57350  0.78510  Biso   1.000  H
  H51      1.0000 0.30770  0.92650  0.28510  Biso   1.000  H
  H52      1.0000 0.69230  0.42650  0.21490  Biso   1.000  H
  C29      1.0000 0.39770  0.33620  0.20300  Biso   1.000  C
  C30      1.0000 0.60230  0.83620  0.29700  Biso   1.000  C
  C31      1.0000 0.60230  0.66380  0.79700  Biso   1.000  C
  C32      1.0000 0.39770  0.16380  0.70300  Biso   1.000  C
  C33      1.0000 0.73110  0.99440  0.59720  Biso   1.000  C
  C34      1.0000 0.26890  0.49440  0.90280  Biso   1.000  C
  C35      1.0000 0.26890  0.00560  0.40280  Biso   1.000  C
  C36      1.0000 0.73110  0.50560  0.09720  Biso   1.000  C
  H53      1.0000 0.76440  0.03810  0.60870  Biso   1.000  H
  H54      1.0000 0.23560  0.53810  0.89130  Biso   1.000  H
  H55      1.0000 0.23560  0.96190  0.39130  Biso   1.000  H
  H56      1.0000 0.76440  0.46190  0.10870  Biso   1.000  H
  H57      1.0000 0.75760  0.95040  0.57470  Biso   1.000  H
  H58      1.0000 0.24240  0.45040  0.92530  Biso   1.000  H
  H59      1.0000 0.24240  0.04960  0.42530  Biso   1.000  H
  H60      1.0000 0.75760  0.54960  0.07470  Biso   1.000  H
  C37      1.0000 0.46070  0.31600  0.16980  Biso   1.000  C
  C38      1.0000 0.53930  0.81600  0.33020  Biso   1.000  C
  C39      1.0000 0.53930  0.68400  0.83020  Biso   1.000  C
  C40      1.0000 0.46070  0.18400  0.66980  Biso   1.000  C
  H61      1.0000 0.50320  0.32050  0.19460  Biso   1.000  H
  H62      1.0000 0.49680  0.82050  0.30540  Biso   1.000  H
  H63      1.0000 0.49680  0.67950  0.80540  Biso   1.000  H
  H64      1.0000 0.50320  0.17950  0.69460  Biso   1.000  H
  C41      1.0000 0.33460  0.30190  0.09740  Biso   1.000  C
  C42      1.0000 0.66540  0.80190  0.40260  Biso   1.000  C
  C43      1.0000 0.66540  0.69810  0.90260  Biso   1.000  C
  C44      1.0000 0.33460  0.19810  0.59740  Biso   1.000  C
  C45      1.0000 0.67770  0.11000  0.52690  Biso   1.000  C
  C46      1.0000 0.32230  0.61000  0.97310  Biso   1.000  C
  C47      1.0000 0.32230  0.89000  0.47310  Biso   1.000  C
  C48      1.0000 0.67770  0.39000  0.02690  Biso   1.000  C
  H65      1.0000 0.71130  0.14420  0.54790  Biso   1.000  H
  H66      1.0000 0.28870  0.64420  0.95210  Biso   1.000  H
  H67      1.0000 0.28870  0.85580  0.45210  Biso   1.000  H
  H68      1.0000 0.71130  0.35580  0.04790  Biso   1.000  H
  C49      1.0000 0.83270  0.21350  0.90420  Biso   1.000  C
  C50      1.0000 0.16730  0.71350  0.59580  Biso   1.000  C
  C51      1.0000 0.16730  0.78650  0.09580  Biso   1.000  C
  C52      1.0000 0.83270  0.28650  0.40420  Biso   1.000  C
  C53      1.0000 0.17420  0.11350  0.98000  Biso   1.000  C
  C54      1.0000 0.82580  0.61350  0.52000  Biso   1.000  C
  C55      1.0000 0.82580  0.88650  0.02000  Biso   1.000  C
  C56      1.0000 0.17420  0.38650  0.48000  Biso   1.000  C
  H69      1.0000 0.19430  0.15140  0.94930  Biso   1.000  H
  H70      1.0000 0.80570  0.65140  0.55070  Biso   1.000  H
  H71      1.0000 0.80570  0.84860  0.05070  Biso   1.000  H
  H72      1.0000 0.19430  0.34860  0.44930  Biso   1.000  H
  C57      1.0000 0.58330  0.99800  0.04520  Biso   1.000  C
  C58      1.0000 0.41670  0.49800  0.45480  Biso   1.000  C
  C59      1.0000 0.41670  0.00200  0.95480  Biso   1.000  C
  C60      1.0000 0.58330  0.50200  0.54520  Biso   1.000  C
  H73      1.0000 0.56480  0.97770  0.08700  Biso   1.000  H
  H74      1.0000 0.43520  0.47770  0.41300  Biso   1.000  H
  H75      1.0000 0.43520  0.02230  0.91300  Biso   1.000  H
  H76      1.0000 0.56480  0.52230  0.58700  Biso   1.000  H
  C61      1.0000 0.95420  0.19120  0.82670  Biso   1.000  C
  C62      1.0000 0.04580  0.69120  0.67330  Biso   1.000  C
  C63      1.0000 0.04580  0.80880  0.17330  Biso   1.000  C
  C64      1.0000 0.95420  0.30880  0.32670  Biso   1.000  C
  H77      1.0000 0.99530  0.18610  0.79990  Biso   1.000  H
  H78      1.0000 0.00470  0.68610  0.70010  Biso   1.000  H
  H79      1.0000 0.00470  0.81390  0.20010  Biso   1.000  H
  H80      1.0000 0.99530  0.31390  0.29990  Biso   1.000  H
  C65      1.0000 0.33460  0.32540  0.16520  Biso   1.000  C
  C66      1.0000 0.66540  0.82540  0.33480  Biso   1.000  C
  C67      1.0000 0.66540  0.67460  0.83480  Biso   1.000  C
  C68      1.0000 0.33460  0.17460  0.66520  Biso   1.000  C
  H81      1.0000 0.29140  0.33470  0.18750  Biso   1.000  H
  H82      1.0000 0.70860  0.83470  0.31250  Biso   1.000  H
  H83      1.0000 0.70860  0.66530  0.81250  Biso   1.000  H
  H84      1.0000 0.29140  0.16530  0.68750  Biso   1.000  H
  C69      1.0000 0.88830  0.17520  0.79640  Biso   1.000  C
  C70      1.0000 0.11170  0.67520  0.70360  Biso   1.000  C
  C71      1.0000 0.11170  0.82480  0.20360  Biso   1.000  C
  C72      1.0000 0.88830  0.32480  0.29640  Biso   1.000  C
  C73      1.0000 0.46200  0.29080  0.10460  Biso   1.000  C
  C74      1.0000 0.53800  0.79080  0.39540  Biso   1.000  C
  C75      1.0000 0.53800  0.70920  0.89540  Biso   1.000  C
  C76      1.0000 0.46200  0.20920  0.60460  Biso   1.000  C
  C77      1.0000 0.26640  0.29170  0.05340  Biso   1.000  C
  C78      1.0000 0.73360  0.79170  0.44660  Biso   1.000  C
  C79      1.0000 0.73360  0.70830  0.94660  Biso   1.000  C
  C80      1.0000 0.26640  0.20830  0.55340  Biso   1.000  C
  C81      1.0000 0.82580  0.18770  0.83450  Biso   1.000  C
  C82      1.0000 0.17420  0.68770  0.66550  Biso   1.000  C
  C83      1.0000 0.17420  0.81230  0.16550  Biso   1.000  C
  C84      1.0000 0.82580  0.31230  0.33450  Biso   1.000  C
  H85      1.0000 0.78130  0.17910  0.81420  Biso   1.000  H
  H86      1.0000 0.21870  0.67910  0.68580  Biso   1.000  H
  H87      1.0000 0.21870  0.82090  0.18580  Biso   1.000  H
  H88      1.0000 0.78130  0.32090  0.31420  Biso   1.000  H
  C85      1.0000 0.89780  0.22320  0.93560  Biso   1.000  C
  C86      1.0000 0.10220  0.72320  0.56440  Biso   1.000  C
  C87      1.0000 0.10220  0.77680  0.06440  Biso   1.000  C
  C88      1.0000 0.89780  0.27680  0.43560  Biso   1.000  C
  H89      1.0000 0.90050  0.23570  0.98320  Biso   1.000  H
  H90      1.0000 0.09950  0.73570  0.51680  Biso   1.000  H
  H91      1.0000 0.09950  0.76430  0.01680  Biso   1.000  H
  H92      1.0000 0.90050  0.26430  0.48320  Biso   1.000  H
  C89      1.0000 0.76580  0.22470  0.94690  Biso   1.000  C
  C90      1.0000 0.23420  0.72470  0.55310  Biso   1.000  C
  C91      1.0000 0.23420  0.77530  0.05310  Biso   1.000  C
  C92      1.0000 0.76580  0.27530  0.44690  Biso   1.000  C
  C93      1.0000 0.95920  0.21480  0.89730  Biso   1.000  C
  C94      1.0000 0.04080  0.71480  0.60270  Biso   1.000  C
  C95      1.0000 0.04080  0.78520  0.10270  Biso   1.000  C
  C96      1.0000 0.95920  0.28520  0.39730  Biso   1.000  C
  C97      1.0000 0.39930  0.28330  0.06550  Biso   1.000  C
  C98      1.0000 0.60070  0.78330  0.43450  Biso   1.000  C
  C99      1.0000 0.60070  0.71670  0.93450  Biso   1.000  C
  C100     1.0000 0.39930  0.21670  0.56550  Biso   1.000  C
  H93      1.0000 0.40070  0.26600  0.01890  Biso   1.000  H
  H94      1.0000 0.59930  0.76600  0.48110  Biso   1.000  H
  H95      1.0000 0.59930  0.73400  0.98110  Biso   1.000  H
  H96      1.0000 0.40070  0.23400  0.51890  Biso   1.000  H
  C101     1.0000 0.03000  0.22920  0.93160  Biso   1.000  C
  C102     1.0000 0.97000  0.72920  0.56840  Biso   1.000  C
  C103     1.0000 0.97000  0.77080  0.06840  Biso   1.000  C
  C104     1.0000 0.03000  0.27080  0.43160  Biso   1.000  C
  C105     1.0000 0.53210  0.26480  0.06840  Biso   1.000  C
  C106     1.0000 0.46790  0.76480  0.43160  Biso   1.000  C
  C107     1.0000 0.46790  0.73520  0.93160  Biso   1.000  C
  C108     1.0000 0.53210  0.23520  0.56840  Biso   1.000  C
  C109     1.0000 0.59070  0.07750  0.03600  Biso   1.000  C
  C110     1.0000 0.40930  0.57750  0.46400  Biso   1.000  C
  C111     1.0000 0.40930  0.92250  0.96400  Biso   1.000  C
  C112     1.0000 0.59070  0.42250  0.53600  Biso   1.000  C
  H97      1.0000 0.57340  0.11140  0.07150  Biso   1.000  H
  H98      1.0000 0.42660  0.61140  0.42850  Biso   1.000  H
  H99      1.0000 0.42660  0.88860  0.92850  Biso   1.000  H
  H100     1.0000 0.57340  0.38860  0.57150  Biso   1.000  H
  C113     1.0000 0.67570  0.02740  0.54600  Biso   1.000  C
  C114     1.0000 0.32430  0.52740  0.95400  Biso   1.000  C
  C115     1.0000 0.32430  0.97260  0.45400  Biso   1.000  C
  C116     1.0000 0.67570  0.47260  0.04600  Biso   1.000  C
  C117     1.0000 0.18440  0.03180  0.96460  Biso   1.000  C
  C118     1.0000 0.81560  0.53180  0.53540  Biso   1.000  C
  C119     1.0000 0.81560  0.96820  0.03540  Biso   1.000  C
  C120     1.0000 0.18440  0.46820  0.46460  Biso   1.000  C
  C121     1.0000 0.22350  0.00260  0.90370  Biso   1.000  C
  C122     1.0000 0.77650  0.50260  0.59630  Biso   1.000  C
  C123     1.0000 0.77650  0.99740  0.09630  Biso   1.000  C
  C124     1.0000 0.22350  0.49740  0.40370  Biso   1.000  C
  H101     1.0000 0.25700  0.96100  0.91950  Biso   1.000  H
  H102     1.0000 0.74300  0.46100  0.58050  Biso   1.000  H
  H103     1.0000 0.74300  0.03900  0.08050  Biso   1.000  H
  H104     1.0000 0.25700  0.53900  0.41950  Biso   1.000  H
  H105     1.0000 0.25100  0.04820  0.88530  Biso   1.000  H
  H106     1.0000 0.74900  0.54820  0.61470  Biso   1.000  H
  H107     1.0000 0.74900  0.95180  0.11470  Biso   1.000  H
  H108     1.0000 0.25100  0.45180  0.38530  Biso   1.000  H
  C125     1.0000 0.60270  0.94590  0.99340  Biso   1.000  C
  C126     1.0000 0.39730  0.44590  0.50660  Biso   1.000  C
  C127     1.0000 0.39730  0.05410  0.00660  Biso   1.000  C
  C128     1.0000 0.60270  0.55410  0.49340  Biso   1.000  C
  H109     1.0000 0.59410  0.88980  0.99830  Biso   1.000  H
  H110     1.0000 0.40590  0.38980  0.50170  Biso   1.000  H
  H111     1.0000 0.40590  0.11020  0.00170  Biso   1.000  H
  H112     1.0000 0.59410  0.61020  0.49830  Biso   1.000  H
  C129     1.0000 0.62890  0.97160  0.51120  Biso   1.000  C
  C130     1.0000 0.37110  0.47160  0.98880  Biso   1.000  C
  C131     1.0000 0.37110  0.02840  0.48880  Biso   1.000  C
  C132     1.0000 0.62890  0.52840  0.01120  Biso   1.000  C
  H113     1.0000 0.62800  0.91590  0.52280  Biso   1.000  H
  H114     1.0000 0.37200  0.41590  0.97720  Biso   1.000  H
  H115     1.0000 0.37200  0.08410  0.47720  Biso   1.000  H
  H116     1.0000 0.62800  0.58410  0.02280  Biso   1.000  H
  C133     1.0000 0.58260  0.00500  0.45660  Biso   1.000  C
  C134     1.0000 0.41740  0.50500  0.04340  Biso   1.000  C
  C135     1.0000 0.41740  0.99500  0.54340  Biso   1.000  C
  C136     1.0000 0.58260  0.49500  0.95660  Biso   1.000  C
  H117     1.0000 0.55070  0.97170  0.43220  Biso   1.000  H
  H118     1.0000 0.44930  0.47170  0.06780  Biso   1.000  H
  H119     1.0000 0.44930  0.02830  0.56780  Biso   1.000  H
  H120     1.0000 0.55070  0.52830  0.93220  Biso   1.000  H
  C137     1.0000 0.58810  0.08760  0.44300  Biso   1.000  C
  C138     1.0000 0.41190  0.58760  0.05700  Biso   1.000  C
  C139     1.0000 0.41190  0.91240  0.55700  Biso   1.000  C
  C140     1.0000 0.58810  0.41240  0.94300  Biso   1.000  C
  H121     1.0000 0.55970  0.10840  0.40700  Biso   1.000  H
  H122     1.0000 0.44030  0.60840  0.09300  Biso   1.000  H
  H123     1.0000 0.44030  0.89160  0.59300  Biso   1.000  H
  H124     1.0000 0.55970  0.39160  0.90700  Biso   1.000  H
  C141     1.0000 0.11400  0.08810  0.07390  Biso   1.000  C
  C142     1.0000 0.88600  0.58810  0.42610  Biso   1.000  C
  C143     1.0000 0.88600  0.91190  0.92610  Biso   1.000  C
  C144     1.0000 0.11400  0.41190  0.57390  Biso   1.000  C
  H125     1.0000 0.08740  0.10610  0.11210  Biso   1.000  H
  H126     1.0000 0.91260  0.60610  0.38790  Biso   1.000  H
  H127     1.0000 0.91260  0.89390  0.88790  Biso   1.000  H
  H128     1.0000 0.08740  0.39390  0.61210  Biso   1.000  H
  C145     1.0000 0.15200  0.97730  0.00890  Biso   1.000  C
  C146     1.0000 0.84800  0.47730  0.49110  Biso   1.000  C
  C147     1.0000 0.84800  0.02270  0.99110  Biso   1.000  C
  C148     1.0000 0.15200  0.52270  0.50890  Biso   1.000  C
  H129     1.0000 0.15100  0.92170  0.99700  Biso   1.000  H
  H130     1.0000 0.84900  0.42170  0.50300  Biso   1.000  H
  H131     1.0000 0.84900  0.07830  0.00300  Biso   1.000  H
  H132     1.0000 0.15100  0.57830  0.49700  Biso   1.000  H
  C149     1.0000 0.12310  0.00070  0.06640  Biso   1.000  C
  C150     1.0000 0.87690  0.50070  0.43360  Biso   1.000  C
  C151     1.0000 0.87690  0.99930  0.93360  Biso   1.000  C
  C152     1.0000 0.12310  0.49930  0.56640  Biso   1.000  C
  H133     1.0000 0.10890  0.96360  0.10090  Biso   1.000  H
  H134     1.0000 0.89110  0.46360  0.39910  Biso   1.000  H
  H135     1.0000 0.89110  0.03640  0.89910  Biso   1.000  H
  H136     1.0000 0.10890  0.53640  0.60090  Biso   1.000  H
  C153     1.0000 0.21770  0.95520  0.78340  Biso   1.000  C
  C154     1.0000 0.78230  0.45520  0.71660  Biso   1.000  C
  C155     1.0000 0.78230  0.04480  0.21660  Biso   1.000  C
  C156     1.0000 0.21770  0.54480  0.28340  Biso   1.000  C
  H137     1.0000 0.25340  0.91300  0.79100  Biso   1.000  H
  H138     1.0000 0.74660  0.41300  0.70900  Biso   1.000  H
  H139     1.0000 0.74660  0.08700  0.20900  Biso   1.000  H
  H140     1.0000 0.25340  0.58700  0.29100  Biso   1.000  H
  H141     1.0000 0.24220  0.00590  0.77160  Biso   1.000  H
  H142     1.0000 0.75780  0.50590  0.72840  Biso   1.000  H
  H143     1.0000 0.75780  0.99410  0.22840  Biso   1.000  H
  H144     1.0000 0.24220  0.49410  0.27160  Biso   1.000  H
  C157     1.0000 0.11600  0.01600  0.83440  Biso   1.000  C
  C158     1.0000 0.88400  0.51600  0.66560  Biso   1.000  C
  C159     1.0000 0.88400  0.98400  0.16560  Biso   1.000  C
  C160     1.0000 0.11600  0.48400  0.33440  Biso   1.000  C
  H145     1.0000 0.09420  0.02600  0.87990  Biso   1.000  H
  H146     1.0000 0.90580  0.52600  0.62010  Biso   1.000  H
  H147     1.0000 0.90580  0.97400  0.12010  Biso   1.000  H
  H148     1.0000 0.09420  0.47400  0.37990  Biso   1.000  H
  H149     1.0000 0.12850  0.06900  0.81460  Biso   1.000  H
  H150     1.0000 0.87150  0.56900  0.68540  Biso   1.000  H
  H151     1.0000 0.87150  0.93100  0.18540  Biso   1.000  H
  H152     1.0000 0.12850  0.43100  0.31460  Biso   1.000  H
  C161     1.0000 0.16650  0.92740  0.71530  Biso   1.000  C
  C162     1.0000 0.83350  0.42740  0.78470  Biso   1.000  C
  C163     1.0000 0.83350  0.07260  0.28470  Biso   1.000  C
  C164     1.0000 0.16650  0.57260  0.21530  Biso   1.000  C
  H153     1.0000 0.19050  0.93950  0.67140  Biso   1.000  H
  H154     1.0000 0.80950  0.43950  0.82860  Biso   1.000  H
  H155     1.0000 0.80950  0.06050  0.32860  Biso   1.000  H
  H156     1.0000 0.19050  0.56050  0.17140  Biso   1.000  H
  H157     1.0000 0.15680  0.86870  0.71710  Biso   1.000  H
  H158     1.0000 0.84320  0.36870  0.78290  Biso   1.000  H
  H159     1.0000 0.84320  0.13130  0.28290  Biso   1.000  H
  H160     1.0000 0.15680  0.63130  0.21710  Biso   1.000  H
  C165     1.0000 0.06620  0.97900  0.79130  Biso   1.000  C
  C166     1.0000 0.93380  0.47900  0.70870  Biso   1.000  C
  C167     1.0000 0.93380  0.02100  0.20870  Biso   1.000  C
  C168     1.0000 0.06620  0.52100  0.29130  Biso   1.000  C
  H161     1.0000 0.02310  0.01160  0.78880  Biso   1.000  H
  H162     1.0000 0.97690  0.51160  0.71120  Biso   1.000  H
  H163     1.0000 0.97690  0.98840  0.21120  Biso   1.000  H
  H164     1.0000 0.02310  0.48840  0.28880  Biso   1.000  H
  H165     1.0000 0.05430  0.92440  0.80850  Biso   1.000  H
  H166     1.0000 0.94570  0.42440  0.69150  Biso   1.000  H
  H167     1.0000 0.94570  0.07560  0.19150  Biso   1.000  H
  H168     1.0000 0.05430  0.57560  0.30850  Biso   1.000  H
  C169     1.0000 0.05290  0.94120  0.65670  Biso   1.000  C
  C170     1.0000 0.94710  0.44120  0.84330  Biso   1.000  C
  C171     1.0000 0.94710  0.05880  0.34330  Biso   1.000  C
  C172     1.0000 0.05290  0.55880  0.15670  Biso   1.000  C
  H169     1.0000 0.00360  0.95670  0.66410  Biso   1.000  H
  H170     1.0000 0.99640  0.45670  0.83590  Biso   1.000  H
  H171     1.0000 0.99640  0.04330  0.33590  Biso   1.000  H
  H172     1.0000 0.00360  0.54330  0.16410  Biso   1.000  H
  H173     1.0000 0.05560  0.88160  0.65340  Biso   1.000  H
  H174     1.0000 0.94440  0.38160  0.84660  Biso   1.000  H
  H175     1.0000 0.94440  0.11840  0.34660  Biso   1.000  H
  H176     1.0000 0.05560  0.61840  0.15340  Biso   1.000  H
  C173     1.0000 0.10200  0.06490  0.58630  Biso   1.000  C
  C174     1.0000 0.89800  0.56490  0.91370  Biso   1.000  C
  C175     1.0000 0.89800  0.93510  0.41370  Biso   1.000  C
  C176     1.0000 0.10200  0.43510  0.08630  Biso   1.000  C
  H177     1.0000 0.10940  0.08880  0.63020  Biso   1.000  H
  H178     1.0000 0.89060  0.58880  0.86980  Biso   1.000  H
  H179     1.0000 0.89060  0.91120  0.36980  Biso   1.000  H
  H180     1.0000 0.10940  0.41120  0.13020  Biso   1.000  H
  C177     1.0000 0.08450  0.94600  0.51990  Biso   1.000  C
  C178     1.0000 0.91550  0.44600  0.98010  Biso   1.000  C
  C179     1.0000 0.91550  0.05400  0.48010  Biso   1.000  C
  C180     1.0000 0.08450  0.55400  0.01990  Biso   1.000  C
  H181     1.0000 0.08320  0.88880  0.51670  Biso   1.000  H
  H182     1.0000 0.91680  0.38880  0.98330  Biso   1.000  H
  H183     1.0000 0.91680  0.11120  0.48330  Biso   1.000  H
  H184     1.0000 0.08320  0.61120  0.01670  Biso   1.000  H
  C181     1.0000 0.08780  0.99140  0.46270  Biso   1.000  C
  C182     1.0000 0.91220  0.49140  0.03730  Biso   1.000  C
  C183     1.0000 0.91220  0.00860  0.53730  Biso   1.000  C
  C184     1.0000 0.08780  0.50860  0.96270  Biso   1.000  C
  H185     1.0000 0.08080  0.96800  0.41860  Biso   1.000  H
  H186     1.0000 0.91920  0.46800  0.08140  Biso   1.000  H
  H187     1.0000 0.91920  0.03200  0.58140  Biso   1.000  H
  H188     1.0000 0.08080  0.53200  0.91860  Biso   1.000  H
  C185     1.0000 0.10220  0.07610  0.46970  Biso   1.000  C
  C186     1.0000 0.89780  0.57610  0.03030  Biso   1.000  C
  C187     1.0000 0.89780  0.92390  0.53030  Biso   1.000  C
  C188     1.0000 0.10220  0.42390  0.96970  Biso   1.000  C
  H189     1.0000 0.10610  0.10820  0.42940  Biso   1.000  H
  H190     1.0000 0.89390  0.60820  0.07060  Biso   1.000  H
  H191     1.0000 0.89390  0.89180  0.57060  Biso   1.000  H
  H192     1.0000 0.10610  0.39180  0.92940  Biso   1.000  H
  C189     1.0000 0.08310  0.98370  0.58410  Biso   1.000  C
  C190     1.0000 0.91690  0.48370  0.91590  Biso   1.000  C
  C191     1.0000 0.91690  0.01630  0.41590  Biso   1.000  C
  C192     1.0000 0.08310  0.51630  0.08410  Biso   1.000  C
  O65      1.0000 0.26730  0.24610  0.34960  Biso   1.000  O
  O66      1.0000 0.73270  0.74610  0.15040  Biso   1.000  O
  O67      1.0000 0.73270  0.75390  0.65040  Biso   1.000  O
  O68      1.0000 0.26730  0.25390  0.84960  Biso   1.000  O
  O69      1.0000 0.13410  0.82380  0.89670  Biso   1.000  O
  O70      1.0000 0.86590  0.32380  0.60330  Biso   1.000  O
  O71      1.0000 0.86590  0.17620  0.10330  Biso   1.000  O
  O72      1.0000 0.13410  0.67620  0.39670  Biso   1.000  O
  O73      1.0000 0.58020  0.63710  0.14910  Biso   1.000  O
  O74      1.0000 0.41980  0.13710  0.35090  Biso   1.000  O
  O75      1.0000 0.41980  0.36290  0.85090  Biso   1.000  O
  O76      1.0000 0.58020  0.86290  0.64910  Biso   1.000  O
  O77      1.0000 0.65700  0.24900  0.21880  Biso   1.000  O
  O78      1.0000 0.34300  0.74900  0.28120  Biso   1.000  O
  O79      1.0000 0.34300  0.75100  0.78120  Biso   1.000  O
  O80      1.0000 0.65700  0.25100  0.71880  Biso   1.000  O
  O81      1.0000 0.14950  0.22850  0.77180  Biso   1.000  O
  O82      1.0000 0.85050  0.72850  0.72820  Biso   1.000  O
  O83      1.0000 0.85050  0.77150  0.22820  Biso   1.000  O
  O84      1.0000 0.14950  0.27150  0.27180  Biso   1.000  O
  O85      1.0000 0.53640  0.40950  0.76730  Biso   1.000  O
  O86      1.0000 0.46360  0.90950  0.73270  Biso   1.000  O
  O87      1.0000 0.46360  0.59050  0.23270  Biso   1.000  O
  O88      1.0000 0.53640  0.09050  0.26730  Biso   1.000  O
  O89      1.0000 0.63000  0.67100  0.09500  Biso   1.000  O
  O90      1.0000 0.37000  0.17100  0.40500  Biso   1.000  O
  O91      1.0000 0.37000  0.32900  0.90500  Biso   1.000  O
  O92      1.0000 0.63000  0.82900  0.59500  Biso   1.000  O
  O93      1.0000 0.70950  0.21170  0.17240  Biso   1.000  O
  O94      1.0000 0.29050  0.71170  0.32760  Biso   1.000  O
  O95      1.0000 0.29050  0.78830  0.82760  Biso   1.000  O
  O96      1.0000 0.70950  0.28830  0.67240  Biso   1.000  O
