data_image0
_cell_length_a       16.3706
_cell_length_b       16.3706
_cell_length_c       22.5362
_cell_angle_alpha    90
_cell_angle_beta     90
_cell_angle_gamma    120

_symmetry_space_group_name_H-M    "P 1"
_symmetry_int_tables_number       1

loop_
  _symmetry_equiv_pos_as_xyz
  'x, y, z'

loop_
  _atom_site_label
  _atom_site_occupancy
  _atom_site_fract_x
  _atom_site_fract_y
  _atom_site_fract_z
  _atom_site_thermal_displace_type
  _atom_site_B_iso_or_equiv
  _atom_site_type_symbol
  Cu1      1.0000 0.09000  0.55150  0.02056  Biso   1.000  Cu
  Cu2      1.0000 0.44850  0.53849  0.02056  Biso   1.000  Cu
  Cu3      1.0000 0.46151  0.91000  0.02056  Biso   1.000  Cu
  Cu4      1.0000 0.75666  0.88484  0.35390  Biso   1.000  Cu
  Cu5      1.0000 0.11516  0.87182  0.35390  Biso   1.000  Cu
  Cu6      1.0000 0.12818  0.24334  0.35390  Biso   1.000  Cu
  Cu7      1.0000 0.42333  0.21817  0.68723  Biso   1.000  Cu
  Cu8      1.0000 0.78183  0.20516  0.68723  Biso   1.000  Cu
  Cu9      1.0000 0.79484  0.57667  0.68723  Biso   1.000  Cu
  Cu10     1.0000 0.91000  0.44850  0.97944  Biso   1.000  Cu
  Cu11     1.0000 0.55150  0.46151  0.97944  Biso   1.000  Cu
  Cu12     1.0000 0.53849  0.09000  0.97944  Biso   1.000  Cu
  Cu13     1.0000 0.57667  0.78183  0.31277  Biso   1.000  Cu
  Cu14     1.0000 0.21817  0.79484  0.31277  Biso   1.000  Cu
  Cu15     1.0000 0.20516  0.42333  0.31277  Biso   1.000  Cu
  Cu16     1.0000 0.24334  0.11516  0.64610  Biso   1.000  Cu
  Cu17     1.0000 0.88484  0.12818  0.64610  Biso   1.000  Cu
  Cu18     1.0000 0.87182  0.75666  0.64610  Biso   1.000  Cu
  O1       1.0000 0.04694  0.42774  0.05703  Biso   1.000  O
  O2       1.0000 0.57226  0.61920  0.05703  Biso   1.000  O
  O3       1.0000 0.38080  0.95306  0.05703  Biso   1.000  O
  O4       1.0000 0.71361  0.76107  0.39036  Biso   1.000  O
  O5       1.0000 0.23893  0.95253  0.39036  Biso   1.000  O
  O6       1.0000 0.04747  0.28639  0.39036  Biso   1.000  O
  O7       1.0000 0.38027  0.09441  0.72370  Biso   1.000  O
  O8       1.0000 0.90559  0.28587  0.72370  Biso   1.000  O
  O9       1.0000 0.71413  0.61973  0.72370  Biso   1.000  O
  O10      1.0000 0.95306  0.57226  0.94297  Biso   1.000  O
  O11      1.0000 0.42774  0.38080  0.94297  Biso   1.000  O
  O12      1.0000 0.61920  0.04694  0.94297  Biso   1.000  O
  O13      1.0000 0.61973  0.90559  0.27630  Biso   1.000  O
  O14      1.0000 0.09441  0.71413  0.27630  Biso   1.000  O
  O15      1.0000 0.28587  0.38027  0.27630  Biso   1.000  O
  O16      1.0000 0.28639  0.23893  0.60964  Biso   1.000  O
  O17      1.0000 0.76107  0.04747  0.60964  Biso   1.000  O
  O18      1.0000 0.95253  0.71361  0.60964  Biso   1.000  O
  O19      1.0000 0.11138  0.35655  0.25039  Biso   1.000  O
  O20      1.0000 0.64345  0.75483  0.25039  Biso   1.000  O
  O21      1.0000 0.24517  0.88862  0.25039  Biso   1.000  O
  O22      1.0000 0.77805  0.68988  0.58372  Biso   1.000  O
  O23      1.0000 0.31012  0.08816  0.58372  Biso   1.000  O
  O24      1.0000 0.91184  0.22195  0.58372  Biso   1.000  O
  O25      1.0000 0.44471  0.02322  0.91706  Biso   1.000  O
  O26      1.0000 0.97678  0.42150  0.91706  Biso   1.000  O
  O27      1.0000 0.57850  0.55529  0.91706  Biso   1.000  O
  O28      1.0000 0.88862  0.64345  0.74961  Biso   1.000  O
  O29      1.0000 0.35655  0.24517  0.74961  Biso   1.000  O
  O30      1.0000 0.75483  0.11138  0.74961  Biso   1.000  O
  O31      1.0000 0.55529  0.97678  0.08294  Biso   1.000  O
  O32      1.0000 0.02322  0.57850  0.08294  Biso   1.000  O
  O33      1.0000 0.42150  0.44471  0.08294  Biso   1.000  O
  O34      1.0000 0.22195  0.31012  0.41628  Biso   1.000  O
  O35      1.0000 0.68988  0.91184  0.41628  Biso   1.000  O
  O36      1.0000 0.08816  0.77805  0.41628  Biso   1.000  O
  O37      1.0000 0.05036  0.20731  0.28160  Biso   1.000  O
  O38      1.0000 0.79269  0.84305  0.28160  Biso   1.000  O
  O39      1.0000 0.15695  0.94964  0.28160  Biso   1.000  O
  O40      1.0000 0.71703  0.54064  0.61493  Biso   1.000  O
  O41      1.0000 0.45936  0.17638  0.61493  Biso   1.000  O
  O42      1.0000 0.82362  0.28297  0.61493  Biso   1.000  O
  O43      1.0000 0.38369  0.87398  0.94827  Biso   1.000  O
  O44      1.0000 0.12602  0.50972  0.94827  Biso   1.000  O
  O45      1.0000 0.49028  0.61631  0.94827  Biso   1.000  O
  O46      1.0000 0.94964  0.79269  0.71840  Biso   1.000  O
  O47      1.0000 0.20731  0.15695  0.71840  Biso   1.000  O
  O48      1.0000 0.84305  0.05036  0.71840  Biso   1.000  O
  O49      1.0000 0.61631  0.12602  0.05173  Biso   1.000  O
  O50      1.0000 0.87398  0.49028  0.05173  Biso   1.000  O
  O51      1.0000 0.50972  0.38369  0.05173  Biso   1.000  O
  O52      1.0000 0.28297  0.45936  0.38507  Biso   1.000  O
  O53      1.0000 0.54064  0.82362  0.38507  Biso   1.000  O
  O54      1.0000 0.17638  0.71703  0.38507  Biso   1.000  O
  O55      1.0000 0.89873  0.34005  0.02485  Biso   1.000  O
  O56      1.0000 0.65995  0.55868  0.02485  Biso   1.000  O
  O57      1.0000 0.44132  0.10127  0.02485  Biso   1.000  O
  O58      1.0000 0.56540  0.67338  0.35818  Biso   1.000  O
  O59      1.0000 0.32662  0.89201  0.35818  Biso   1.000  O
  O60      1.0000 0.10799  0.43460  0.35818  Biso   1.000  O
  O61      1.0000 0.23206  0.00672  0.69152  Biso   1.000  O
  O62      1.0000 0.99328  0.22535  0.69152  Biso   1.000  O
  O63      1.0000 0.77465  0.76794  0.69152  Biso   1.000  O
  O64      1.0000 0.10127  0.65995  0.97515  Biso   1.000  O
  O65      1.0000 0.34005  0.44132  0.97515  Biso   1.000  O
  O66      1.0000 0.55868  0.89873  0.97515  Biso   1.000  O
  O67      1.0000 0.76794  0.99328  0.30848  Biso   1.000  O
  O68      1.0000 0.00672  0.77465  0.30848  Biso   1.000  O
  O69      1.0000 0.22535  0.23206  0.30848  Biso   1.000  O
  O70      1.0000 0.43460  0.32662  0.64182  Biso   1.000  O
  O71      1.0000 0.67338  0.10799  0.64182  Biso   1.000  O
  O72      1.0000 0.89201  0.56540  0.64182  Biso   1.000  O
  O73      1.0000 0.81160  0.95851  0.14981  Biso   1.000  O
  O74      1.0000 0.04149  0.85309  0.14981  Biso   1.000  O
  O75      1.0000 0.14691  0.18840  0.14981  Biso   1.000  O
  O76      1.0000 0.47827  0.29184  0.48314  Biso   1.000  O
  O77      1.0000 0.70816  0.18642  0.48314  Biso   1.000  O
  O78      1.0000 0.81358  0.52173  0.48314  Biso   1.000  O
  O79      1.0000 0.14493  0.62518  0.81648  Biso   1.000  O
  O80      1.0000 0.37482  0.51976  0.81648  Biso   1.000  O
  O81      1.0000 0.48024  0.85507  0.81648  Biso   1.000  O
  O82      1.0000 0.18840  0.04149  0.85019  Biso   1.000  O
  O83      1.0000 0.95851  0.14691  0.85019  Biso   1.000  O
  O84      1.0000 0.85309  0.81160  0.85019  Biso   1.000  O
  O85      1.0000 0.85507  0.37482  0.18352  Biso   1.000  O
  O86      1.0000 0.62518  0.48024  0.18352  Biso   1.000  O
  O87      1.0000 0.51976  0.14493  0.18352  Biso   1.000  O
  O88      1.0000 0.52173  0.70816  0.51686  Biso   1.000  O
  O89      1.0000 0.29184  0.81358  0.51686  Biso   1.000  O
  O90      1.0000 0.18642  0.47827  0.51686  Biso   1.000  O
  O91      1.0000 0.77924  0.99547  0.06596  Biso   1.000  O
  O92      1.0000 0.00453  0.78377  0.06596  Biso   1.000  O
  O93      1.0000 0.21623  0.22076  0.06596  Biso   1.000  O
  O94      1.0000 0.44591  0.32880  0.39929  Biso   1.000  O
  O95      1.0000 0.67120  0.11710  0.39929  Biso   1.000  O
  O96      1.0000 0.88290  0.55409  0.39929  Biso   1.000  O
  O97      1.0000 0.11257  0.66214  0.73263  Biso   1.000  O
  O98      1.0000 0.33786  0.45044  0.73263  Biso   1.000  O
  O99      1.0000 0.54956  0.88743  0.73263  Biso   1.000  O
  O100     1.0000 0.22076  0.00453  0.93404  Biso   1.000  O
  O101     1.0000 0.99547  0.21623  0.93404  Biso   1.000  O
  O102     1.0000 0.78377  0.77924  0.93404  Biso   1.000  O
  O103     1.0000 0.88743  0.33786  0.26737  Biso   1.000  O
  O104     1.0000 0.66214  0.54956  0.26737  Biso   1.000  O
  O105     1.0000 0.45044  0.11257  0.26737  Biso   1.000  O
  O106     1.0000 0.55409  0.67120  0.60071  Biso   1.000  O
  O107     1.0000 0.32880  0.88290  0.60071  Biso   1.000  O
  O108     1.0000 0.11710  0.44591  0.60071  Biso   1.000  O
  N1       1.0000 0.23568  0.61870  0.06062  Biso   1.000  N
  N2       1.0000 0.38130  0.61698  0.06062  Biso   1.000  N
  N3       1.0000 0.38302  0.76432  0.06062  Biso   1.000  N
  N4       1.0000 0.90235  0.95203  0.39395  Biso   1.000  N
  N5       1.0000 0.04797  0.95031  0.39395  Biso   1.000  N
  N6       1.0000 0.04969  0.09765  0.39395  Biso   1.000  N
  N7       1.0000 0.56901  0.28537  0.72729  Biso   1.000  N
  N8       1.0000 0.71463  0.28365  0.72729  Biso   1.000  N
  N9       1.0000 0.71635  0.43099  0.72729  Biso   1.000  N
  N10      1.0000 0.76432  0.38130  0.93938  Biso   1.000  N
  N11      1.0000 0.61870  0.38302  0.93938  Biso   1.000  N
  N12      1.0000 0.61698  0.23568  0.93938  Biso   1.000  N
  N13      1.0000 0.43099  0.71463  0.27271  Biso   1.000  N
  N14      1.0000 0.28537  0.71635  0.27271  Biso   1.000  N
  N15      1.0000 0.28365  0.56901  0.27271  Biso   1.000  N
  N16      1.0000 0.09765  0.04797  0.60605  Biso   1.000  N
  N17      1.0000 0.95203  0.04969  0.60605  Biso   1.000  N
  N18      1.0000 0.95031  0.90235  0.60605  Biso   1.000  N
  N19      1.0000 0.23903  0.48095  0.06760  Biso   1.000  N
  N20      1.0000 0.51905  0.75808  0.06760  Biso   1.000  N
  N21      1.0000 0.24192  0.76097  0.06760  Biso   1.000  N
  N22      1.0000 0.90570  0.81428  0.40093  Biso   1.000  N
  N23      1.0000 0.18572  0.09141  0.40093  Biso   1.000  N
  N24      1.0000 0.90859  0.09430  0.40093  Biso   1.000  N
  N25      1.0000 0.57236  0.14762  0.73427  Biso   1.000  N
  N26      1.0000 0.85238  0.42475  0.73427  Biso   1.000  N
  N27      1.0000 0.57525  0.42764  0.73427  Biso   1.000  N
  N28      1.0000 0.76097  0.51905  0.93240  Biso   1.000  N
  N29      1.0000 0.48095  0.24192  0.93240  Biso   1.000  N
  N30      1.0000 0.75808  0.23903  0.93240  Biso   1.000  N
  N31      1.0000 0.42764  0.85238  0.26573  Biso   1.000  N
  N32      1.0000 0.14762  0.57525  0.26573  Biso   1.000  N
  N33      1.0000 0.42475  0.57236  0.26573  Biso   1.000  N
  N34      1.0000 0.09430  0.18572  0.59907  Biso   1.000  N
  N35      1.0000 0.81428  0.90859  0.59907  Biso   1.000  N
  N36      1.0000 0.09141  0.90570  0.59907  Biso   1.000  N
  H1       1.0000 0.17850  0.45110  0.06970  Biso   1.000  H
  H2       1.0000 0.54890  0.72740  0.06970  Biso   1.000  H
  H3       1.0000 0.27260  0.82150  0.06970  Biso   1.000  H
  H4       1.0000 0.84517  0.78443  0.40303  Biso   1.000  H
  H5       1.0000 0.21557  0.06073  0.40303  Biso   1.000  H
  H6       1.0000 0.93927  0.15483  0.40303  Biso   1.000  H
  H7       1.0000 0.51183  0.11777  0.73637  Biso   1.000  H
  H8       1.0000 0.88223  0.39407  0.73637  Biso   1.000  H
  H9       1.0000 0.60593  0.48817  0.73637  Biso   1.000  H
  H10      1.0000 0.82150  0.54890  0.93030  Biso   1.000  H
  H11      1.0000 0.45110  0.27260  0.93030  Biso   1.000  H
  H12      1.0000 0.72740  0.17850  0.93030  Biso   1.000  H
  H13      1.0000 0.48817  0.88223  0.26363  Biso   1.000  H
  H14      1.0000 0.11777  0.60593  0.26363  Biso   1.000  H
  H15      1.0000 0.39407  0.51183  0.26363  Biso   1.000  H
  H16      1.0000 0.15483  0.21557  0.59697  Biso   1.000  H
  H17      1.0000 0.78443  0.93927  0.59697  Biso   1.000  H
  H18      1.0000 0.06073  0.84517  0.59697  Biso   1.000  H
  H19      1.0000 0.26910  0.45040  0.06890  Biso   1.000  H
  H20      1.0000 0.54960  0.81870  0.06890  Biso   1.000  H
  H21      1.0000 0.18130  0.73090  0.06890  Biso   1.000  H
  H22      1.0000 0.93577  0.78373  0.40223  Biso   1.000  H
  H23      1.0000 0.21627  0.15203  0.40223  Biso   1.000  H
  H24      1.0000 0.84797  0.06423  0.40223  Biso   1.000  H
  H25      1.0000 0.60243  0.11707  0.73557  Biso   1.000  H
  H26      1.0000 0.88293  0.48537  0.73557  Biso   1.000  H
  H27      1.0000 0.51463  0.39757  0.73557  Biso   1.000  H
  H28      1.0000 0.73090  0.54960  0.93110  Biso   1.000  H
  H29      1.0000 0.45040  0.18130  0.93110  Biso   1.000  H
  H30      1.0000 0.81870  0.26910  0.93110  Biso   1.000  H
  H31      1.0000 0.39757  0.88293  0.26443  Biso   1.000  H
  H32      1.0000 0.11707  0.51463  0.26443  Biso   1.000  H
  H33      1.0000 0.48537  0.60243  0.26443  Biso   1.000  H
  H34      1.0000 0.06423  0.21627  0.59777  Biso   1.000  H
  H35      1.0000 0.78373  0.84797  0.59777  Biso   1.000  H
  H36      1.0000 0.15203  0.93577  0.59777  Biso   1.000  H
  N37      1.0000 0.82353  0.01608  0.11189  Biso   1.000  N
  N38      1.0000 0.98392  0.80745  0.11189  Biso   1.000  N
  N39      1.0000 0.19255  0.17647  0.11189  Biso   1.000  N
  N40      1.0000 0.49020  0.34941  0.44522  Biso   1.000  N
  N41      1.0000 0.65059  0.14078  0.44522  Biso   1.000  N
  N42      1.0000 0.85922  0.50980  0.44522  Biso   1.000  N
  N43      1.0000 0.15686  0.68275  0.77856  Biso   1.000  N
  N44      1.0000 0.31725  0.47412  0.77856  Biso   1.000  N
  N45      1.0000 0.52588  0.84314  0.77856  Biso   1.000  N
  N46      1.0000 0.17647  0.98392  0.88811  Biso   1.000  N
  N47      1.0000 0.01608  0.19255  0.88811  Biso   1.000  N
  N48      1.0000 0.80745  0.82353  0.88811  Biso   1.000  N
  N49      1.0000 0.84314  0.31725  0.22144  Biso   1.000  N
  N50      1.0000 0.68275  0.52588  0.22144  Biso   1.000  N
  N51      1.0000 0.47412  0.15686  0.22144  Biso   1.000  N
  N52      1.0000 0.50980  0.65059  0.55478  Biso   1.000  N
  N53      1.0000 0.34941  0.85922  0.55478  Biso   1.000  N
  N54      1.0000 0.14078  0.49020  0.55478  Biso   1.000  N
  C1       1.0000 0.95871  0.27696  0.09567  Biso   1.000  C
  C2       1.0000 0.72304  0.68175  0.09567  Biso   1.000  C
  C3       1.0000 0.31825  0.04129  0.09567  Biso   1.000  C
  C4       1.0000 0.62538  0.61029  0.42900  Biso   1.000  C
  C5       1.0000 0.38971  0.01508  0.42900  Biso   1.000  C
  C6       1.0000 0.98492  0.37462  0.42900  Biso   1.000  C
  C7       1.0000 0.29204  0.94363  0.76234  Biso   1.000  C
  C8       1.0000 0.05637  0.34842  0.76234  Biso   1.000  C
  C9       1.0000 0.65158  0.70796  0.76234  Biso   1.000  C
  C10      1.0000 0.04129  0.72304  0.90433  Biso   1.000  C
  C11      1.0000 0.27696  0.31825  0.90433  Biso   1.000  C
  C12      1.0000 0.68175  0.95871  0.90433  Biso   1.000  C
  C13      1.0000 0.70796  0.05637  0.23766  Biso   1.000  C
  C14      1.0000 0.94363  0.65158  0.23766  Biso   1.000  C
  C15      1.0000 0.34842  0.29204  0.23766  Biso   1.000  C
  C16      1.0000 0.37462  0.38971  0.57100  Biso   1.000  C
  C17      1.0000 0.61029  0.98492  0.57100  Biso   1.000  C
  C18      1.0000 0.01508  0.62538  0.57100  Biso   1.000  C
  C19      1.0000 0.01051  0.30249  0.14788  Biso   1.000  C
  C20      1.0000 0.69751  0.70802  0.14788  Biso   1.000  C
  C21      1.0000 0.29198  0.98949  0.14788  Biso   1.000  C
  C22      1.0000 0.67718  0.63582  0.48121  Biso   1.000  C
  C23      1.0000 0.36418  0.04135  0.48121  Biso   1.000  C
  C24      1.0000 0.95865  0.32282  0.48121  Biso   1.000  C
  C25      1.0000 0.34384  0.96916  0.81455  Biso   1.000  C
  C26      1.0000 0.03084  0.37469  0.81455  Biso   1.000  C
  C27      1.0000 0.62531  0.65616  0.81455  Biso   1.000  C
  C28      1.0000 0.98949  0.69751  0.85212  Biso   1.000  C
  C29      1.0000 0.30249  0.29198  0.85212  Biso   1.000  C
  C30      1.0000 0.70802  0.01051  0.85212  Biso   1.000  C
  C31      1.0000 0.65616  0.03084  0.18545  Biso   1.000  C
  C32      1.0000 0.96916  0.62531  0.18545  Biso   1.000  C
  C33      1.0000 0.37469  0.34384  0.18545  Biso   1.000  C
  C34      1.0000 0.32282  0.36418  0.51879  Biso   1.000  C
  C35      1.0000 0.63582  0.95865  0.51879  Biso   1.000  C
  C36      1.0000 0.04135  0.67718  0.51879  Biso   1.000  C
  H37      1.0000 0.05280  0.36590  0.15520  Biso   1.000  H
  H38      1.0000 0.63410  0.68690  0.15520  Biso   1.000  H
  H39      1.0000 0.31310  0.94720  0.15520  Biso   1.000  H
  H40      1.0000 0.71947  0.69923  0.48853  Biso   1.000  H
  H41      1.0000 0.30077  0.02023  0.48853  Biso   1.000  H
  H42      1.0000 0.97977  0.28053  0.48853  Biso   1.000  H
  H43      1.0000 0.38613  0.03257  0.82187  Biso   1.000  H
  H44      1.0000 0.96743  0.35357  0.82187  Biso   1.000  H
  H45      1.0000 0.64643  0.61387  0.82187  Biso   1.000  H
  H46      1.0000 0.94720  0.63410  0.84480  Biso   1.000  H
  H47      1.0000 0.36590  0.31310  0.84480  Biso   1.000  H
  H48      1.0000 0.68690  0.05280  0.84480  Biso   1.000  H
  H49      1.0000 0.61387  0.96743  0.17813  Biso   1.000  H
  H50      1.0000 0.03257  0.64643  0.17813  Biso   1.000  H
  H51      1.0000 0.35357  0.38613  0.17813  Biso   1.000  H
  H52      1.0000 0.28053  0.30077  0.51147  Biso   1.000  H
  H53      1.0000 0.69923  0.97977  0.51147  Biso   1.000  H
  H54      1.0000 0.02023  0.71947  0.51147  Biso   1.000  H
  C37      1.0000 0.00094  0.23621  0.18923  Biso   1.000  C
  C38      1.0000 0.76379  0.76473  0.18923  Biso   1.000  C
  C39      1.0000 0.23527  0.99906  0.18923  Biso   1.000  C
  C40      1.0000 0.66761  0.56954  0.52256  Biso   1.000  C
  C41      1.0000 0.43046  0.09806  0.52256  Biso   1.000  C
  C42      1.0000 0.90194  0.33239  0.52256  Biso   1.000  C
  C43      1.0000 0.33427  0.90288  0.85590  Biso   1.000  C
  C44      1.0000 0.09712  0.43140  0.85590  Biso   1.000  C
  C45      1.0000 0.56860  0.66573  0.85590  Biso   1.000  C
  C46      1.0000 0.99906  0.76379  0.81077  Biso   1.000  C
  C47      1.0000 0.23621  0.23527  0.81077  Biso   1.000  C
  C48      1.0000 0.76473  0.00094  0.81077  Biso   1.000  C
  C49      1.0000 0.66573  0.09712  0.14410  Biso   1.000  C
  C50      1.0000 0.90288  0.56860  0.14410  Biso   1.000  C
  C51      1.0000 0.43140  0.33427  0.14410  Biso   1.000  C
  C52      1.0000 0.33239  0.43046  0.47744  Biso   1.000  C
  C53      1.0000 0.56954  0.90194  0.47744  Biso   1.000  C
  C54      1.0000 0.09806  0.66761  0.47744  Biso   1.000  C
  C55      1.0000 0.93957  0.14061  0.17760  Biso   1.000  C
  C56      1.0000 0.85939  0.79896  0.17760  Biso   1.000  C
  C57      1.0000 0.20104  0.06043  0.17760  Biso   1.000  C
  C58      1.0000 0.60624  0.47394  0.51093  Biso   1.000  C
  C59      1.0000 0.52606  0.13229  0.51093  Biso   1.000  C
  C60      1.0000 0.86771  0.39376  0.51093  Biso   1.000  C
  C61      1.0000 0.27290  0.80728  0.84427  Biso   1.000  C
  C62      1.0000 0.19272  0.46563  0.84427  Biso   1.000  C
  C63      1.0000 0.53437  0.72710  0.84427  Biso   1.000  C
  C64      1.0000 0.06043  0.85939  0.82240  Biso   1.000  C
  C65      1.0000 0.14061  0.20104  0.82240  Biso   1.000  C
  C66      1.0000 0.79896  0.93957  0.82240  Biso   1.000  C
  C67      1.0000 0.72710  0.19272  0.15573  Biso   1.000  C
  C68      1.0000 0.80728  0.53437  0.15573  Biso   1.000  C
  C69      1.0000 0.46563  0.27290  0.15573  Biso   1.000  C
  C70      1.0000 0.39376  0.52606  0.48907  Biso   1.000  C
  C71      1.0000 0.47394  0.86771  0.48907  Biso   1.000  C
  C72      1.0000 0.13229  0.60624  0.48907  Biso   1.000  C
  H55      1.0000 0.93220  0.09440  0.20460  Biso   1.000  H
  H56      1.0000 0.90560  0.83780  0.20460  Biso   1.000  H
  H57      1.0000 0.16220  0.06780  0.20460  Biso   1.000  H
  H58      1.0000 0.59887  0.42773  0.53793  Biso   1.000  H
  H59      1.0000 0.57227  0.17113  0.53793  Biso   1.000  H
  H60      1.0000 0.82887  0.40113  0.53793  Biso   1.000  H
  H61      1.0000 0.26553  0.76107  0.87127  Biso   1.000  H
  H62      1.0000 0.23893  0.50447  0.87127  Biso   1.000  H
  H63      1.0000 0.49553  0.73447  0.87127  Biso   1.000  H
  H64      1.0000 0.06780  0.90560  0.79540  Biso   1.000  H
  H65      1.0000 0.09440  0.16220  0.79540  Biso   1.000  H
  H66      1.0000 0.83780  0.93220  0.79540  Biso   1.000  H
  H67      1.0000 0.73447  0.23893  0.12873  Biso   1.000  H
  H68      1.0000 0.76107  0.49553  0.12873  Biso   1.000  H
  H69      1.0000 0.50447  0.26553  0.12873  Biso   1.000  H
  H70      1.0000 0.40113  0.57227  0.46207  Biso   1.000  H
  H71      1.0000 0.42773  0.82887  0.46207  Biso   1.000  H
  H72      1.0000 0.17113  0.59887  0.46207  Biso   1.000  H
  C73      1.0000 0.89005  0.11681  0.12443  Biso   1.000  C
  C74      1.0000 0.88319  0.77324  0.12443  Biso   1.000  C
  C75      1.0000 0.22676  0.10995  0.12443  Biso   1.000  C
  C76      1.0000 0.55672  0.45014  0.45776  Biso   1.000  C
  C77      1.0000 0.54986  0.10657  0.45776  Biso   1.000  C
  C78      1.0000 0.89343  0.44328  0.45776  Biso   1.000  C
  C79      1.0000 0.22338  0.78348  0.79110  Biso   1.000  C
  C80      1.0000 0.21652  0.43991  0.79110  Biso   1.000  C
  C81      1.0000 0.56009  0.77662  0.79110  Biso   1.000  C
  C82      1.0000 0.10995  0.88319  0.87557  Biso   1.000  C
  C83      1.0000 0.11681  0.22676  0.87557  Biso   1.000  C
  C84      1.0000 0.77324  0.89005  0.87557  Biso   1.000  C
  C85      1.0000 0.77662  0.21652  0.20890  Biso   1.000  C
  C86      1.0000 0.78348  0.56009  0.20890  Biso   1.000  C
  C87      1.0000 0.43991  0.22338  0.20890  Biso   1.000  C
  C88      1.0000 0.44328  0.54986  0.54224  Biso   1.000  C
  C89      1.0000 0.45014  0.89343  0.54224  Biso   1.000  C
  C90      1.0000 0.10657  0.55672  0.54224  Biso   1.000  C
  C91      1.0000 0.89659  0.18239  0.08370  Biso   1.000  C
  C92      1.0000 0.81761  0.71420  0.08370  Biso   1.000  C
  C93      1.0000 0.28580  0.10341  0.08370  Biso   1.000  C
  C94      1.0000 0.56326  0.51572  0.41703  Biso   1.000  C
  C95      1.0000 0.48428  0.04753  0.41703  Biso   1.000  C
  C96      1.0000 0.95247  0.43674  0.41703  Biso   1.000  C
  C97      1.0000 0.22992  0.84906  0.75037  Biso   1.000  C
  C98      1.0000 0.15094  0.38087  0.75037  Biso   1.000  C
  C99      1.0000 0.61913  0.77008  0.75037  Biso   1.000  C
  C100     1.0000 0.10341  0.81761  0.91630  Biso   1.000  C
  C101     1.0000 0.18239  0.28580  0.91630  Biso   1.000  C
  C102     1.0000 0.71420  0.89659  0.91630  Biso   1.000  C
  C103     1.0000 0.77008  0.15094  0.24963  Biso   1.000  C
  C104     1.0000 0.84906  0.61913  0.24963  Biso   1.000  C
  C105     1.0000 0.38087  0.22992  0.24963  Biso   1.000  C
  C106     1.0000 0.43674  0.48428  0.58297  Biso   1.000  C
  C107     1.0000 0.51572  0.95247  0.58297  Biso   1.000  C
  C108     1.0000 0.04753  0.56326  0.58297  Biso   1.000  C
  H73      1.0000 0.86050  0.16400  0.04920  Biso   1.000  H
  H74      1.0000 0.83600  0.69650  0.04920  Biso   1.000  H
  H75      1.0000 0.30350  0.13950  0.04920  Biso   1.000  H
  H76      1.0000 0.52717  0.49733  0.38253  Biso   1.000  H
  H77      1.0000 0.50267  0.02983  0.38253  Biso   1.000  H
  H78      1.0000 0.97017  0.47283  0.38253  Biso   1.000  H
  H79      1.0000 0.19383  0.83067  0.71587  Biso   1.000  H
  H80      1.0000 0.16933  0.36317  0.71587  Biso   1.000  H
  H81      1.0000 0.63683  0.80617  0.71587  Biso   1.000  H
  H82      1.0000 0.13950  0.83600  0.95080  Biso   1.000  H
  H83      1.0000 0.16400  0.30350  0.95080  Biso   1.000  H
  H84      1.0000 0.69650  0.86050  0.95080  Biso   1.000  H
  H85      1.0000 0.80617  0.16933  0.28413  Biso   1.000  H
  H86      1.0000 0.83067  0.63683  0.28413  Biso   1.000  H
  H87      1.0000 0.36317  0.19383  0.28413  Biso   1.000  H
  H88      1.0000 0.47283  0.50267  0.61747  Biso   1.000  H
  H89      1.0000 0.49733  0.97017  0.61747  Biso   1.000  H
  H90      1.0000 0.02983  0.52717  0.61747  Biso   1.000  H
  C109     1.0000 0.96879  0.35377  0.05532  Biso   1.000  C
  C110     1.0000 0.64623  0.61502  0.05532  Biso   1.000  C
  C111     1.0000 0.38498  0.03121  0.05532  Biso   1.000  C
  C112     1.0000 0.63546  0.68710  0.38865  Biso   1.000  C
  C113     1.0000 0.31290  0.94835  0.38865  Biso   1.000  C
  C114     1.0000 0.05165  0.36454  0.38865  Biso   1.000  C
  C115     1.0000 0.30212  0.02044  0.72199  Biso   1.000  C
  C116     1.0000 0.97956  0.28169  0.72199  Biso   1.000  C
  C117     1.0000 0.71831  0.69788  0.72199  Biso   1.000  C
  C118     1.0000 0.03121  0.64623  0.94468  Biso   1.000  C
  C119     1.0000 0.35377  0.38498  0.94468  Biso   1.000  C
  C120     1.0000 0.61502  0.96879  0.94468  Biso   1.000  C
  C121     1.0000 0.69788  0.97956  0.27801  Biso   1.000  C
  C122     1.0000 0.02044  0.71831  0.27801  Biso   1.000  C
  C123     1.0000 0.28169  0.30212  0.27801  Biso   1.000  C
  C124     1.0000 0.36454  0.31290  0.61135  Biso   1.000  C
  C125     1.0000 0.68710  0.05165  0.61135  Biso   1.000  C
  C126     1.0000 0.94835  0.63546  0.61135  Biso   1.000  C
  C127     1.0000 0.05828  0.26864  0.24518  Biso   1.000  C
  C128     1.0000 0.73136  0.78964  0.24518  Biso   1.000  C
  C129     1.0000 0.21036  0.94172  0.24518  Biso   1.000  C
  C130     1.0000 0.72495  0.60197  0.57851  Biso   1.000  C
  C131     1.0000 0.39803  0.12297  0.57851  Biso   1.000  C
  C132     1.0000 0.87703  0.27505  0.57851  Biso   1.000  C
  C133     1.0000 0.39161  0.93531  0.91185  Biso   1.000  C
  C134     1.0000 0.06469  0.45631  0.91185  Biso   1.000  C
  C135     1.0000 0.54369  0.60839  0.91185  Biso   1.000  C
  C136     1.0000 0.94172  0.73136  0.75482  Biso   1.000  C
  C137     1.0000 0.26864  0.21036  0.75482  Biso   1.000  C
  C138     1.0000 0.78964  0.05828  0.75482  Biso   1.000  C
  C139     1.0000 0.60839  0.06469  0.08815  Biso   1.000  C
  C140     1.0000 0.93531  0.54369  0.08815  Biso   1.000  C
  C141     1.0000 0.45631  0.39161  0.08815  Biso   1.000  C
  C142     1.0000 0.27505  0.39803  0.42149  Biso   1.000  C
  C143     1.0000 0.60197  0.87703  0.42149  Biso   1.000  C
  C144     1.0000 0.12297  0.72495  0.42149  Biso   1.000  C
  C145     1.0000 0.28597  0.57392  0.06240  Biso   1.000  C
  C146     1.0000 0.42608  0.71205  0.06240  Biso   1.000  C
  C147     1.0000 0.28795  0.71403  0.06240  Biso   1.000  C
  C148     1.0000 0.95264  0.90725  0.39573  Biso   1.000  C
  C149     1.0000 0.09275  0.04538  0.39573  Biso   1.000  C
  C150     1.0000 0.95462  0.04736  0.39573  Biso   1.000  C
  C151     1.0000 0.61930  0.24059  0.72907  Biso   1.000  C
  C152     1.0000 0.75941  0.37872  0.72907  Biso   1.000  C
  C153     1.0000 0.62128  0.38070  0.72907  Biso   1.000  C
  C154     1.0000 0.71403  0.42608  0.93760  Biso   1.000  C
  C155     1.0000 0.57392  0.28795  0.93760  Biso   1.000  C
  C156     1.0000 0.71205  0.28597  0.93760  Biso   1.000  C
  C157     1.0000 0.38070  0.75941  0.27093  Biso   1.000  C
  C158     1.0000 0.24059  0.62128  0.27093  Biso   1.000  C
  C159     1.0000 0.37872  0.61930  0.27093  Biso   1.000  C
  C160     1.0000 0.04736  0.09275  0.60427  Biso   1.000  C
  C161     1.0000 0.90725  0.95462  0.60427  Biso   1.000  C
  C162     1.0000 0.04538  0.95264  0.60427  Biso   1.000  C
