data_image0
_cell_length_a       25.981
_cell_length_b       11.2127
_cell_length_c       11.0879
_cell_angle_alpha    90
_cell_angle_beta     93.681
_cell_angle_gamma    90

_symmetry_space_group_name_H-M    "P 1"
_symmetry_int_tables_number       1

loop_
  _symmetry_equiv_pos_as_xyz
  'x, y, z'

loop_
  _atom_site_label
  _atom_site_occupancy
  _atom_site_fract_x
  _atom_site_fract_y
  _atom_site_fract_z
  _atom_site_thermal_displace_type
  _atom_site_B_iso_or_equiv
  _atom_site_type_symbol
  Cu1      1.0000 0.00000  0.65777  0.25000  Biso   1.000  Cu
  Cu2      1.0000 0.50000  0.15777  0.25000  Biso   1.000  Cu
  Cu3      1.0000 0.00000  0.34223  0.75000  Biso   1.000  Cu
  Cu4      1.0000 0.50000  0.84223  0.75000  Biso   1.000  Cu
  Cu5      1.0000 0.75000  0.75000  0.50000  Biso   1.000  Cu
  Cu6      1.0000 0.25000  0.75000  0.00000  Biso   1.000  Cu
  Cu7      1.0000 0.25000  0.25000  0.50000  Biso   1.000  Cu
  Cu8      1.0000 0.75000  0.25000  0.00000  Biso   1.000  Cu
  Br1      1.0000 0.94613  0.12411  0.08268  Biso   1.000  Br
  Br2      1.0000 0.05387  0.12411  0.41732  Biso   1.000  Br
  Br3      1.0000 0.44613  0.62411  0.08268  Biso   1.000  Br
  Br4      1.0000 0.55387  0.62411  0.41732  Biso   1.000  Br
  Br5      1.0000 0.05387  0.87589  0.91732  Biso   1.000  Br
  Br6      1.0000 0.94613  0.87589  0.58268  Biso   1.000  Br
  Br7      1.0000 0.55387  0.37589  0.91732  Biso   1.000  Br
  Br8      1.0000 0.44613  0.37589  0.58268  Biso   1.000  Br
  Br9      1.0000 0.17417  0.24176  0.00034  Biso   1.000  Br
  Br10     1.0000 0.82583  0.24176  0.49966  Biso   1.000  Br
  Br11     1.0000 0.67417  0.74176  0.00034  Biso   1.000  Br
  Br12     1.0000 0.32583  0.74176  0.49966  Biso   1.000  Br
  Br13     1.0000 0.82583  0.75824  0.99966  Biso   1.000  Br
  Br14     1.0000 0.17417  0.75824  0.50034  Biso   1.000  Br
  Br15     1.0000 0.32583  0.25824  0.99966  Biso   1.000  Br
  Br16     1.0000 0.67417  0.25824  0.50034  Biso   1.000  Br
  O1       1.0000 0.80813  0.78128  0.39972  Biso   1.000  O
  O2       1.0000 0.19187  0.78128  0.10028  Biso   1.000  O
  O3       1.0000 0.30813  0.28128  0.39972  Biso   1.000  O
  O4       1.0000 0.69187  0.28128  0.10028  Biso   1.000  O
  O5       1.0000 0.19187  0.21872  0.60028  Biso   1.000  O
  O6       1.0000 0.80813  0.21872  0.89972  Biso   1.000  O
  O7       1.0000 0.69187  0.71872  0.60028  Biso   1.000  O
  O8       1.0000 0.30813  0.71872  0.89972  Biso   1.000  O
  O9       1.0000 0.78668  0.96390  0.33160  Biso   1.000  O
  O10      1.0000 0.21332  0.96390  0.16840  Biso   1.000  O
  O11      1.0000 0.28668  0.46390  0.33160  Biso   1.000  O
  O12      1.0000 0.71332  0.46390  0.16840  Biso   1.000  O
  O13      1.0000 0.21332  0.03610  0.66840  Biso   1.000  O
  O14      1.0000 0.78668  0.03610  0.83160  Biso   1.000  O
  O15      1.0000 0.71332  0.53610  0.66840  Biso   1.000  O
  O16      1.0000 0.28668  0.53610  0.83160  Biso   1.000  O
  O17      1.0000 0.05442  0.53705  0.24483  Biso   1.000  O
  O18      1.0000 0.94558  0.53705  0.25517  Biso   1.000  O
  O19      1.0000 0.55442  0.03705  0.24483  Biso   1.000  O
  O20      1.0000 0.44558  0.03705  0.25517  Biso   1.000  O
  O21      1.0000 0.94558  0.46295  0.75517  Biso   1.000  O
  O22      1.0000 0.05442  0.46295  0.74483  Biso   1.000  O
  O23      1.0000 0.44558  0.96295  0.75517  Biso   1.000  O
  O24      1.0000 0.55442  0.96295  0.74483  Biso   1.000  O
  O25      1.0000 0.07362  0.50782  0.44236  Biso   1.000  O
  O26      1.0000 0.92638  0.50782  0.05764  Biso   1.000  O
  O27      1.0000 0.57362  0.00782  0.44236  Biso   1.000  O
  O28      1.0000 0.42638  0.00782  0.05764  Biso   1.000  O
  O29      1.0000 0.92638  0.49218  0.55764  Biso   1.000  O
  O30      1.0000 0.07362  0.49218  0.94236  Biso   1.000  O
  O31      1.0000 0.42638  0.99218  0.55764  Biso   1.000  O
  O32      1.0000 0.57362  0.99218  0.94236  Biso   1.000  O
  O33      1.0000 0.00703  0.66599  0.03630  Biso   1.000  O
  O34      1.0000 0.99297  0.66599  0.46370  Biso   1.000  O
  O35      1.0000 0.50703  0.16599  0.03630  Biso   1.000  O
  O36      1.0000 0.49297  0.16599  0.46370  Biso   1.000  O
  O37      1.0000 0.99297  0.33401  0.96370  Biso   1.000  O
  O38      1.0000 0.00703  0.33401  0.53630  Biso   1.000  O
  O39      1.0000 0.49297  0.83401  0.96370  Biso   1.000  O
  O40      1.0000 0.50703  0.83401  0.53630  Biso   1.000  O
  H1       1.0000 0.03290  0.62430  0.01910  Biso   1.000  H
  H2       1.0000 0.96710  0.62430  0.48090  Biso   1.000  H
  H3       1.0000 0.53290  0.12430  0.01910  Biso   1.000  H
  H4       1.0000 0.46710  0.12430  0.48090  Biso   1.000  H
  H5       1.0000 0.96710  0.37570  0.98090  Biso   1.000  H
  H6       1.0000 0.03290  0.37570  0.51910  Biso   1.000  H
  H7       1.0000 0.46710  0.87570  0.98090  Biso   1.000  H
  H8       1.0000 0.53290  0.87570  0.51910  Biso   1.000  H
  H9       1.0000 0.97830  0.62970  0.03270  Biso   1.000  H
  H10      1.0000 0.02170  0.62970  0.46730  Biso   1.000  H
  H11      1.0000 0.47830  0.12970  0.03270  Biso   1.000  H
  H12      1.0000 0.52170  0.12970  0.46730  Biso   1.000  H
  H13      1.0000 0.02170  0.37030  0.96730  Biso   1.000  H
  H14      1.0000 0.97830  0.37030  0.53270  Biso   1.000  H
  H15      1.0000 0.52170  0.87030  0.96730  Biso   1.000  H
  H16      1.0000 0.47830  0.87030  0.53270  Biso   1.000  H
  O41      1.0000 0.75118  0.54230  0.42250  Biso   1.000  O
  O42      1.0000 0.24882  0.54230  0.07750  Biso   1.000  O
  O43      1.0000 0.25118  0.04230  0.42250  Biso   1.000  O
  O44      1.0000 0.74882  0.04230  0.07750  Biso   1.000  O
  O45      1.0000 0.24882  0.45770  0.57750  Biso   1.000  O
  O46      1.0000 0.75118  0.45770  0.92250  Biso   1.000  O
  O47      1.0000 0.74882  0.95770  0.57750  Biso   1.000  O
  O48      1.0000 0.25118  0.95770  0.92250  Biso   1.000  O
  H17      1.0000 0.74240  0.50530  0.48480  Biso   1.000  H
  H18      1.0000 0.25760  0.50530  0.01520  Biso   1.000  H
  H19      1.0000 0.24240  0.00530  0.48480  Biso   1.000  H
  H20      1.0000 0.75760  0.00530  0.01520  Biso   1.000  H
  H21      1.0000 0.25760  0.49470  0.51520  Biso   1.000  H
  H22      1.0000 0.74240  0.49470  0.98480  Biso   1.000  H
  H23      1.0000 0.75760  0.99470  0.51520  Biso   1.000  H
  H24      1.0000 0.24240  0.99470  0.98480  Biso   1.000  H
  H25      1.0000 0.74340  0.50950  0.35470  Biso   1.000  H
  H26      1.0000 0.25660  0.50950  0.14530  Biso   1.000  H
  H27      1.0000 0.24340  0.00950  0.35470  Biso   1.000  H
  H28      1.0000 0.75660  0.00950  0.14530  Biso   1.000  H
  H29      1.0000 0.25660  0.49050  0.64530  Biso   1.000  H
  H30      1.0000 0.74340  0.49050  0.85470  Biso   1.000  H
  H31      1.0000 0.75660  0.99050  0.64530  Biso   1.000  H
  H32      1.0000 0.24340  0.99050  0.85470  Biso   1.000  H
  N1       1.0000 0.94358  0.78734  0.22430  Biso   1.000  N
  N2       1.0000 0.05642  0.78734  0.27570  Biso   1.000  N
  N3       1.0000 0.44358  0.28734  0.22430  Biso   1.000  N
  N4       1.0000 0.55642  0.28734  0.27570  Biso   1.000  N
  N5       1.0000 0.05642  0.21266  0.77570  Biso   1.000  N
  N6       1.0000 0.94358  0.21266  0.72430  Biso   1.000  N
  N7       1.0000 0.55642  0.71266  0.77570  Biso   1.000  N
  N8       1.0000 0.44358  0.71266  0.72430  Biso   1.000  N
  N9       1.0000 0.19761  0.29540  0.36550  Biso   1.000  N
  N10      1.0000 0.80239  0.29540  0.13450  Biso   1.000  N
  N11      1.0000 0.69761  0.79540  0.36550  Biso   1.000  N
  N12      1.0000 0.30239  0.79540  0.13450  Biso   1.000  N
  N13      1.0000 0.80239  0.70460  0.63450  Biso   1.000  N
  N14      1.0000 0.19761  0.70460  0.86550  Biso   1.000  N
  N15      1.0000 0.30239  0.20460  0.63450  Biso   1.000  N
  N16      1.0000 0.69761  0.20460  0.86550  Biso   1.000  N
  C1       1.0000 0.81578  0.87720  0.34250  Biso   1.000  C
  C2       1.0000 0.18422  0.87720  0.15750  Biso   1.000  C
  C3       1.0000 0.31578  0.37720  0.34250  Biso   1.000  C
  C4       1.0000 0.68422  0.37720  0.15750  Biso   1.000  C
  C5       1.0000 0.18422  0.12280  0.65750  Biso   1.000  C
  C6       1.0000 0.81578  0.12280  0.84250  Biso   1.000  C
  C7       1.0000 0.68422  0.62280  0.65750  Biso   1.000  C
  C8       1.0000 0.31578  0.62280  0.84250  Biso   1.000  C
  C9       1.0000 0.86560  0.88080  0.27850  Biso   1.000  C
  C10      1.0000 0.13440  0.88080  0.22150  Biso   1.000  C
  C11      1.0000 0.36560  0.38080  0.27850  Biso   1.000  C
  C12      1.0000 0.63440  0.38080  0.22150  Biso   1.000  C
  C13      1.0000 0.13440  0.11920  0.72150  Biso   1.000  C
  C14      1.0000 0.86560  0.11920  0.77850  Biso   1.000  C
  C15      1.0000 0.63440  0.61920  0.72150  Biso   1.000  C
  C16      1.0000 0.36560  0.61920  0.77850  Biso   1.000  C
  C17      1.0000 0.87835  0.98340  0.21790  Biso   1.000  C
  C18      1.0000 0.12165  0.98340  0.28210  Biso   1.000  C
  C19      1.0000 0.37835  0.48340  0.21790  Biso   1.000  C
  C20      1.0000 0.62165  0.48340  0.28210  Biso   1.000  C
  C21      1.0000 0.12165  0.01660  0.78210  Biso   1.000  C
  C22      1.0000 0.87835  0.01660  0.71790  Biso   1.000  C
  C23      1.0000 0.62165  0.51660  0.78210  Biso   1.000  C
  C24      1.0000 0.37835  0.51660  0.71790  Biso   1.000  C
  H33      1.0000 0.85700  0.04990  0.21690  Biso   1.000  H
  H34      1.0000 0.14300  0.04990  0.28310  Biso   1.000  H
  H35      1.0000 0.35700  0.54990  0.21690  Biso   1.000  H
  H36      1.0000 0.64300  0.54990  0.28310  Biso   1.000  H
  H37      1.0000 0.14300  0.95010  0.78310  Biso   1.000  H
  H38      1.0000 0.85700  0.95010  0.71690  Biso   1.000  H
  H39      1.0000 0.64300  0.45010  0.78310  Biso   1.000  H
  H40      1.0000 0.35700  0.45010  0.71690  Biso   1.000  H
  C25      1.0000 0.92361  0.98470  0.15900  Biso   1.000  C
  C26      1.0000 0.07639  0.98470  0.34100  Biso   1.000  C
  C27      1.0000 0.42361  0.48470  0.15900  Biso   1.000  C
  C28      1.0000 0.57639  0.48470  0.34100  Biso   1.000  C
  C29      1.0000 0.07639  0.01530  0.84100  Biso   1.000  C
  C30      1.0000 0.92361  0.01530  0.65900  Biso   1.000  C
  C31      1.0000 0.57639  0.51530  0.84100  Biso   1.000  C
  C32      1.0000 0.42361  0.51530  0.65900  Biso   1.000  C
  C33      1.0000 0.95458  0.88510  0.16090  Biso   1.000  C
  C34      1.0000 0.04542  0.88510  0.33910  Biso   1.000  C
  C35      1.0000 0.45458  0.38510  0.16090  Biso   1.000  C
  C36      1.0000 0.54542  0.38510  0.33910  Biso   1.000  C
  C37      1.0000 0.04542  0.11490  0.83910  Biso   1.000  C
  C38      1.0000 0.95458  0.11490  0.66090  Biso   1.000  C
  C39      1.0000 0.54542  0.61490  0.83910  Biso   1.000  C
  C40      1.0000 0.45458  0.61490  0.66090  Biso   1.000  C
  H41      1.0000 0.98390  0.88550  0.11710  Biso   1.000  H
  H42      1.0000 0.01610  0.88550  0.38290  Biso   1.000  H
  H43      1.0000 0.48390  0.38550  0.11710  Biso   1.000  H
  H44      1.0000 0.51610  0.38550  0.38290  Biso   1.000  H
  H45      1.0000 0.01610  0.11450  0.88290  Biso   1.000  H
  H46      1.0000 0.98390  0.11450  0.61710  Biso   1.000  H
  H47      1.0000 0.51610  0.61450  0.88290  Biso   1.000  H
  H48      1.0000 0.48390  0.61450  0.61710  Biso   1.000  H
  C41      1.0000 0.89987  0.78550  0.28150  Biso   1.000  C
  C42      1.0000 0.10013  0.78550  0.21850  Biso   1.000  C
  C43      1.0000 0.39987  0.28550  0.28150  Biso   1.000  C
  C44      1.0000 0.60013  0.28550  0.21850  Biso   1.000  C
  C45      1.0000 0.10013  0.21450  0.71850  Biso   1.000  C
  C46      1.0000 0.89987  0.21450  0.78150  Biso   1.000  C
  C47      1.0000 0.60013  0.71450  0.71850  Biso   1.000  C
  C48      1.0000 0.39987  0.71450  0.78150  Biso   1.000  C
  H49      1.0000 0.89210  0.71770  0.32520  Biso   1.000  H
  H50      1.0000 0.10790  0.71770  0.17480  Biso   1.000  H
  H51      1.0000 0.39210  0.21770  0.32520  Biso   1.000  H
  H52      1.0000 0.60790  0.21770  0.17480  Biso   1.000  H
  H53      1.0000 0.10790  0.28230  0.67480  Biso   1.000  H
  H54      1.0000 0.89210  0.28230  0.82520  Biso   1.000  H
  H55      1.0000 0.60790  0.78230  0.67480  Biso   1.000  H
  H56      1.0000 0.39210  0.78230  0.82520  Biso   1.000  H
  C49      1.0000 0.08016  0.49110  0.33350  Biso   1.000  C
  C50      1.0000 0.91984  0.49110  0.16650  Biso   1.000  C
  C51      1.0000 0.58016  0.99110  0.33350  Biso   1.000  C
  C52      1.0000 0.41984  0.99110  0.16650  Biso   1.000  C
  C53      1.0000 0.91984  0.50890  0.66650  Biso   1.000  C
  C54      1.0000 0.08016  0.50890  0.83350  Biso   1.000  C
  C55      1.0000 0.41984  0.00890  0.66650  Biso   1.000  C
  C56      1.0000 0.58016  0.00890  0.83350  Biso   1.000  C
  C57      1.0000 0.12300  0.40880  0.30100  Biso   1.000  C
  C58      1.0000 0.87700  0.40880  0.19900  Biso   1.000  C
  C59      1.0000 0.62300  0.90880  0.30100  Biso   1.000  C
  C60      1.0000 0.37700  0.90880  0.19900  Biso   1.000  C
  C61      1.0000 0.87700  0.59120  0.69900  Biso   1.000  C
  C62      1.0000 0.12300  0.59120  0.80100  Biso   1.000  C
  C63      1.0000 0.37700  0.09120  0.69900  Biso   1.000  C
  C64      1.0000 0.62300  0.09120  0.80100  Biso   1.000  C
  C65      1.0000 0.12761  0.37330  0.18290  Biso   1.000  C
  C66      1.0000 0.87239  0.37330  0.31710  Biso   1.000  C
  C67      1.0000 0.62761  0.87330  0.18290  Biso   1.000  C
  C68      1.0000 0.37239  0.87330  0.31710  Biso   1.000  C
  C69      1.0000 0.87239  0.62670  0.81710  Biso   1.000  C
  C70      1.0000 0.12761  0.62670  0.68290  Biso   1.000  C
  C71      1.0000 0.37239  0.12670  0.81710  Biso   1.000  C
  C72      1.0000 0.62761  0.12670  0.68290  Biso   1.000  C
  H57      1.0000 0.10470  0.40020  0.12090  Biso   1.000  H
  H58      1.0000 0.89530  0.40020  0.37910  Biso   1.000  H
  H59      1.0000 0.60470  0.90020  0.12090  Biso   1.000  H
  H60      1.0000 0.39530  0.90020  0.37910  Biso   1.000  H
  H61      1.0000 0.89530  0.59980  0.87910  Biso   1.000  H
  H62      1.0000 0.10470  0.59980  0.62090  Biso   1.000  H
  H63      1.0000 0.39530  0.09980  0.87910  Biso   1.000  H
  H64      1.0000 0.60470  0.09980  0.62090  Biso   1.000  H
  C73      1.0000 0.16739  0.29650  0.16000  Biso   1.000  C
  C74      1.0000 0.83261  0.29650  0.34000  Biso   1.000  C
  C75      1.0000 0.66739  0.79650  0.16000  Biso   1.000  C
  C76      1.0000 0.33261  0.79650  0.34000  Biso   1.000  C
  C77      1.0000 0.83261  0.70350  0.84000  Biso   1.000  C
  C78      1.0000 0.16739  0.70350  0.66000  Biso   1.000  C
  C79      1.0000 0.33261  0.20350  0.84000  Biso   1.000  C
  C80      1.0000 0.66739  0.20350  0.66000  Biso   1.000  C
  C81      1.0000 0.20207  0.25940  0.25160  Biso   1.000  C
  C82      1.0000 0.79793  0.25940  0.24840  Biso   1.000  C
  C83      1.0000 0.70207  0.75940  0.25160  Biso   1.000  C
  C84      1.0000 0.29793  0.75940  0.24840  Biso   1.000  C
  C85      1.0000 0.79793  0.74060  0.74840  Biso   1.000  C
  C86      1.0000 0.20207  0.74060  0.75160  Biso   1.000  C
  C87      1.0000 0.29793  0.24060  0.74840  Biso   1.000  C
  C88      1.0000 0.70207  0.24060  0.75160  Biso   1.000  C
  H65      1.0000 0.22890  0.20870  0.23410  Biso   1.000  H
  H66      1.0000 0.77110  0.20870  0.26590  Biso   1.000  H
  H67      1.0000 0.72890  0.70870  0.23410  Biso   1.000  H
  H68      1.0000 0.27110  0.70870  0.26590  Biso   1.000  H
  H69      1.0000 0.77110  0.79130  0.76590  Biso   1.000  H
  H70      1.0000 0.22890  0.79130  0.73410  Biso   1.000  H
  H71      1.0000 0.27110  0.29130  0.76590  Biso   1.000  H
  H72      1.0000 0.72890  0.29130  0.73410  Biso   1.000  H
  C89      1.0000 0.15868  0.36820  0.38970  Biso   1.000  C
  C90      1.0000 0.84132  0.36820  0.11030  Biso   1.000  C
  C91      1.0000 0.65868  0.86820  0.38970  Biso   1.000  C
  C92      1.0000 0.34132  0.86820  0.11030  Biso   1.000  C
  C93      1.0000 0.84132  0.63180  0.61030  Biso   1.000  C
  C94      1.0000 0.15868  0.63180  0.88970  Biso   1.000  C
  C95      1.0000 0.34132  0.13180  0.61030  Biso   1.000  C
  C96      1.0000 0.65868  0.13180  0.88970  Biso   1.000  C
  H73      1.0000 0.15550  0.39230  0.46910  Biso   1.000  H
  H74      1.0000 0.84450  0.39230  0.03090  Biso   1.000  H
  H75      1.0000 0.65550  0.89230  0.46910  Biso   1.000  H
  H76      1.0000 0.34450  0.89230  0.03090  Biso   1.000  H
  H77      1.0000 0.84450  0.60770  0.53090  Biso   1.000  H
  H78      1.0000 0.15550  0.60770  0.96910  Biso   1.000  H
  H79      1.0000 0.34450  0.10770  0.53090  Biso   1.000  H
  H80      1.0000 0.65550  0.10770  0.96910  Biso   1.000  H
