data_image0
_cell_length_a       23.2351
_cell_length_b       11.7216
_cell_length_c       13.7825
_cell_angle_alpha    90
_cell_angle_beta     115.285
_cell_angle_gamma    90

_symmetry_space_group_name_H-M    "P 1"
_symmetry_int_tables_number       1

loop_
  _symmetry_equiv_pos_as_xyz
  'x, y, z'

loop_
  _atom_site_label
  _atom_site_occupancy
  _atom_site_fract_x
  _atom_site_fract_y
  _atom_site_fract_z
  _atom_site_thermal_displace_type
  _atom_site_B_iso_or_equiv
  _atom_site_type_symbol
  Cu1      1.0000 0.12326  0.23927  0.19814  Biso   1.000  Cu
  Cu2      1.0000 0.87674  0.23927  0.30186  Biso   1.000  Cu
  Cu3      1.0000 0.62326  0.73927  0.19814  Biso   1.000  Cu
  Cu4      1.0000 0.37674  0.73927  0.30186  Biso   1.000  Cu
  Cu5      1.0000 0.87674  0.76073  0.80186  Biso   1.000  Cu
  Cu6      1.0000 0.12326  0.76073  0.69814  Biso   1.000  Cu
  Cu7      1.0000 0.37674  0.26073  0.80186  Biso   1.000  Cu
  Cu8      1.0000 0.62326  0.26073  0.69814  Biso   1.000  Cu
  O1       1.0000 0.18310  0.33307  0.17023  Biso   1.000  O
  O2       1.0000 0.81690  0.33307  0.32977  Biso   1.000  O
  O3       1.0000 0.68310  0.83307  0.17023  Biso   1.000  O
  O4       1.0000 0.31690  0.83307  0.32977  Biso   1.000  O
  O5       1.0000 0.81690  0.66693  0.82977  Biso   1.000  O
  O6       1.0000 0.18310  0.66693  0.67023  Biso   1.000  O
  O7       1.0000 0.31690  0.16693  0.82977  Biso   1.000  O
  O8       1.0000 0.68310  0.16693  0.67023  Biso   1.000  O
  O9       1.0000 0.13043  0.24125  0.01890  Biso   1.000  O
  O10      1.0000 0.86957  0.24125  0.48110  Biso   1.000  O
  O11      1.0000 0.63043  0.74125  0.01890  Biso   1.000  O
  O12      1.0000 0.36957  0.74125  0.48110  Biso   1.000  O
  O13      1.0000 0.86957  0.75875  0.98110  Biso   1.000  O
  O14      1.0000 0.13043  0.75875  0.51890  Biso   1.000  O
  O15      1.0000 0.36957  0.25875  0.98110  Biso   1.000  O
  O16      1.0000 0.63043  0.25875  0.51890  Biso   1.000  O
  O17      1.0000 0.34074  0.70357  0.06576  Biso   1.000  O
  O18      1.0000 0.65926  0.70357  0.43424  Biso   1.000  O
  O19      1.0000 0.84074  0.20357  0.06576  Biso   1.000  O
  O20      1.0000 0.15926  0.20357  0.43424  Biso   1.000  O
  O21      1.0000 0.65926  0.29643  0.93424  Biso   1.000  O
  O22      1.0000 0.34074  0.29643  0.56576  Biso   1.000  O
  O23      1.0000 0.15926  0.79643  0.93424  Biso   1.000  O
  O24      1.0000 0.84074  0.79643  0.56576  Biso   1.000  O
  O25      1.0000 0.30760  0.66024  0.18977  Biso   1.000  O
  O26      1.0000 0.69240  0.66024  0.31023  Biso   1.000  O
  O27      1.0000 0.80760  0.16024  0.18977  Biso   1.000  O
  O28      1.0000 0.19240  0.16024  0.31023  Biso   1.000  O
  O29      1.0000 0.69240  0.33976  0.81023  Biso   1.000  O
  O30      1.0000 0.30760  0.33976  0.68977  Biso   1.000  O
  O31      1.0000 0.19240  0.83976  0.81023  Biso   1.000  O
  O32      1.0000 0.80760  0.83976  0.68977  Biso   1.000  O
  O33      1.0000 0.17288  0.25790  0.65700  Biso   1.000  O
  O34      1.0000 0.82712  0.25790  0.84300  Biso   1.000  O
  O35      1.0000 0.67288  0.75790  0.65700  Biso   1.000  O
  O36      1.0000 0.32712  0.75790  0.84300  Biso   1.000  O
  O37      1.0000 0.82712  0.74210  0.34300  Biso   1.000  O
  O38      1.0000 0.17288  0.74210  0.15700  Biso   1.000  O
  O39      1.0000 0.32712  0.24210  0.34300  Biso   1.000  O
  O40      1.0000 0.67288  0.24210  0.15700  Biso   1.000  O
  H1       1.0000 0.17000  0.26200  0.59390  Biso   1.000  H
  H2       1.0000 0.83000  0.26200  0.90610  Biso   1.000  H
  H3       1.0000 0.67000  0.76200  0.59390  Biso   1.000  H
  H4       1.0000 0.33000  0.76200  0.90610  Biso   1.000  H
  H5       1.0000 0.83000  0.73800  0.40610  Biso   1.000  H
  H6       1.0000 0.17000  0.73800  0.09390  Biso   1.000  H
  H7       1.0000 0.33000  0.23800  0.40610  Biso   1.000  H
  H8       1.0000 0.67000  0.23800  0.09390  Biso   1.000  H
  H9       1.0000 0.21180  0.24400  0.69700  Biso   1.000  H
  H10      1.0000 0.78820  0.24400  0.80300  Biso   1.000  H
  H11      1.0000 0.71180  0.74400  0.69700  Biso   1.000  H
  H12      1.0000 0.28820  0.74400  0.80300  Biso   1.000  H
  H13      1.0000 0.78820  0.75600  0.30300  Biso   1.000  H
  H14      1.0000 0.21180  0.75600  0.19700  Biso   1.000  H
  H15      1.0000 0.28820  0.25600  0.30300  Biso   1.000  H
  H16      1.0000 0.71180  0.25600  0.19700  Biso   1.000  H
  N1       1.0000 0.05454  0.35484  0.15302  Biso   1.000  N
  N2       1.0000 0.94546  0.35484  0.34698  Biso   1.000  N
  N3       1.0000 0.55454  0.85484  0.15302  Biso   1.000  N
  N4       1.0000 0.44546  0.85484  0.34698  Biso   1.000  N
  N5       1.0000 0.94546  0.64516  0.84698  Biso   1.000  N
  N6       1.0000 0.05454  0.64516  0.65302  Biso   1.000  N
  N7       1.0000 0.44546  0.14516  0.84698  Biso   1.000  N
  N8       1.0000 0.55454  0.14516  0.65302  Biso   1.000  N
  N9       1.0000 0.06390  0.11088  0.17010  Biso   1.000  N
  N10      1.0000 0.93610  0.11088  0.32990  Biso   1.000  N
  N11      1.0000 0.56390  0.61088  0.17010  Biso   1.000  N
  N12      1.0000 0.43610  0.61088  0.32990  Biso   1.000  N
  N13      1.0000 0.93610  0.88912  0.82990  Biso   1.000  N
  N14      1.0000 0.06390  0.88912  0.67010  Biso   1.000  N
  N15      1.0000 0.43610  0.38912  0.82990  Biso   1.000  N
  N16      1.0000 0.56390  0.38912  0.67010  Biso   1.000  N
  N17      1.0000 0.97123  0.22293  0.11721  Biso   1.000  N
  N18      1.0000 0.02877  0.22293  0.38279  Biso   1.000  N
  N19      1.0000 0.47123  0.72293  0.11721  Biso   1.000  N
  N20      1.0000 0.52877  0.72293  0.38279  Biso   1.000  N
  N21      1.0000 0.02877  0.77707  0.88279  Biso   1.000  N
  N22      1.0000 0.97123  0.77707  0.61721  Biso   1.000  N
  N23      1.0000 0.52877  0.27707  0.88279  Biso   1.000  N
  N24      1.0000 0.47123  0.27707  0.61721  Biso   1.000  N
  H17      1.0000 0.93110  0.21840  0.10030  Biso   1.000  H
  H18      1.0000 0.06890  0.21840  0.39970  Biso   1.000  H
  H19      1.0000 0.43110  0.71840  0.10030  Biso   1.000  H
  H20      1.0000 0.56890  0.71840  0.39970  Biso   1.000  H
  H21      1.0000 0.06890  0.78160  0.89970  Biso   1.000  H
  H22      1.0000 0.93110  0.78160  0.60030  Biso   1.000  H
  H23      1.0000 0.56890  0.28160  0.89970  Biso   1.000  H
  H24      1.0000 0.43110  0.28160  0.60030  Biso   1.000  H
  C1       1.0000 0.07216  0.46600  0.15880  Biso   1.000  C
  C2       1.0000 0.92784  0.46600  0.34120  Biso   1.000  C
  C3       1.0000 0.57216  0.96600  0.15880  Biso   1.000  C
  C4       1.0000 0.42784  0.96600  0.34120  Biso   1.000  C
  C5       1.0000 0.92784  0.53400  0.84120  Biso   1.000  C
  C6       1.0000 0.07216  0.53400  0.65880  Biso   1.000  C
  C7       1.0000 0.42784  0.03400  0.84120  Biso   1.000  C
  C8       1.0000 0.57216  0.03400  0.65880  Biso   1.000  C
  H25      1.0000 0.11480  0.48220  0.17730  Biso   1.000  H
  H26      1.0000 0.88520  0.48220  0.32270  Biso   1.000  H
  H27      1.0000 0.61480  0.98220  0.17730  Biso   1.000  H
  H28      1.0000 0.38520  0.98220  0.32270  Biso   1.000  H
  H29      1.0000 0.88520  0.51780  0.82270  Biso   1.000  H
  H30      1.0000 0.11480  0.51780  0.67730  Biso   1.000  H
  H31      1.0000 0.38520  0.01780  0.82270  Biso   1.000  H
  H32      1.0000 0.61480  0.01780  0.67730  Biso   1.000  H
  C9       1.0000 0.03169  0.55390  0.13940  Biso   1.000  C
  C10      1.0000 0.96831  0.55390  0.36060  Biso   1.000  C
  C11      1.0000 0.53169  0.05390  0.13940  Biso   1.000  C
  C12      1.0000 0.46831  0.05390  0.36060  Biso   1.000  C
  C13      1.0000 0.96831  0.44610  0.86060  Biso   1.000  C
  C14      1.0000 0.03169  0.44610  0.63940  Biso   1.000  C
  C15      1.0000 0.46831  0.94610  0.86060  Biso   1.000  C
  C16      1.0000 0.53169  0.94610  0.63940  Biso   1.000  C
  H33      1.0000 0.04610  0.62860  0.14420  Biso   1.000  H
  H34      1.0000 0.95390  0.62860  0.35580  Biso   1.000  H
  H35      1.0000 0.54610  0.12860  0.14420  Biso   1.000  H
  H36      1.0000 0.45390  0.12860  0.35580  Biso   1.000  H
  H37      1.0000 0.95390  0.37140  0.85580  Biso   1.000  H
  H38      1.0000 0.04610  0.37140  0.64420  Biso   1.000  H
  H39      1.0000 0.45390  0.87140  0.85580  Biso   1.000  H
  H40      1.0000 0.54610  0.87140  0.64420  Biso   1.000  H
  C17      1.0000 0.96827  0.53170  0.11210  Biso   1.000  C
  C18      1.0000 0.03173  0.53170  0.38790  Biso   1.000  C
  C19      1.0000 0.46827  0.03170  0.11210  Biso   1.000  C
  C20      1.0000 0.53173  0.03170  0.38790  Biso   1.000  C
  C21      1.0000 0.03173  0.46830  0.88790  Biso   1.000  C
  C22      1.0000 0.96827  0.46830  0.61210  Biso   1.000  C
  C23      1.0000 0.53173  0.96830  0.88790  Biso   1.000  C
  C24      1.0000 0.46827  0.96830  0.61210  Biso   1.000  C
  H41      1.0000 0.93930  0.59110  0.09860  Biso   1.000  H
  H42      1.0000 0.06070  0.59110  0.40140  Biso   1.000  H
  H43      1.0000 0.43930  0.09110  0.09860  Biso   1.000  H
  H44      1.0000 0.56070  0.09110  0.40140  Biso   1.000  H
  H45      1.0000 0.06070  0.40890  0.90140  Biso   1.000  H
  H46      1.0000 0.93930  0.40890  0.59860  Biso   1.000  H
  H47      1.0000 0.56070  0.90890  0.90140  Biso   1.000  H
  H48      1.0000 0.43930  0.90890  0.59860  Biso   1.000  H
  C25      1.0000 0.94877  0.42070  0.10525  Biso   1.000  C
  C26      1.0000 0.05123  0.42070  0.39475  Biso   1.000  C
  C27      1.0000 0.44877  0.92070  0.10525  Biso   1.000  C
  C28      1.0000 0.55123  0.92070  0.39475  Biso   1.000  C
  C29      1.0000 0.05123  0.57930  0.89475  Biso   1.000  C
  C30      1.0000 0.94877  0.57930  0.60525  Biso   1.000  C
  C31      1.0000 0.55123  0.07930  0.89475  Biso   1.000  C
  C32      1.0000 0.44877  0.07930  0.60525  Biso   1.000  C
  H49      1.0000 0.90630  0.40380  0.08730  Biso   1.000  H
  H50      1.0000 0.09370  0.40380  0.41270  Biso   1.000  H
  H51      1.0000 0.40630  0.90380  0.08730  Biso   1.000  H
  H52      1.0000 0.59370  0.90380  0.41270  Biso   1.000  H
  H53      1.0000 0.09370  0.59620  0.91270  Biso   1.000  H
  H54      1.0000 0.90630  0.59620  0.58730  Biso   1.000  H
  H55      1.0000 0.59370  0.09620  0.91270  Biso   1.000  H
  H56      1.0000 0.40630  0.09620  0.58730  Biso   1.000  H
  C33      1.0000 0.99280  0.33308  0.12533  Biso   1.000  C
  C34      1.0000 0.00720  0.33308  0.37467  Biso   1.000  C
  C35      1.0000 0.49280  0.83308  0.12533  Biso   1.000  C
  C36      1.0000 0.50720  0.83308  0.37467  Biso   1.000  C
  C37      1.0000 0.00720  0.66692  0.87467  Biso   1.000  C
  C38      1.0000 0.99280  0.66692  0.62533  Biso   1.000  C
  C39      1.0000 0.50720  0.16692  0.87467  Biso   1.000  C
  C40      1.0000 0.49280  0.16692  0.62533  Biso   1.000  C
  C41      1.0000 0.00039  0.11822  0.13045  Biso   1.000  C
  C42      1.0000 0.99961  0.11822  0.36955  Biso   1.000  C
  C43      1.0000 0.50039  0.61822  0.13045  Biso   1.000  C
  C44      1.0000 0.49961  0.61822  0.36955  Biso   1.000  C
  C45      1.0000 0.99961  0.88178  0.86955  Biso   1.000  C
  C46      1.0000 0.00039  0.88178  0.63045  Biso   1.000  C
  C47      1.0000 0.49961  0.38178  0.86955  Biso   1.000  C
  C48      1.0000 0.50039  0.38178  0.63045  Biso   1.000  C
  C49      1.0000 0.96260  0.02090  0.10290  Biso   1.000  C
  C50      1.0000 0.03740  0.02090  0.39710  Biso   1.000  C
  C51      1.0000 0.46260  0.52090  0.10290  Biso   1.000  C
  C52      1.0000 0.53740  0.52090  0.39710  Biso   1.000  C
  C53      1.0000 0.03740  0.97910  0.89710  Biso   1.000  C
  C54      1.0000 0.96260  0.97910  0.60290  Biso   1.000  C
  C55      1.0000 0.53740  0.47910  0.89710  Biso   1.000  C
  C56      1.0000 0.46260  0.47910  0.60290  Biso   1.000  C
  H57      1.0000 0.91860  0.02800  0.07610  Biso   1.000  H
  H58      1.0000 0.08140  0.02800  0.42390  Biso   1.000  H
  H59      1.0000 0.41860  0.52800  0.07610  Biso   1.000  H
  H60      1.0000 0.58140  0.52800  0.42390  Biso   1.000  H
  H61      1.0000 0.08140  0.97200  0.92390  Biso   1.000  H
  H62      1.0000 0.91860  0.97200  0.57610  Biso   1.000  H
  H63      1.0000 0.58140  0.47200  0.92390  Biso   1.000  H
  H64      1.0000 0.41860  0.47200  0.57610  Biso   1.000  H
  C57      1.0000 0.98875  0.91650  0.11450  Biso   1.000  C
  C58      1.0000 0.01125  0.91650  0.38550  Biso   1.000  C
  C59      1.0000 0.48875  0.41650  0.11450  Biso   1.000  C
  C60      1.0000 0.51125  0.41650  0.38550  Biso   1.000  C
  C61      1.0000 0.01125  0.08350  0.88550  Biso   1.000  C
  C62      1.0000 0.98875  0.08350  0.61450  Biso   1.000  C
  C63      1.0000 0.51125  0.58350  0.88550  Biso   1.000  C
  C64      1.0000 0.48875  0.58350  0.61450  Biso   1.000  C
  H65      1.0000 0.96340  0.85150  0.09630  Biso   1.000  H
  H66      1.0000 0.03660  0.85150  0.40370  Biso   1.000  H
  H67      1.0000 0.46340  0.35150  0.09630  Biso   1.000  H
  H68      1.0000 0.53660  0.35150  0.40370  Biso   1.000  H
  H69      1.0000 0.03660  0.14850  0.90370  Biso   1.000  H
  H70      1.0000 0.96340  0.14850  0.59630  Biso   1.000  H
  H71      1.0000 0.53660  0.64850  0.90370  Biso   1.000  H
  H72      1.0000 0.46340  0.64850  0.59630  Biso   1.000  H
  C65      1.0000 0.05470  0.90800  0.15440  Biso   1.000  C
  C66      1.0000 0.94530  0.90800  0.34560  Biso   1.000  C
  C67      1.0000 0.55470  0.40800  0.15440  Biso   1.000  C
  C68      1.0000 0.44530  0.40800  0.34560  Biso   1.000  C
  C69      1.0000 0.94530  0.09200  0.84560  Biso   1.000  C
  C70      1.0000 0.05470  0.09200  0.65440  Biso   1.000  C
  C71      1.0000 0.44530  0.59200  0.84560  Biso   1.000  C
  C72      1.0000 0.55470  0.59200  0.65440  Biso   1.000  C
  H73      1.0000 0.07450  0.83720  0.16330  Biso   1.000  H
  H74      1.0000 0.92550  0.83720  0.33670  Biso   1.000  H
  H75      1.0000 0.57450  0.33720  0.16330  Biso   1.000  H
  H76      1.0000 0.42550  0.33720  0.33670  Biso   1.000  H
  H77      1.0000 0.92550  0.16280  0.83670  Biso   1.000  H
  H78      1.0000 0.07450  0.16280  0.66330  Biso   1.000  H
  H79      1.0000 0.42550  0.66280  0.83670  Biso   1.000  H
  H80      1.0000 0.57450  0.66280  0.66330  Biso   1.000  H
  C73      1.0000 0.08888  0.00440  0.17940  Biso   1.000  C
  C74      1.0000 0.91112  0.00440  0.32060  Biso   1.000  C
  C75      1.0000 0.58888  0.50440  0.17940  Biso   1.000  C
  C76      1.0000 0.41112  0.50440  0.32060  Biso   1.000  C
  C77      1.0000 0.91112  0.99560  0.82060  Biso   1.000  C
  C78      1.0000 0.08888  0.99560  0.67940  Biso   1.000  C
  C79      1.0000 0.41112  0.49560  0.82060  Biso   1.000  C
  C80      1.0000 0.58888  0.49560  0.67940  Biso   1.000  C
  H81      1.0000 0.13280  0.99810  0.20510  Biso   1.000  H
  H82      1.0000 0.86720  0.99810  0.29490  Biso   1.000  H
  H83      1.0000 0.63280  0.49810  0.20510  Biso   1.000  H
  H84      1.0000 0.36720  0.49810  0.29490  Biso   1.000  H
  H85      1.0000 0.86720  0.00190  0.79490  Biso   1.000  H
  H86      1.0000 0.13280  0.00190  0.70510  Biso   1.000  H
  H87      1.0000 0.36720  0.50190  0.79490  Biso   1.000  H
  H88      1.0000 0.63280  0.50190  0.70510  Biso   1.000  H
  C81      1.0000 0.16975  0.31292  0.07180  Biso   1.000  C
  C82      1.0000 0.83025  0.31292  0.42820  Biso   1.000  C
  C83      1.0000 0.66975  0.81292  0.07180  Biso   1.000  C
  C84      1.0000 0.33025  0.81292  0.42820  Biso   1.000  C
  C85      1.0000 0.83025  0.68708  0.92820  Biso   1.000  C
  C86      1.0000 0.16975  0.68708  0.57180  Biso   1.000  C
  C87      1.0000 0.33025  0.18708  0.92820  Biso   1.000  C
  C88      1.0000 0.66975  0.18708  0.57180  Biso   1.000  C
  C89      1.0000 0.20251  0.38632  0.02202  Biso   1.000  C
  C90      1.0000 0.79749  0.38632  0.47798  Biso   1.000  C
  C91      1.0000 0.70251  0.88632  0.02202  Biso   1.000  C
  C92      1.0000 0.29749  0.88632  0.47798  Biso   1.000  C
  C93      1.0000 0.79749  0.61368  0.97798  Biso   1.000  C
  C94      1.0000 0.20251  0.61368  0.52202  Biso   1.000  C
  C95      1.0000 0.29749  0.11368  0.97798  Biso   1.000  C
  C96      1.0000 0.70251  0.11368  0.52202  Biso   1.000  C
  C97      1.0000 0.19719  0.36400  0.92009  Biso   1.000  C
  C98      1.0000 0.80281  0.36400  0.57991  Biso   1.000  C
  C99      1.0000 0.69719  0.86400  0.92009  Biso   1.000  C
  C100     1.0000 0.30281  0.86400  0.57991  Biso   1.000  C
  C101     1.0000 0.80281  0.63600  0.07991  Biso   1.000  C
  C102     1.0000 0.19719  0.63600  0.42009  Biso   1.000  C
  C103     1.0000 0.30281  0.13600  0.07991  Biso   1.000  C
  C104     1.0000 0.69719  0.13600  0.42009  Biso   1.000  C
  H89      1.0000 0.17380  0.30150  0.88190  Biso   1.000  H
  H90      1.0000 0.82620  0.30150  0.61810  Biso   1.000  H
  H91      1.0000 0.67380  0.80150  0.88190  Biso   1.000  H
  H92      1.0000 0.32620  0.80150  0.61810  Biso   1.000  H
  H93      1.0000 0.82620  0.69850  0.11810  Biso   1.000  H
  H94      1.0000 0.17380  0.69850  0.38190  Biso   1.000  H
  H95      1.0000 0.32620  0.19850  0.11810  Biso   1.000  H
  H96      1.0000 0.67380  0.19850  0.38190  Biso   1.000  H
  C105     1.0000 0.22669  0.43480  0.87520  Biso   1.000  C
  C106     1.0000 0.77331  0.43480  0.62480  Biso   1.000  C
  C107     1.0000 0.72669  0.93480  0.87520  Biso   1.000  C
  C108     1.0000 0.27331  0.93480  0.62480  Biso   1.000  C
  C109     1.0000 0.77331  0.56520  0.12480  Biso   1.000  C
  C110     1.0000 0.22669  0.56520  0.37520  Biso   1.000  C
  C111     1.0000 0.27331  0.06520  0.12480  Biso   1.000  C
  C112     1.0000 0.72669  0.06520  0.37520  Biso   1.000  C
  H97      1.0000 0.22300  0.41990  0.80650  Biso   1.000  H
  H98      1.0000 0.77700  0.41990  0.69350  Biso   1.000  H
  H99      1.0000 0.72300  0.91990  0.80650  Biso   1.000  H
  H100     1.0000 0.27700  0.91990  0.69350  Biso   1.000  H
  H101     1.0000 0.77700  0.58010  0.19350  Biso   1.000  H
  H102     1.0000 0.22300  0.58010  0.30650  Biso   1.000  H
  H103     1.0000 0.27700  0.08010  0.19350  Biso   1.000  H
  H104     1.0000 0.72300  0.08010  0.30650  Biso   1.000  H
  C113     1.0000 0.26152  0.52710  0.93130  Biso   1.000  C
  C114     1.0000 0.73848  0.52710  0.56870  Biso   1.000  C
  C115     1.0000 0.76152  0.02710  0.93130  Biso   1.000  C
  C116     1.0000 0.23848  0.02710  0.56870  Biso   1.000  C
  C117     1.0000 0.73848  0.47290  0.06870  Biso   1.000  C
  C118     1.0000 0.26152  0.47290  0.43130  Biso   1.000  C
  C119     1.0000 0.23848  0.97290  0.06870  Biso   1.000  C
  C120     1.0000 0.76152  0.97290  0.43130  Biso   1.000  C
  H105     1.0000 0.28120  0.57430  0.90030  Biso   1.000  H
  H106     1.0000 0.71880  0.57430  0.59970  Biso   1.000  H
  H107     1.0000 0.78120  0.07430  0.90030  Biso   1.000  H
  H108     1.0000 0.21880  0.07430  0.59970  Biso   1.000  H
  H109     1.0000 0.71880  0.42570  0.09970  Biso   1.000  H
  H110     1.0000 0.28120  0.42570  0.40030  Biso   1.000  H
  H111     1.0000 0.21880  0.92570  0.09970  Biso   1.000  H
  H112     1.0000 0.78120  0.92570  0.40030  Biso   1.000  H
  C121     1.0000 0.26739  0.54976  0.03310  Biso   1.000  C
  C122     1.0000 0.73261  0.54976  0.46690  Biso   1.000  C
  C123     1.0000 0.76739  0.04976  0.03310  Biso   1.000  C
  C124     1.0000 0.23261  0.04976  0.46690  Biso   1.000  C
  C125     1.0000 0.73261  0.45024  0.96690  Biso   1.000  C
  C126     1.0000 0.26739  0.45024  0.53310  Biso   1.000  C
  C127     1.0000 0.23261  0.95024  0.96690  Biso   1.000  C
  C128     1.0000 0.76739  0.95024  0.53310  Biso   1.000  C
  C129     1.0000 0.23776  0.47899  0.07762  Biso   1.000  C
  C130     1.0000 0.76224  0.47899  0.42238  Biso   1.000  C
  C131     1.0000 0.73776  0.97899  0.07762  Biso   1.000  C
  C132     1.0000 0.26224  0.97899  0.42238  Biso   1.000  C
  C133     1.0000 0.76224  0.52101  0.92238  Biso   1.000  C
  C134     1.0000 0.23776  0.52101  0.57762  Biso   1.000  C
  C135     1.0000 0.26224  0.02101  0.92238  Biso   1.000  C
  C136     1.0000 0.73776  0.02101  0.57762  Biso   1.000  C
  H113     1.0000 0.24160  0.49400  0.14640  Biso   1.000  H
  H114     1.0000 0.75840  0.49400  0.35360  Biso   1.000  H
  H115     1.0000 0.74160  0.99400  0.14640  Biso   1.000  H
  H116     1.0000 0.25840  0.99400  0.35360  Biso   1.000  H
  H117     1.0000 0.75840  0.50600  0.85360  Biso   1.000  H
  H118     1.0000 0.24160  0.50600  0.64640  Biso   1.000  H
  H119     1.0000 0.25840  0.00600  0.85360  Biso   1.000  H
  H120     1.0000 0.74160  0.00600  0.64640  Biso   1.000  H
  C137     1.0000 0.30793  0.64609  0.09891  Biso   1.000  C
  C138     1.0000 0.69207  0.64609  0.40109  Biso   1.000  C
  C139     1.0000 0.80793  0.14609  0.09891  Biso   1.000  C
  C140     1.0000 0.19207  0.14609  0.40109  Biso   1.000  C
  C141     1.0000 0.69207  0.35391  0.90109  Biso   1.000  C
  C142     1.0000 0.30793  0.35391  0.59891  Biso   1.000  C
  C143     1.0000 0.19207  0.85391  0.90109  Biso   1.000  C
  C144     1.0000 0.80793  0.85391  0.59891  Biso   1.000  C
