data_image0
_cell_length_a       11.2384
_cell_length_b       8.91745
_cell_length_c       3.78136
_cell_angle_alpha    105.204
_cell_angle_beta     105.985
_cell_angle_gamma    97.9476

_symmetry_space_group_name_H-M    "P 1"
_symmetry_int_tables_number       1

loop_
  _symmetry_equiv_pos_as_xyz
  'x, y, z'

loop_
  _atom_site_label
  _atom_site_occupancy
  _atom_site_fract_x
  _atom_site_fract_y
  _atom_site_fract_z
  _atom_site_thermal_displace_type
  _atom_site_B_iso_or_equiv
  _atom_site_type_symbol
  N1       1.0000 0.23481  0.78953  0.74351  Biso   1.000  N
  N2       1.0000 0.76519  0.21047  0.25649  Biso   1.000  N
  Cu1      1.0000 0.14327  0.97540  0.77260  Biso   1.000  Cu
  Cu2      1.0000 0.85673  0.02460  0.22740  Biso   1.000  Cu
  C1       1.0000 0.17384  0.64483  0.72704  Biso   1.000  C
  C2       1.0000 0.82616  0.35517  0.27296  Biso   1.000  C
  C3       1.0000 0.35525  0.80818  0.74366  Biso   1.000  C
  C4       1.0000 0.64475  0.19182  0.25634  Biso   1.000  C
  Cl1      1.0000 0.98089  0.83521  0.20173  Biso   1.000  Cl
  Cl2      1.0000 0.01911  0.16479  0.79827  Biso   1.000  Cl
  Cl3      1.0000 0.28384  0.11294  0.37035  Biso   1.000  Cl
  Cl4      1.0000 0.71616  0.88706  0.62965  Biso   1.000  Cl
  H1       1.0000 0.08638  0.63127  0.72378  Biso   1.000  H
  H2       1.0000 0.91362  0.36873  0.27622  Biso   1.000  H
  C5       1.0000 0.23938  0.51262  0.70632  Biso   1.000  C
  C6       1.0000 0.76062  0.48738  0.29368  Biso   1.000  C
  C7       1.0000 0.41911  0.68545  0.72644  Biso   1.000  C
  C8       1.0000 0.58089  0.31455  0.27356  Biso   1.000  C
  H3       1.0000 0.39952  0.90902  0.75986  Biso   1.000  H
  H4       1.0000 0.60048  0.09098  0.24014  Biso   1.000  H
  H5       1.0000 0.19734  0.39975  0.69909  Biso   1.000  H
  H6       1.0000 0.80266  0.60025  0.30091  Biso   1.000  H
  C9       1.0000 0.36170  0.53894  0.70677  Biso   1.000  C
  C10      1.0000 0.63830  0.46106  0.29323  Biso   1.000  C
  H7       1.0000 0.50026  0.70399  0.72055  Biso   1.000  H
  H8       1.0000 0.49974  0.29601  0.27945  Biso   1.000  H
  H9       1.0000 0.40663  0.45436  0.69680  Biso   1.000  H
  H10      1.0000 0.59337  0.54564  0.30320  Biso   1.000  H
