data_image0
_cell_length_a       12.3567
_cell_length_b       14.8898
_cell_length_c       3.78363
_cell_angle_alpha    90
_cell_angle_beta     99.9471
_cell_angle_gamma    90

_symmetry_space_group_name_H-M    "P 1"
_symmetry_int_tables_number       1

loop_
  _symmetry_equiv_pos_as_xyz
  'x, y, z'

loop_
  _atom_site_label
  _atom_site_occupancy
  _atom_site_fract_x
  _atom_site_fract_y
  _atom_site_fract_z
  _atom_site_thermal_displace_type
  _atom_site_B_iso_or_equiv
  _atom_site_type_symbol
  N1       1.0000 0.91883  0.27893  0.10934  Biso   1.000  N
  N2       1.0000 0.58117  0.77893  0.39066  Biso   1.000  N
  N3       1.0000 0.08117  0.72107  0.89066  Biso   1.000  N
  N4       1.0000 0.41883  0.22107  0.60934  Biso   1.000  N
  Cu1      1.0000 0.91765  0.41685  0.11928  Biso   1.000  Cu
  Cu2      1.0000 0.58235  0.91685  0.38072  Biso   1.000  Cu
  Cu3      1.0000 0.08235  0.58315  0.88072  Biso   1.000  Cu
  Cu4      1.0000 0.41765  0.08315  0.61928  Biso   1.000  Cu
  C1       1.0000 0.01668  0.22990  0.27236  Biso   1.000  C
  C2       1.0000 0.48332  0.72990  0.22764  Biso   1.000  C
  C3       1.0000 0.98332  0.77010  0.72764  Biso   1.000  C
  C4       1.0000 0.51668  0.27010  0.77236  Biso   1.000  C
  C5       1.0000 0.82331  0.22852  0.99541  Biso   1.000  C
  C6       1.0000 0.67669  0.72852  0.50459  Biso   1.000  C
  C7       1.0000 0.17669  0.77148  0.00459  Biso   1.000  C
  C8       1.0000 0.32331  0.27148  0.49541  Biso   1.000  C
  Cl1      1.0000 0.78000  0.42122  0.45675  Biso   1.000  Cl
  Cl2      1.0000 0.72000  0.92122  0.04325  Biso   1.000  Cl
  Cl3      1.0000 0.22000  0.57878  0.54325  Biso   1.000  Cl
  Cl4      1.0000 0.28000  0.07878  0.95675  Biso   1.000  Cl
  Cl5      1.0000 0.07433  0.42224  0.86648  Biso   1.000  Cl
  Cl6      1.0000 0.42567  0.92224  0.63352  Biso   1.000  Cl
  Cl7      1.0000 0.92567  0.57776  0.13352  Biso   1.000  Cl
  Cl8      1.0000 0.57433  0.07776  0.36648  Biso   1.000  Cl
  H1       1.0000 0.08297  0.25610  0.35772  Biso   1.000  H
  H2       1.0000 0.41703  0.75610  0.14228  Biso   1.000  H
  H3       1.0000 0.91703  0.74390  0.64228  Biso   1.000  H
  H4       1.0000 0.58297  0.24390  0.85772  Biso   1.000  H
  C9       1.0000 0.01528  0.14000  0.29993  Biso   1.000  C
  C10      1.0000 0.48472  0.64000  0.20007  Biso   1.000  C
  C11      1.0000 0.98472  0.86000  0.70007  Biso   1.000  C
  C12      1.0000 0.51528  0.36000  0.79993  Biso   1.000  C
  C13      1.0000 0.81784  0.13856  0.02556  Biso   1.000  C
  C14      1.0000 0.68216  0.63856  0.47444  Biso   1.000  C
  C15      1.0000 0.18216  0.86144  0.97444  Biso   1.000  C
  C16      1.0000 0.31784  0.36144  0.52556  Biso   1.000  C
  H5       1.0000 0.75953  0.25657  0.90014  Biso   1.000  H
  H6       1.0000 0.74047  0.75657  0.59986  Biso   1.000  H
  H7       1.0000 0.24047  0.74343  0.09986  Biso   1.000  H
  H8       1.0000 0.25953  0.24343  0.40014  Biso   1.000  H
  H9       1.0000 0.08166  0.10811  0.41960  Biso   1.000  H
  H10      1.0000 0.41834  0.60811  0.08040  Biso   1.000  H
  H11      1.0000 0.91834  0.89189  0.58040  Biso   1.000  H
  H12      1.0000 0.58166  0.39189  0.91960  Biso   1.000  H
  C17      1.0000 0.91760  0.09886  0.17910  Biso   1.000  C
  C18      1.0000 0.58240  0.59886  0.32090  Biso   1.000  C
  C19      1.0000 0.08240  0.90114  0.82090  Biso   1.000  C
  C20      1.0000 0.41760  0.40114  0.67910  Biso   1.000  C
  H13      1.0000 0.74986  0.10023  0.95229  Biso   1.000  H
  H14      1.0000 0.75014  0.60023  0.54771  Biso   1.000  H
  H15      1.0000 0.25014  0.89977  0.04771  Biso   1.000  H
  H16      1.0000 0.24986  0.39977  0.45229  Biso   1.000  H
  H17      1.0000 0.91709  0.03485  0.20026  Biso   1.000  H
  H18      1.0000 0.58291  0.53485  0.29974  Biso   1.000  H
  H19      1.0000 0.08291  0.96515  0.79974  Biso   1.000  H
  H20      1.0000 0.41709  0.46515  0.70026  Biso   1.000  H
