data_image0
_cell_length_a       15.7374
_cell_length_b       11.0896
_cell_length_c       10.6253
_cell_angle_alpha    90
_cell_angle_beta     108.243
_cell_angle_gamma    90

_symmetry_space_group_name_H-M    "P 1"
_symmetry_int_tables_number       1

loop_
  _symmetry_equiv_pos_as_xyz
  'x, y, z'

loop_
  _atom_site_label
  _atom_site_occupancy
  _atom_site_fract_x
  _atom_site_fract_y
  _atom_site_fract_z
  _atom_site_thermal_displace_type
  _atom_site_B_iso_or_equiv
  _atom_site_type_symbol
  Cu1      1.0000 0.00000  0.23300  0.50000  Biso   1.000  Cu
  Cu2      1.0000 0.50000  0.73300  0.50000  Biso   1.000  Cu
  Cu3      1.0000 0.00000  0.29423  0.00000  Biso   1.000  Cu
  Cu4      1.0000 0.50000  0.79423  0.00000  Biso   1.000  Cu
  S1       1.0000 0.18854  0.28464  0.84228  Biso   1.000  S
  S2       1.0000 0.81146  0.28464  0.15772  Biso   1.000  S
  S3       1.0000 0.68854  0.78464  0.84228  Biso   1.000  S
  S4       1.0000 0.31146  0.78464  0.15772  Biso   1.000  S
  O1       1.0000 0.12301  0.24090  0.72400  Biso   1.000  O
  O2       1.0000 0.87699  0.24090  0.27600  Biso   1.000  O
  O3       1.0000 0.62301  0.74090  0.72400  Biso   1.000  O
  O4       1.0000 0.37699  0.74090  0.27600  Biso   1.000  O
  O5       1.0000 0.14880  0.32353  0.94220  Biso   1.000  O
  O6       1.0000 0.85120  0.32353  0.05780  Biso   1.000  O
  O7       1.0000 0.64880  0.82353  0.94220  Biso   1.000  O
  O8       1.0000 0.35120  0.82353  0.05780  Biso   1.000  O
  O9       1.0000 0.26209  0.20088  0.89450  Biso   1.000  O
  O10      1.0000 0.73791  0.20088  0.10550  Biso   1.000  O
  O11      1.0000 0.76209  0.70088  0.89450  Biso   1.000  O
  O12      1.0000 0.23791  0.70088  0.10550  Biso   1.000  O
  P1       1.0000 0.36972  0.75070  0.68940  Biso   1.000  P
  P2       1.0000 0.63028  0.75070  0.31060  Biso   1.000  P
  P3       1.0000 0.86972  0.25070  0.68940  Biso   1.000  P
  P4       1.0000 0.13028  0.25070  0.31060  Biso   1.000  P
  O13      1.0000 0.29265  0.84610  0.63950  Biso   1.000  O
  O14      1.0000 0.70735  0.84610  0.36050  Biso   1.000  O
  O15      1.0000 0.79265  0.34610  0.63950  Biso   1.000  O
  O16      1.0000 0.20735  0.34610  0.36050  Biso   1.000  O
  H1       1.0000 0.29520  0.90060  0.69550  Biso   1.000  H
  H2       1.0000 0.70480  0.90060  0.30450  Biso   1.000  H
  H3       1.0000 0.79520  0.40060  0.69550  Biso   1.000  H
  H4       1.0000 0.20480  0.40060  0.30450  Biso   1.000  H
  O17      1.0000 0.43682  0.79656  0.81232  Biso   1.000  O
  O18      1.0000 0.56318  0.79656  0.18768  Biso   1.000  O
  O19      1.0000 0.93682  0.29656  0.81232  Biso   1.000  O
  O20      1.0000 0.06318  0.29656  0.18768  Biso   1.000  O
  O21      1.0000 0.40284  0.72219  0.57576  Biso   1.000  O
  O22      1.0000 0.59716  0.72219  0.42424  Biso   1.000  O
  O23      1.0000 0.90284  0.22219  0.57576  Biso   1.000  O
  O24      1.0000 0.09716  0.22219  0.42424  Biso   1.000  O
  O25      1.0000 0.25495  0.95710  0.83250  Biso   1.000  O
  O26      1.0000 0.74505  0.95710  0.16750  Biso   1.000  O
  O27      1.0000 0.75495  0.45710  0.83250  Biso   1.000  O
  O28      1.0000 0.24505  0.45710  0.16750  Biso   1.000  O
  H5       1.0000 0.28450  0.92050  0.90160  Biso   1.000  H
  H6       1.0000 0.71550  0.92050  0.09840  Biso   1.000  H
  H7       1.0000 0.78450  0.42050  0.90160  Biso   1.000  H
  H8       1.0000 0.21550  0.42050  0.09840  Biso   1.000  H
  H9       1.0000 0.25950  0.03110  0.85020  Biso   1.000  H
  H10      1.0000 0.74050  0.03110  0.14980  Biso   1.000  H
  H11      1.0000 0.75950  0.53110  0.85020  Biso   1.000  H
  H12      1.0000 0.24050  0.53110  0.14980  Biso   1.000  H
  C1       1.0000 0.23760  0.41500  0.79750  Biso   1.000  C
  C2       1.0000 0.76240  0.41500  0.20250  Biso   1.000  C
  C3       1.0000 0.73760  0.91500  0.79750  Biso   1.000  C
  C4       1.0000 0.26240  0.91500  0.20250  Biso   1.000  C
  C5       1.0000 0.29210  0.40350  0.71860  Biso   1.000  C
  C6       1.0000 0.70790  0.40350  0.28140  Biso   1.000  C
  C7       1.0000 0.79210  0.90350  0.71860  Biso   1.000  C
  C8       1.0000 0.20790  0.90350  0.28140  Biso   1.000  C
  H13      1.0000 0.30280  0.32770  0.68930  Biso   1.000  H
  H14      1.0000 0.69720  0.32770  0.31070  Biso   1.000  H
  H15      1.0000 0.80280  0.82770  0.68930  Biso   1.000  H
  H16      1.0000 0.19720  0.82770  0.31070  Biso   1.000  H
  C9       1.0000 0.33080  0.50430  0.68300  Biso   1.000  C
  C10      1.0000 0.66920  0.50430  0.31700  Biso   1.000  C
  C11      1.0000 0.83080  0.00430  0.68300  Biso   1.000  C
  C12      1.0000 0.16920  0.00430  0.31700  Biso   1.000  C
  H17      1.0000 0.36690  0.49620  0.62900  Biso   1.000  H
  H18      1.0000 0.63310  0.49620  0.37100  Biso   1.000  H
  H19      1.0000 0.86690  0.99620  0.62900  Biso   1.000  H
  H20      1.0000 0.13310  0.99620  0.37100  Biso   1.000  H
  C13      1.0000 0.31590  0.61800  0.72770  Biso   1.000  C
  C14      1.0000 0.68410  0.61800  0.27230  Biso   1.000  C
  C15      1.0000 0.81590  0.11800  0.72770  Biso   1.000  C
  C16      1.0000 0.18410  0.11800  0.27230  Biso   1.000  C
  C17      1.0000 0.26070  0.62870  0.80590  Biso   1.000  C
  C18      1.0000 0.73930  0.62870  0.19410  Biso   1.000  C
  C19      1.0000 0.76070  0.12870  0.80590  Biso   1.000  C
  C20      1.0000 0.23930  0.12870  0.19410  Biso   1.000  C
  H21      1.0000 0.25010  0.70430  0.83570  Biso   1.000  H
  H22      1.0000 0.74990  0.70430  0.16430  Biso   1.000  H
  H23      1.0000 0.75010  0.20430  0.83570  Biso   1.000  H
  H24      1.0000 0.24990  0.20430  0.16430  Biso   1.000  H
  C21      1.0000 0.22090  0.52730  0.84030  Biso   1.000  C
  C22      1.0000 0.77910  0.52730  0.15970  Biso   1.000  C
  C23      1.0000 0.72090  0.02730  0.84030  Biso   1.000  C
  C24      1.0000 0.27910  0.02730  0.15970  Biso   1.000  C
  H25      1.0000 0.18320  0.53520  0.89190  Biso   1.000  H
  H26      1.0000 0.81680  0.53520  0.10810  Biso   1.000  H
  H27      1.0000 0.68320  0.03520  0.89190  Biso   1.000  H
  H28      1.0000 0.31680  0.03520  0.10810  Biso   1.000  H
  N1       1.0000 0.00000  0.05190  0.50000  Biso   1.000  N
  N2       1.0000 0.50000  0.55190  0.50000  Biso   1.000  N
  C25      1.0000 0.93210  0.99030  0.41900  Biso   1.000  C
  C26      1.0000 0.06790  0.99030  0.58100  Biso   1.000  C
  C27      1.0000 0.43210  0.49030  0.41900  Biso   1.000  C
  C28      1.0000 0.56790  0.49030  0.58100  Biso   1.000  C
  H29      1.0000 0.88440  0.03290  0.36240  Biso   1.000  H
  H30      1.0000 0.11560  0.03290  0.63760  Biso   1.000  H
  H31      1.0000 0.38440  0.53290  0.36240  Biso   1.000  H
  H32      1.0000 0.61560  0.53290  0.63760  Biso   1.000  H
  C29      1.0000 0.92930  0.86560  0.41560  Biso   1.000  C
  C30      1.0000 0.07070  0.86560  0.58440  Biso   1.000  C
  C31      1.0000 0.42930  0.36560  0.41560  Biso   1.000  C
  C32      1.0000 0.57070  0.36560  0.58440  Biso   1.000  C
  H33      1.0000 0.88070  0.82590  0.35750  Biso   1.000  H
  H34      1.0000 0.11930  0.82590  0.64250  Biso   1.000  H
  H35      1.0000 0.38070  0.32590  0.35750  Biso   1.000  H
  H36      1.0000 0.61930  0.32590  0.64250  Biso   1.000  H
  C33      1.0000 0.00000  0.79990  0.50000  Biso   1.000  C
  C34      1.0000 0.50000  0.29990  0.50000  Biso   1.000  C
  C35      1.0000 0.00000  0.66700  0.50000  Biso   1.000  C
  C36      1.0000 0.50000  0.16700  0.50000  Biso   1.000  C
  C37      1.0000 0.92270  0.60210  0.49060  Biso   1.000  C
  C38      1.0000 0.07730  0.60210  0.50940  Biso   1.000  C
  C39      1.0000 0.42270  0.10210  0.49060  Biso   1.000  C
  C40      1.0000 0.57730  0.10210  0.50940  Biso   1.000  C
  H37      1.0000 0.86950  0.64210  0.48400  Biso   1.000  H
  H38      1.0000 0.13050  0.64210  0.51600  Biso   1.000  H
  H39      1.0000 0.36950  0.14210  0.48400  Biso   1.000  H
  H40      1.0000 0.63050  0.14210  0.51600  Biso   1.000  H
  C41      1.0000 0.92562  0.47720  0.49120  Biso   1.000  C
  C42      1.0000 0.07438  0.47720  0.50880  Biso   1.000  C
  C43      1.0000 0.42562  0.97720  0.49120  Biso   1.000  C
  C44      1.0000 0.57438  0.97720  0.50880  Biso   1.000  C
  H41      1.0000 0.87360  0.43460  0.48520  Biso   1.000  H
  H42      1.0000 0.12640  0.43460  0.51480  Biso   1.000  H
  H43      1.0000 0.37360  0.93460  0.48520  Biso   1.000  H
  H44      1.0000 0.62640  0.93460  0.51480  Biso   1.000  H
  N3       1.0000 0.00000  0.41550  0.50000  Biso   1.000  N
  N4       1.0000 0.50000  0.91550  0.50000  Biso   1.000  N
  N5       1.0000 0.00000  0.11320  0.00000  Biso   1.000  N
  N6       1.0000 0.50000  0.61320  0.00000  Biso   1.000  N
  C45      1.0000 0.04680  0.05080  0.93720  Biso   1.000  C
  C46      1.0000 0.95320  0.05080  0.06280  Biso   1.000  C
  C47      1.0000 0.54680  0.55080  0.93720  Biso   1.000  C
  C48      1.0000 0.45320  0.55080  0.06280  Biso   1.000  C
  H45      1.0000 0.07920  0.09310  0.89200  Biso   1.000  H
  H46      1.0000 0.92080  0.09310  0.10800  Biso   1.000  H
  H47      1.0000 0.57920  0.59310  0.89200  Biso   1.000  H
  H48      1.0000 0.42080  0.59310  0.10800  Biso   1.000  H
  C49      1.0000 0.04940  0.92700  0.93620  Biso   1.000  C
  C50      1.0000 0.95060  0.92700  0.06380  Biso   1.000  C
  C51      1.0000 0.54940  0.42700  0.93620  Biso   1.000  C
  C52      1.0000 0.45060  0.42700  0.06380  Biso   1.000  C
  H49      1.0000 0.08420  0.88720  0.89290  Biso   1.000  H
  H50      1.0000 0.91580  0.88720  0.10710  Biso   1.000  H
  H51      1.0000 0.58420  0.38720  0.89290  Biso   1.000  H
  H52      1.0000 0.41580  0.38720  0.10710  Biso   1.000  H
  C53      1.0000 0.00000  0.86200  0.00000  Biso   1.000  C
  C54      1.0000 0.50000  0.36200  0.00000  Biso   1.000  C
  C55      1.0000 0.00000  0.72800  0.00000  Biso   1.000  C
  C56      1.0000 0.50000  0.22800  0.00000  Biso   1.000  C
  C57      1.0000 0.99950  0.66320  0.11070  Biso   1.000  C
  C58      1.0000 0.00050  0.66320  0.88930  Biso   1.000  C
  C59      1.0000 0.49950  0.16320  0.11070  Biso   1.000  C
  C60      1.0000 0.50050  0.16320  0.88930  Biso   1.000  C
  H53      1.0000 0.99880  0.70340  0.18720  Biso   1.000  H
  H54      1.0000 0.00120  0.70340  0.81280  Biso   1.000  H
  H55      1.0000 0.49880  0.20340  0.18720  Biso   1.000  H
  H56      1.0000 0.50120  0.20340  0.81280  Biso   1.000  H
  C61      1.0000 0.00010  0.53920  0.10790  Biso   1.000  C
  C62      1.0000 0.99990  0.53920  0.89210  Biso   1.000  C
  C63      1.0000 0.50010  0.03920  0.10790  Biso   1.000  C
  C64      1.0000 0.49990  0.03920  0.89210  Biso   1.000  C
  H57      1.0000 0.00060  0.49710  0.18380  Biso   1.000  H
  H58      1.0000 0.99940  0.49710  0.81620  Biso   1.000  H
  H59      1.0000 0.50060  0.99710  0.18380  Biso   1.000  H
  H60      1.0000 0.49940  0.99710  0.81620  Biso   1.000  H
  N7       1.0000 0.00000  0.47680  0.00000  Biso   1.000  N
  N8       1.0000 0.50000  0.97680  0.00000  Biso   1.000  N
