data_image0
_cell_length_a       16.9581
_cell_length_b       11.1033
_cell_length_c       10.231
_cell_angle_alpha    90
_cell_angle_beta     103.866
_cell_angle_gamma    90

_symmetry_space_group_name_H-M    "P 1"
_symmetry_int_tables_number       1

loop_
  _symmetry_equiv_pos_as_xyz
  'x, y, z'

loop_
  _atom_site_label
  _atom_site_occupancy
  _atom_site_fract_x
  _atom_site_fract_y
  _atom_site_fract_z
  _atom_site_thermal_displace_type
  _atom_site_B_iso_or_equiv
  _atom_site_type_symbol
  Cu1      1.0000 0.00000  0.18550  0.50000  Biso   1.000  Cu
  Cu2      1.0000 0.50000  0.68550  0.50000  Biso   1.000  Cu
  Cu3      1.0000 0.00000  0.26850  0.00000  Biso   1.000  Cu
  Cu4      1.0000 0.50000  0.76850  0.00000  Biso   1.000  Cu
  S1       1.0000 0.11950  0.24390  0.79360  Biso   1.000  S
  S2       1.0000 0.88050  0.24390  0.20640  Biso   1.000  S
  S3       1.0000 0.61950  0.74390  0.79360  Biso   1.000  S
  S4       1.0000 0.38050  0.74390  0.20640  Biso   1.000  S
  O1       1.0000 0.09470  0.19290  0.64920  Biso   1.000  O
  O2       1.0000 0.90530  0.19290  0.35080  Biso   1.000  O
  O3       1.0000 0.59470  0.69290  0.64920  Biso   1.000  O
  O4       1.0000 0.40530  0.69290  0.35080  Biso   1.000  O
  O5       1.0000 0.04470  0.29020  0.82320  Biso   1.000  O
  O6       1.0000 0.95530  0.29020  0.17680  Biso   1.000  O
  O7       1.0000 0.54470  0.79020  0.82320  Biso   1.000  O
  O8       1.0000 0.45530  0.79020  0.17680  Biso   1.000  O
  O9       1.0000 0.17640  0.16460  0.88610  Biso   1.000  O
  O10      1.0000 0.82360  0.16460  0.11390  Biso   1.000  O
  O11      1.0000 0.67640  0.66460  0.88610  Biso   1.000  O
  O12      1.0000 0.32360  0.66460  0.11390  Biso   1.000  O
  P1       1.0000 0.31430  0.71510  0.71080  Biso   1.000  P
  P2       1.0000 0.68570  0.71510  0.28920  Biso   1.000  P
  P3       1.0000 0.81430  0.21510  0.71080  Biso   1.000  P
  P4       1.0000 0.18570  0.21510  0.28920  Biso   1.000  P
  O13      1.0000 0.25730  0.81360  0.63410  Biso   1.000  O
  O14      1.0000 0.74270  0.81360  0.36590  Biso   1.000  O
  O15      1.0000 0.75730  0.31360  0.63410  Biso   1.000  O
  O16      1.0000 0.24270  0.31360  0.36590  Biso   1.000  O
  O17      1.0000 0.35500  0.75730  0.85600  Biso   1.000  O
  O18      1.0000 0.64500  0.75730  0.14400  Biso   1.000  O
  O19      1.0000 0.85500  0.25730  0.85600  Biso   1.000  O
  O20      1.0000 0.14500  0.25730  0.14400  Biso   1.000  O
  O21      1.0000 0.38070  0.67170  0.64370  Biso   1.000  O
  O22      1.0000 0.61930  0.67170  0.35630  Biso   1.000  O
  O23      1.0000 0.88070  0.17170  0.64370  Biso   1.000  O
  O24      1.0000 0.11930  0.17170  0.35630  Biso   1.000  O
  C1       1.0000 0.17580  0.37900  0.77140  Biso   1.000  C
  C2       1.0000 0.82420  0.37900  0.22860  Biso   1.000  C
  C3       1.0000 0.67580  0.87900  0.77140  Biso   1.000  C
  C4       1.0000 0.32420  0.87900  0.22860  Biso   1.000  C
  C5       1.0000 0.23990  0.35710  0.71070  Biso   1.000  C
  C6       1.0000 0.76010  0.35710  0.28930  Biso   1.000  C
  C7       1.0000 0.73990  0.85710  0.71070  Biso   1.000  C
  C8       1.0000 0.26010  0.85710  0.28930  Biso   1.000  C
  C9       1.0000 0.28650  0.45980  0.68650  Biso   1.000  C
  C10      1.0000 0.71350  0.45980  0.31350  Biso   1.000  C
  C11      1.0000 0.78650  0.95980  0.68650  Biso   1.000  C
  C12      1.0000 0.21350  0.95980  0.31350  Biso   1.000  C
  C13      1.0000 0.26370  0.58260  0.72880  Biso   1.000  C
  C14      1.0000 0.73630  0.58260  0.27120  Biso   1.000  C
  C15      1.0000 0.76370  0.08260  0.72880  Biso   1.000  C
  C16      1.0000 0.23630  0.08260  0.27120  Biso   1.000  C
  C17      1.0000 0.19840  0.59670  0.78850  Biso   1.000  C
  C18      1.0000 0.80160  0.59670  0.21150  Biso   1.000  C
  C19      1.0000 0.69840  0.09670  0.78850  Biso   1.000  C
  C20      1.0000 0.30160  0.09670  0.21150  Biso   1.000  C
  C21      1.0000 0.15320  0.48850  0.81200  Biso   1.000  C
  C22      1.0000 0.84680  0.48850  0.18800  Biso   1.000  C
  C23      1.0000 0.65320  0.98850  0.81200  Biso   1.000  C
  C24      1.0000 0.34680  0.98850  0.18800  Biso   1.000  C
  N1       1.0000 0.00000  0.97970  0.50000  Biso   1.000  N
  N2       1.0000 0.50000  0.47970  0.50000  Biso   1.000  N
  C25      1.0000 0.93010  0.91520  0.46220  Biso   1.000  C
  C26      1.0000 0.06990  0.91520  0.53780  Biso   1.000  C
  C27      1.0000 0.43010  0.41520  0.46220  Biso   1.000  C
  C28      1.0000 0.56990  0.41520  0.53780  Biso   1.000  C
  C29      1.0000 0.93010  0.79440  0.46220  Biso   1.000  C
  C30      1.0000 0.06990  0.79440  0.53780  Biso   1.000  C
  C31      1.0000 0.43010  0.29440  0.46220  Biso   1.000  C
  C32      1.0000 0.56990  0.29440  0.53780  Biso   1.000  C
  C33      1.0000 0.00000  0.73410  0.50000  Biso   1.000  C
  C34      1.0000 0.50000  0.23410  0.50000  Biso   1.000  C
  C35      1.0000 0.00000  0.61140  0.50000  Biso   1.000  C
  C36      1.0000 0.50000  0.11140  0.50000  Biso   1.000  C
  C37      1.0000 0.93340  0.55280  0.51750  Biso   1.000  C
  C38      1.0000 0.06660  0.55280  0.48250  Biso   1.000  C
  C39      1.0000 0.43340  0.05280  0.51750  Biso   1.000  C
  C40      1.0000 0.56660  0.05280  0.48250  Biso   1.000  C
  C41      1.0000 0.93340  0.42570  0.51750  Biso   1.000  C
  C42      1.0000 0.06660  0.42570  0.48250  Biso   1.000  C
  C43      1.0000 0.43340  0.92570  0.51750  Biso   1.000  C
  C44      1.0000 0.56660  0.92570  0.48250  Biso   1.000  C
  N3       1.0000 0.00000  0.35810  0.50000  Biso   1.000  N
  N4       1.0000 0.50000  0.85810  0.50000  Biso   1.000  N
  N5       1.0000 0.00000  0.08430  0.00000  Biso   1.000  N
  N6       1.0000 0.50000  0.58430  0.00000  Biso   1.000  N
  C45      1.0000 0.98890  0.01840  0.87030  Biso   1.000  C
  C46      1.0000 0.01110  0.01840  0.12970  Biso   1.000  C
  C47      1.0000 0.48890  0.51840  0.87030  Biso   1.000  C
  C48      1.0000 0.51110  0.51840  0.12970  Biso   1.000  C
  C49      1.0000 0.98890  0.89280  0.87030  Biso   1.000  C
  C50      1.0000 0.01110  0.89280  0.12970  Biso   1.000  C
  C51      1.0000 0.48890  0.39280  0.87030  Biso   1.000  C
  C52      1.0000 0.51110  0.39280  0.12970  Biso   1.000  C
  C53      1.0000 0.00000  0.83600  0.00000  Biso   1.000  C
  C54      1.0000 0.50000  0.33600  0.00000  Biso   1.000  C
  C55      1.0000 0.00000  0.68990  0.00000  Biso   1.000  C
  C56      1.0000 0.50000  0.18990  0.00000  Biso   1.000  C
  C57      1.0000 0.06460  0.63300  0.08200  Biso   1.000  C
  C58      1.0000 0.93540  0.63300  0.91800  Biso   1.000  C
  C59      1.0000 0.56460  0.13300  0.08200  Biso   1.000  C
  C60      1.0000 0.43540  0.13300  0.91800  Biso   1.000  C
  C61      1.0000 0.06460  0.50000  0.08200  Biso   1.000  C
  C62      1.0000 0.93540  0.50000  0.91800  Biso   1.000  C
  C63      1.0000 0.56460  0.00000  0.08200  Biso   1.000  C
  C64      1.0000 0.43540  0.00000  0.91800  Biso   1.000  C
  N7       1.0000 0.00000  0.46430  0.00000  Biso   1.000  N
  N8       1.0000 0.50000  0.96430  0.00000  Biso   1.000  N
