data_image0
_cell_length_a       9.571
_cell_length_b       32.529
_cell_length_c       18.007
_cell_angle_alpha    90
_cell_angle_beta     90
_cell_angle_gamma    90

_symmetry_space_group_name_H-M    "P 1"
_symmetry_int_tables_number       1

loop_
  _symmetry_equiv_pos_as_xyz
  'x, y, z'

loop_
  _atom_site_label
  _atom_site_occupancy
  _atom_site_fract_x
  _atom_site_fract_y
  _atom_site_fract_z
  _atom_site_thermal_displace_type
  _atom_site_B_iso_or_equiv
  _atom_site_type_symbol
  Cu1      1.0000 0.50000  0.25000  0.25000  Biso   1.000  Cu
  Cu2      1.0000 0.00000  0.75000  0.25000  Biso   1.000  Cu
  Cu3      1.0000 0.50000  0.75000  0.75000  Biso   1.000  Cu
  Cu4      1.0000 0.00000  0.25000  0.75000  Biso   1.000  Cu
  N1       1.0000 0.50320  0.20631  0.16930  Biso   1.000  N
  N2       1.0000 0.99680  0.79369  0.16930  Biso   1.000  N
  N3       1.0000 0.49680  0.20631  0.33070  Biso   1.000  N
  N4       1.0000 0.00320  0.79369  0.33070  Biso   1.000  N
  N5       1.0000 0.00320  0.70631  0.16930  Biso   1.000  N
  N6       1.0000 0.49680  0.29369  0.16930  Biso   1.000  N
  N7       1.0000 0.99680  0.70631  0.33070  Biso   1.000  N
  N8       1.0000 0.50320  0.29369  0.33070  Biso   1.000  N
  N9       1.0000 0.49680  0.79369  0.83070  Biso   1.000  N
  N10      1.0000 0.00320  0.20631  0.83070  Biso   1.000  N
  N11      1.0000 0.50320  0.79369  0.66930  Biso   1.000  N
  N12      1.0000 0.99680  0.20631  0.66930  Biso   1.000  N
  N13      1.0000 0.99680  0.29369  0.83070  Biso   1.000  N
  N14      1.0000 0.50320  0.70631  0.83070  Biso   1.000  N
  N15      1.0000 0.00320  0.29369  0.66930  Biso   1.000  N
  N16      1.0000 0.49680  0.70631  0.66930  Biso   1.000  N
  N17      1.0000 0.42910  0.08891  0.98600  Biso   1.000  N
  N18      1.0000 0.07090  0.91109  0.98600  Biso   1.000  N
  N19      1.0000 0.57090  0.08891  0.51400  Biso   1.000  N
  N20      1.0000 0.92910  0.91109  0.51400  Biso   1.000  N
  N21      1.0000 0.92910  0.58891  0.98600  Biso   1.000  N
  N22      1.0000 0.57090  0.41109  0.98600  Biso   1.000  N
  N23      1.0000 0.07090  0.58891  0.51400  Biso   1.000  N
  N24      1.0000 0.42910  0.41109  0.51400  Biso   1.000  N
  N25      1.0000 0.57090  0.91109  0.01400  Biso   1.000  N
  N26      1.0000 0.92910  0.08891  0.01400  Biso   1.000  N
  N27      1.0000 0.42910  0.91109  0.48600  Biso   1.000  N
  N28      1.0000 0.07090  0.08891  0.48600  Biso   1.000  N
  N29      1.0000 0.07090  0.41109  0.01400  Biso   1.000  N
  N30      1.0000 0.42910  0.58891  0.01400  Biso   1.000  N
  N31      1.0000 0.92910  0.41109  0.48600  Biso   1.000  N
  N32      1.0000 0.57090  0.58891  0.48600  Biso   1.000  N
  H1       1.0000 0.34130  0.08330  0.98830  Biso   1.000  H
  H2       1.0000 0.15870  0.91670  0.98830  Biso   1.000  H
  H3       1.0000 0.65870  0.08330  0.51170  Biso   1.000  H
  H4       1.0000 0.84130  0.91670  0.51170  Biso   1.000  H
  H5       1.0000 0.84130  0.58330  0.98830  Biso   1.000  H
  H6       1.0000 0.65870  0.41670  0.98830  Biso   1.000  H
  H7       1.0000 0.15870  0.58330  0.51170  Biso   1.000  H
  H8       1.0000 0.34130  0.41670  0.51170  Biso   1.000  H
  H9       1.0000 0.65870  0.91670  0.01170  Biso   1.000  H
  H10      1.0000 0.84130  0.08330  0.01170  Biso   1.000  H
  H11      1.0000 0.34130  0.91670  0.48830  Biso   1.000  H
  H12      1.0000 0.15870  0.08330  0.48830  Biso   1.000  H
  H13      1.0000 0.15870  0.41670  0.01170  Biso   1.000  H
  H14      1.0000 0.34130  0.58330  0.01170  Biso   1.000  H
  H15      1.0000 0.84130  0.41670  0.48830  Biso   1.000  H
  H16      1.0000 0.65870  0.58330  0.48830  Biso   1.000  H
  C1       1.0000 0.40540  0.17725  0.16430  Biso   1.000  C
  C2       1.0000 0.09460  0.82275  0.16430  Biso   1.000  C
  C3       1.0000 0.59460  0.17725  0.33570  Biso   1.000  C
  C4       1.0000 0.90540  0.82275  0.33570  Biso   1.000  C
  C5       1.0000 0.90540  0.67725  0.16430  Biso   1.000  C
  C6       1.0000 0.59460  0.32275  0.16430  Biso   1.000  C
  C7       1.0000 0.09460  0.67725  0.33570  Biso   1.000  C
  C8       1.0000 0.40540  0.32275  0.33570  Biso   1.000  C
  C9       1.0000 0.59460  0.82275  0.83570  Biso   1.000  C
  C10      1.0000 0.90540  0.17725  0.83570  Biso   1.000  C
  C11      1.0000 0.40540  0.82275  0.66430  Biso   1.000  C
  C12      1.0000 0.09460  0.17725  0.66430  Biso   1.000  C
  C13      1.0000 0.09460  0.32275  0.83570  Biso   1.000  C
  C14      1.0000 0.40540  0.67725  0.83570  Biso   1.000  C
  C15      1.0000 0.90540  0.32275  0.66430  Biso   1.000  C
  C16      1.0000 0.59460  0.67725  0.66430  Biso   1.000  C
  H17      1.0000 0.34180  0.17440  0.20300  Biso   1.000  H
  H18      1.0000 0.15820  0.82560  0.20300  Biso   1.000  H
  H19      1.0000 0.65820  0.17440  0.29700  Biso   1.000  H
  H20      1.0000 0.84180  0.82560  0.29700  Biso   1.000  H
  H21      1.0000 0.84180  0.67440  0.20300  Biso   1.000  H
  H22      1.0000 0.65820  0.32560  0.20300  Biso   1.000  H
  H23      1.0000 0.15820  0.67440  0.29700  Biso   1.000  H
  H24      1.0000 0.34180  0.32560  0.29700  Biso   1.000  H
  H25      1.0000 0.65820  0.82560  0.79700  Biso   1.000  H
  H26      1.0000 0.84180  0.17440  0.79700  Biso   1.000  H
  H27      1.0000 0.34180  0.82560  0.70300  Biso   1.000  H
  H28      1.0000 0.15820  0.17440  0.70300  Biso   1.000  H
  H29      1.0000 0.15820  0.32560  0.79700  Biso   1.000  H
  H30      1.0000 0.34180  0.67440  0.79700  Biso   1.000  H
  H31      1.0000 0.84180  0.32560  0.70300  Biso   1.000  H
  H32      1.0000 0.65820  0.67440  0.70300  Biso   1.000  H
  C17      1.0000 0.39470  0.15132  0.10440  Biso   1.000  C
  C18      1.0000 0.10530  0.84868  0.10440  Biso   1.000  C
  C19      1.0000 0.60530  0.15132  0.39560  Biso   1.000  C
  C20      1.0000 0.89470  0.84868  0.39560  Biso   1.000  C
  C21      1.0000 0.89470  0.65132  0.10440  Biso   1.000  C
  C22      1.0000 0.60530  0.34868  0.10440  Biso   1.000  C
  C23      1.0000 0.10530  0.65132  0.39560  Biso   1.000  C
  C24      1.0000 0.39470  0.34868  0.39560  Biso   1.000  C
  C25      1.0000 0.60530  0.84868  0.89560  Biso   1.000  C
  C26      1.0000 0.89470  0.15132  0.89560  Biso   1.000  C
  C27      1.0000 0.39470  0.84868  0.60440  Biso   1.000  C
  C28      1.0000 0.10530  0.15132  0.60440  Biso   1.000  C
  C29      1.0000 0.10530  0.34868  0.89560  Biso   1.000  C
  C30      1.0000 0.39470  0.65132  0.89560  Biso   1.000  C
  C31      1.0000 0.89470  0.34868  0.60440  Biso   1.000  C
  C32      1.0000 0.60530  0.65132  0.60440  Biso   1.000  C
  H33      1.0000 0.32430  0.13160  0.10310  Biso   1.000  H
  H34      1.0000 0.17570  0.86840  0.10310  Biso   1.000  H
  H35      1.0000 0.67570  0.13160  0.39690  Biso   1.000  H
  H36      1.0000 0.82430  0.86840  0.39690  Biso   1.000  H
  H37      1.0000 0.82430  0.63160  0.10310  Biso   1.000  H
  H38      1.0000 0.67570  0.36840  0.10310  Biso   1.000  H
  H39      1.0000 0.17570  0.63160  0.39690  Biso   1.000  H
  H40      1.0000 0.32430  0.36840  0.39690  Biso   1.000  H
  H41      1.0000 0.67570  0.86840  0.89690  Biso   1.000  H
  H42      1.0000 0.82430  0.13160  0.89690  Biso   1.000  H
  H43      1.0000 0.32430  0.86840  0.60310  Biso   1.000  H
  H44      1.0000 0.17570  0.13160  0.60310  Biso   1.000  H
  H45      1.0000 0.17570  0.36840  0.89690  Biso   1.000  H
  H46      1.0000 0.32430  0.63160  0.89690  Biso   1.000  H
  H47      1.0000 0.82430  0.36840  0.60310  Biso   1.000  H
  H48      1.0000 0.67570  0.63160  0.60310  Biso   1.000  H
  C33      1.0000 0.48960  0.15434  0.04510  Biso   1.000  C
  C34      1.0000 0.01040  0.84566  0.04510  Biso   1.000  C
  C35      1.0000 0.51040  0.15434  0.45490  Biso   1.000  C
  C36      1.0000 0.98960  0.84566  0.45490  Biso   1.000  C
  C37      1.0000 0.98960  0.65434  0.04510  Biso   1.000  C
  C38      1.0000 0.51040  0.34566  0.04510  Biso   1.000  C
  C39      1.0000 0.01040  0.65434  0.45490  Biso   1.000  C
  C40      1.0000 0.48960  0.34566  0.45490  Biso   1.000  C
  C41      1.0000 0.51040  0.84566  0.95490  Biso   1.000  C
  C42      1.0000 0.98960  0.15434  0.95490  Biso   1.000  C
  C43      1.0000 0.48960  0.84566  0.54510  Biso   1.000  C
  C44      1.0000 0.01040  0.15434  0.54510  Biso   1.000  C
  C45      1.0000 0.01040  0.34566  0.95490  Biso   1.000  C
  C46      1.0000 0.48960  0.65434  0.95490  Biso   1.000  C
  C47      1.0000 0.98960  0.34566  0.54510  Biso   1.000  C
  C48      1.0000 0.51040  0.65434  0.54510  Biso   1.000  C
  C49      1.0000 0.59440  0.18401  0.05350  Biso   1.000  C
  C50      1.0000 0.90560  0.81599  0.05350  Biso   1.000  C
  C51      1.0000 0.40560  0.18401  0.44650  Biso   1.000  C
  C52      1.0000 0.09440  0.81599  0.44650  Biso   1.000  C
  C53      1.0000 0.09440  0.68401  0.05350  Biso   1.000  C
  C54      1.0000 0.40560  0.31599  0.05350  Biso   1.000  C
  C55      1.0000 0.90560  0.68401  0.44650  Biso   1.000  C
  C56      1.0000 0.59440  0.31599  0.44650  Biso   1.000  C
  C57      1.0000 0.40560  0.81599  0.94650  Biso   1.000  C
  C58      1.0000 0.09440  0.18401  0.94650  Biso   1.000  C
  C59      1.0000 0.59440  0.81599  0.55350  Biso   1.000  C
  C60      1.0000 0.90560  0.18401  0.55350  Biso   1.000  C
  C61      1.0000 0.90560  0.31599  0.94650  Biso   1.000  C
  C62      1.0000 0.59440  0.68401  0.94650  Biso   1.000  C
  C63      1.0000 0.09440  0.31599  0.55350  Biso   1.000  C
  C64      1.0000 0.40560  0.68401  0.55350  Biso   1.000  C
  H49      1.0000 0.66300  0.18670  0.01720  Biso   1.000  H
  H50      1.0000 0.83700  0.81330  0.01720  Biso   1.000  H
  H51      1.0000 0.33700  0.18670  0.48280  Biso   1.000  H
  H52      1.0000 0.16300  0.81330  0.48280  Biso   1.000  H
  H53      1.0000 0.16300  0.68670  0.01720  Biso   1.000  H
  H54      1.0000 0.33700  0.31330  0.01720  Biso   1.000  H
  H55      1.0000 0.83700  0.68670  0.48280  Biso   1.000  H
  H56      1.0000 0.66300  0.31330  0.48280  Biso   1.000  H
  H57      1.0000 0.33700  0.81330  0.98280  Biso   1.000  H
  H58      1.0000 0.16300  0.18670  0.98280  Biso   1.000  H
  H59      1.0000 0.66300  0.81330  0.51720  Biso   1.000  H
  H60      1.0000 0.83700  0.18670  0.51720  Biso   1.000  H
  H61      1.0000 0.83700  0.31330  0.98280  Biso   1.000  H
  H62      1.0000 0.66300  0.68670  0.98280  Biso   1.000  H
  H63      1.0000 0.16300  0.31330  0.51720  Biso   1.000  H
  H64      1.0000 0.33700  0.68670  0.51720  Biso   1.000  H
  C65      1.0000 0.59690  0.20924  0.11460  Biso   1.000  C
  C66      1.0000 0.90310  0.79076  0.11460  Biso   1.000  C
  C67      1.0000 0.40310  0.20924  0.38540  Biso   1.000  C
  C68      1.0000 0.09690  0.79076  0.38540  Biso   1.000  C
  C69      1.0000 0.09690  0.70924  0.11460  Biso   1.000  C
  C70      1.0000 0.40310  0.29076  0.11460  Biso   1.000  C
  C71      1.0000 0.90310  0.70924  0.38540  Biso   1.000  C
  C72      1.0000 0.59690  0.29076  0.38540  Biso   1.000  C
  C73      1.0000 0.40310  0.79076  0.88540  Biso   1.000  C
  C74      1.0000 0.09690  0.20924  0.88540  Biso   1.000  C
  C75      1.0000 0.59690  0.79076  0.61460  Biso   1.000  C
  C76      1.0000 0.90310  0.20924  0.61460  Biso   1.000  C
  C77      1.0000 0.90310  0.29076  0.88540  Biso   1.000  C
  C78      1.0000 0.59690  0.70924  0.88540  Biso   1.000  C
  C79      1.0000 0.09690  0.29076  0.61460  Biso   1.000  C
  C80      1.0000 0.40310  0.70924  0.61460  Biso   1.000  C
  H65      1.0000 0.66650  0.22910  0.11810  Biso   1.000  H
  H66      1.0000 0.83350  0.77090  0.11810  Biso   1.000  H
  H67      1.0000 0.33350  0.22910  0.38190  Biso   1.000  H
  H68      1.0000 0.16650  0.77090  0.38190  Biso   1.000  H
  H69      1.0000 0.16650  0.72910  0.11810  Biso   1.000  H
  H70      1.0000 0.33350  0.27090  0.11810  Biso   1.000  H
  H71      1.0000 0.83350  0.72910  0.38190  Biso   1.000  H
  H72      1.0000 0.66650  0.27090  0.38190  Biso   1.000  H
  H73      1.0000 0.33350  0.77090  0.88190  Biso   1.000  H
  H74      1.0000 0.16650  0.22910  0.88190  Biso   1.000  H
  H75      1.0000 0.66650  0.77090  0.61810  Biso   1.000  H
  H76      1.0000 0.83350  0.22910  0.61810  Biso   1.000  H
  H77      1.0000 0.83350  0.27090  0.88190  Biso   1.000  H
  H78      1.0000 0.66650  0.72910  0.88190  Biso   1.000  H
  H79      1.0000 0.16650  0.27090  0.61810  Biso   1.000  H
  H80      1.0000 0.33350  0.72910  0.61810  Biso   1.000  H
  C81      1.0000 0.47090  0.13130  0.97480  Biso   1.000  C
  C82      1.0000 0.02910  0.86870  0.97480  Biso   1.000  C
  C83      1.0000 0.52910  0.13130  0.52520  Biso   1.000  C
  C84      1.0000 0.97090  0.86870  0.52520  Biso   1.000  C
  C85      1.0000 0.97090  0.63130  0.97480  Biso   1.000  C
  C86      1.0000 0.52910  0.36870  0.97480  Biso   1.000  C
  C87      1.0000 0.02910  0.63130  0.52520  Biso   1.000  C
  C88      1.0000 0.47090  0.36870  0.52520  Biso   1.000  C
  C89      1.0000 0.52910  0.86870  0.02520  Biso   1.000  C
  C90      1.0000 0.97090  0.13130  0.02520  Biso   1.000  C
  C91      1.0000 0.47090  0.86870  0.47480  Biso   1.000  C
  C92      1.0000 0.02910  0.13130  0.47480  Biso   1.000  C
  C93      1.0000 0.02910  0.36870  0.02520  Biso   1.000  C
  C94      1.0000 0.47090  0.63130  0.02520  Biso   1.000  C
  C95      1.0000 0.97090  0.36870  0.47480  Biso   1.000  C
  C96      1.0000 0.52910  0.63130  0.47480  Biso   1.000  C
  H81      1.0000 0.40070  0.14510  0.94490  Biso   1.000  H
  H82      1.0000 0.09930  0.85490  0.94490  Biso   1.000  H
  H83      1.0000 0.59930  0.14510  0.55510  Biso   1.000  H
  H84      1.0000 0.90070  0.85490  0.55510  Biso   1.000  H
  H85      1.0000 0.90070  0.64510  0.94490  Biso   1.000  H
  H86      1.0000 0.59930  0.35490  0.94490  Biso   1.000  H
  H87      1.0000 0.09930  0.64510  0.55510  Biso   1.000  H
  H88      1.0000 0.40070  0.35490  0.55510  Biso   1.000  H
  H89      1.0000 0.59930  0.85490  0.05510  Biso   1.000  H
  H90      1.0000 0.90070  0.14510  0.05510  Biso   1.000  H
  H91      1.0000 0.40070  0.85490  0.44490  Biso   1.000  H
  H92      1.0000 0.09930  0.14510  0.44490  Biso   1.000  H
  H93      1.0000 0.09930  0.35490  0.05510  Biso   1.000  H
  H94      1.0000 0.40070  0.64510  0.05510  Biso   1.000  H
  H95      1.0000 0.90070  0.35490  0.44490  Biso   1.000  H
  H96      1.0000 0.59930  0.64510  0.44490  Biso   1.000  H
  H97      1.0000 0.55810  0.13180  0.94730  Biso   1.000  H
  H98      1.0000 0.94190  0.86820  0.94730  Biso   1.000  H
  H99      1.0000 0.44190  0.13180  0.55270  Biso   1.000  H
  H100     1.0000 0.05810  0.86820  0.55270  Biso   1.000  H
  H101     1.0000 0.05810  0.63180  0.94730  Biso   1.000  H
  H102     1.0000 0.44190  0.36820  0.94730  Biso   1.000  H
  H103     1.0000 0.94190  0.63180  0.55270  Biso   1.000  H
  H104     1.0000 0.55810  0.36820  0.55270  Biso   1.000  H
  H105     1.0000 0.44190  0.86820  0.05270  Biso   1.000  H
  H106     1.0000 0.05810  0.13180  0.05270  Biso   1.000  H
  H107     1.0000 0.55810  0.86820  0.44730  Biso   1.000  H
  H108     1.0000 0.94190  0.13180  0.44730  Biso   1.000  H
  H109     1.0000 0.94190  0.36820  0.05270  Biso   1.000  H
  H110     1.0000 0.55810  0.63180  0.05270  Biso   1.000  H
  H111     1.0000 0.05810  0.36820  0.44730  Biso   1.000  H
  H112     1.0000 0.44190  0.63180  0.44730  Biso   1.000  H
  O1       1.0000 0.64970  0.06491  0.99420  Biso   1.000  O
  O2       1.0000 0.85030  0.93509  0.99420  Biso   1.000  O
  O3       1.0000 0.35030  0.06491  0.50580  Biso   1.000  O
  O4       1.0000 0.14970  0.93509  0.50580  Biso   1.000  O
  O5       1.0000 0.14970  0.56491  0.99420  Biso   1.000  O
  O6       1.0000 0.35030  0.43509  0.99420  Biso   1.000  O
  O7       1.0000 0.85030  0.56491  0.50580  Biso   1.000  O
  O8       1.0000 0.64970  0.43509  0.50580  Biso   1.000  O
  O9       1.0000 0.35030  0.93509  0.00580  Biso   1.000  O
  O10      1.0000 0.14970  0.06491  0.00580  Biso   1.000  O
  O11      1.0000 0.64970  0.93509  0.49420  Biso   1.000  O
  O12      1.0000 0.85030  0.06491  0.49420  Biso   1.000  O
  O13      1.0000 0.85030  0.43509  0.00580  Biso   1.000  O
  O14      1.0000 0.64970  0.56491  0.00580  Biso   1.000  O
  O15      1.0000 0.14970  0.43509  0.49420  Biso   1.000  O
  O16      1.0000 0.35030  0.56491  0.49420  Biso   1.000  O
  C97      1.0000 0.52030  0.05833  0.99280  Biso   1.000  C
  C98      1.0000 0.97970  0.94167  0.99280  Biso   1.000  C
  C99      1.0000 0.47970  0.05833  0.50720  Biso   1.000  C
  C100     1.0000 0.02030  0.94167  0.50720  Biso   1.000  C
  C101     1.0000 0.02030  0.55833  0.99280  Biso   1.000  C
  C102     1.0000 0.47970  0.44167  0.99280  Biso   1.000  C
  C103     1.0000 0.97970  0.55833  0.50720  Biso   1.000  C
  C104     1.0000 0.52030  0.44167  0.50720  Biso   1.000  C
  C105     1.0000 0.47970  0.94167  0.00720  Biso   1.000  C
  C106     1.0000 0.02030  0.05833  0.00720  Biso   1.000  C
  C107     1.0000 0.52030  0.94167  0.49280  Biso   1.000  C
  C108     1.0000 0.97970  0.05833  0.49280  Biso   1.000  C
  C109     1.0000 0.97970  0.44167  0.00720  Biso   1.000  C
  C110     1.0000 0.52030  0.55833  0.00720  Biso   1.000  C
  C111     1.0000 0.02030  0.44167  0.49280  Biso   1.000  C
  C112     1.0000 0.47970  0.55833  0.49280  Biso   1.000  C
  C113     1.0000 0.46020  0.01683  0.99840  Biso   1.000  C
  C114     1.0000 0.03980  0.98317  0.99840  Biso   1.000  C
  C115     1.0000 0.53980  0.01683  0.50160  Biso   1.000  C
  C116     1.0000 0.96020  0.98317  0.50160  Biso   1.000  C
  C117     1.0000 0.96020  0.51683  0.99840  Biso   1.000  C
  C118     1.0000 0.53980  0.48317  0.99840  Biso   1.000  C
  C119     1.0000 0.03980  0.51683  0.50160  Biso   1.000  C
  C120     1.0000 0.46020  0.48317  0.50160  Biso   1.000  C
  C121     1.0000 0.53980  0.98317  0.00160  Biso   1.000  C
  C122     1.0000 0.96020  0.01683  0.00160  Biso   1.000  C
  C123     1.0000 0.46020  0.98317  0.49840  Biso   1.000  C
  C124     1.0000 0.03980  0.01683  0.49840  Biso   1.000  C
  C125     1.0000 0.03980  0.48317  0.00160  Biso   1.000  C
  C126     1.0000 0.46020  0.51683  0.00160  Biso   1.000  C
  C127     1.0000 0.96020  0.48317  0.49840  Biso   1.000  C
  C128     1.0000 0.53980  0.51683  0.49840  Biso   1.000  C
  H113     1.0000 0.36350  0.01390  0.99990  Biso   1.000  H
  H114     1.0000 0.13650  0.98610  0.99990  Biso   1.000  H
  H115     1.0000 0.63650  0.01390  0.50010  Biso   1.000  H
  H116     1.0000 0.86350  0.98610  0.50010  Biso   1.000  H
  H117     1.0000 0.86350  0.51390  0.99990  Biso   1.000  H
  H118     1.0000 0.63650  0.48610  0.99990  Biso   1.000  H
  H119     1.0000 0.13650  0.51390  0.50010  Biso   1.000  H
  H120     1.0000 0.36350  0.48610  0.50010  Biso   1.000  H
  H121     1.0000 0.63650  0.98610  0.00010  Biso   1.000  H
  H122     1.0000 0.86350  0.01390  0.00010  Biso   1.000  H
  H123     1.0000 0.36350  0.98610  0.49990  Biso   1.000  H
  H124     1.0000 0.13650  0.01390  0.49990  Biso   1.000  H
  H125     1.0000 0.13650  0.48610  0.00010  Biso   1.000  H
  H126     1.0000 0.36350  0.51390  0.00010  Biso   1.000  H
  H127     1.0000 0.86350  0.48610  0.49990  Biso   1.000  H
  H128     1.0000 0.63650  0.51390  0.49990  Biso   1.000  H
  O17      1.0000 0.75560  0.25000  0.25000  Biso   1.000  O
  O18      1.0000 0.74440  0.75000  0.25000  Biso   1.000  O
  O19      1.0000 0.24440  0.25000  0.25000  Biso   1.000  O
  O20      1.0000 0.25560  0.75000  0.25000  Biso   1.000  O
  O21      1.0000 0.24440  0.75000  0.75000  Biso   1.000  O
  O22      1.0000 0.25560  0.25000  0.75000  Biso   1.000  O
  O23      1.0000 0.75560  0.75000  0.75000  Biso   1.000  O
  O24      1.0000 0.74440  0.25000  0.75000  Biso   1.000  O
  Cl1      1.0000 0.50000  0.25000  0.90526  Biso   1.000  Cl
  Cl2      1.0000 0.00000  0.75000  0.90526  Biso   1.000  Cl
  Cl3      1.0000 0.50000  0.25000  0.59474  Biso   1.000  Cl
  Cl4      1.0000 0.00000  0.75000  0.59474  Biso   1.000  Cl
  Cl5      1.0000 0.50000  0.75000  0.09474  Biso   1.000  Cl
  Cl6      1.0000 0.00000  0.25000  0.09474  Biso   1.000  Cl
  Cl7      1.0000 0.50000  0.75000  0.40526  Biso   1.000  Cl
  Cl8      1.0000 0.00000  0.25000  0.40526  Biso   1.000  Cl
  O25      1.0000 0.43850  0.28164  0.85930  Biso   1.000  O
  O26      1.0000 0.06150  0.71836  0.85930  Biso   1.000  O
  O27      1.0000 0.56150  0.28164  0.64070  Biso   1.000  O
  O28      1.0000 0.93850  0.71836  0.64070  Biso   1.000  O
  O29      1.0000 0.93850  0.78164  0.85930  Biso   1.000  O
  O30      1.0000 0.56150  0.21836  0.85930  Biso   1.000  O
  O31      1.0000 0.06150  0.78164  0.64070  Biso   1.000  O
  O32      1.0000 0.43850  0.21836  0.64070  Biso   1.000  O
  O33      1.0000 0.56150  0.71836  0.14070  Biso   1.000  O
  O34      1.0000 0.93850  0.28164  0.14070  Biso   1.000  O
  O35      1.0000 0.43850  0.71836  0.35930  Biso   1.000  O
  O36      1.0000 0.06150  0.28164  0.35930  Biso   1.000  O
  O37      1.0000 0.06150  0.21836  0.14070  Biso   1.000  O
  O38      1.0000 0.43850  0.78164  0.14070  Biso   1.000  O
  O39      1.0000 0.93850  0.21836  0.35930  Biso   1.000  O
  O40      1.0000 0.56150  0.78164  0.35930  Biso   1.000  O
  O41      1.0000 0.39290  0.23204  0.95010  Biso   1.000  O
  O42      1.0000 0.10710  0.76796  0.95010  Biso   1.000  O
  O43      1.0000 0.60710  0.23204  0.54990  Biso   1.000  O
  O44      1.0000 0.89290  0.76796  0.54990  Biso   1.000  O
  O45      1.0000 0.89290  0.73204  0.95010  Biso   1.000  O
  O46      1.0000 0.60710  0.26796  0.95010  Biso   1.000  O
  O47      1.0000 0.10710  0.73204  0.54990  Biso   1.000  O
  O48      1.0000 0.39290  0.26796  0.54990  Biso   1.000  O
  O49      1.0000 0.60710  0.76796  0.04990  Biso   1.000  O
  O50      1.0000 0.89290  0.23204  0.04990  Biso   1.000  O
  O51      1.0000 0.39290  0.76796  0.45010  Biso   1.000  O
  O52      1.0000 0.10710  0.23204  0.45010  Biso   1.000  O
  O53      1.0000 0.10710  0.26796  0.04990  Biso   1.000  O
  O54      1.0000 0.39290  0.73204  0.04990  Biso   1.000  O
  O55      1.0000 0.89290  0.26796  0.45010  Biso   1.000  O
  O56      1.0000 0.60710  0.73204  0.45010  Biso   1.000  O
  O57      1.0000 0.50000  0.25000  0.75000  Biso   1.000  O
  O58      1.0000 0.00000  0.75000  0.75000  Biso   1.000  O
  O59      1.0000 0.50000  0.75000  0.25000  Biso   1.000  O
  O60      1.0000 0.00000  0.25000  0.25000  Biso   1.000  O
  C129     1.0000 0.14400  0.10530  0.27710  Biso   1.000  C
  C130     1.0000 0.35600  0.89470  0.27710  Biso   1.000  C
  C131     1.0000 0.85600  0.10530  0.22290  Biso   1.000  C
  C132     1.0000 0.64400  0.89470  0.22290  Biso   1.000  C
  C133     1.0000 0.64400  0.60530  0.27710  Biso   1.000  C
  C134     1.0000 0.85600  0.39470  0.27710  Biso   1.000  C
  C135     1.0000 0.35600  0.60530  0.22290  Biso   1.000  C
  C136     1.0000 0.14400  0.39470  0.22290  Biso   1.000  C
  C137     1.0000 0.85600  0.89470  0.72290  Biso   1.000  C
  C138     1.0000 0.64400  0.10530  0.72290  Biso   1.000  C
  C139     1.0000 0.14400  0.89470  0.77710  Biso   1.000  C
  C140     1.0000 0.35600  0.10530  0.77710  Biso   1.000  C
  C141     1.0000 0.35600  0.39470  0.72290  Biso   1.000  C
  C142     1.0000 0.14400  0.60530  0.72290  Biso   1.000  C
  C143     1.0000 0.64400  0.39470  0.77710  Biso   1.000  C
  C144     1.0000 0.85600  0.60530  0.77710  Biso   1.000  C
  C145     1.0000 0.06200  0.06370  0.26610  Biso   1.000  C
  C146     1.0000 0.43800  0.93630  0.26610  Biso   1.000  C
  C147     1.0000 0.93800  0.06370  0.23390  Biso   1.000  C
  C148     1.0000 0.56200  0.93630  0.23390  Biso   1.000  C
  C149     1.0000 0.56200  0.56370  0.26610  Biso   1.000  C
  C150     1.0000 0.93800  0.43630  0.26610  Biso   1.000  C
  C151     1.0000 0.43800  0.56370  0.23390  Biso   1.000  C
  C152     1.0000 0.06200  0.43630  0.23390  Biso   1.000  C
  C153     1.0000 0.93800  0.93630  0.73390  Biso   1.000  C
  C154     1.0000 0.56200  0.06370  0.73390  Biso   1.000  C
  C155     1.0000 0.06200  0.93630  0.76610  Biso   1.000  C
  C156     1.0000 0.43800  0.06370  0.76610  Biso   1.000  C
  C157     1.0000 0.43800  0.43630  0.73390  Biso   1.000  C
  C158     1.0000 0.06200  0.56370  0.73390  Biso   1.000  C
  C159     1.0000 0.56200  0.43630  0.76610  Biso   1.000  C
  C160     1.0000 0.93800  0.56370  0.76610  Biso   1.000  C
  H129     1.0000 0.10070  0.03910  0.28230  Biso   1.000  H
  H130     1.0000 0.39930  0.96090  0.28230  Biso   1.000  H
  H131     1.0000 0.89930  0.03910  0.21770  Biso   1.000  H
  H132     1.0000 0.60070  0.96090  0.21770  Biso   1.000  H
  H133     1.0000 0.60070  0.53910  0.28230  Biso   1.000  H
  H134     1.0000 0.89930  0.46090  0.28230  Biso   1.000  H
  H135     1.0000 0.39930  0.53910  0.21770  Biso   1.000  H
  H136     1.0000 0.10070  0.46090  0.21770  Biso   1.000  H
  H137     1.0000 0.89930  0.96090  0.71770  Biso   1.000  H
  H138     1.0000 0.60070  0.03910  0.71770  Biso   1.000  H
  H139     1.0000 0.10070  0.96090  0.78230  Biso   1.000  H
  H140     1.0000 0.39930  0.03910  0.78230  Biso   1.000  H
  H141     1.0000 0.39930  0.46090  0.71770  Biso   1.000  H
  H142     1.0000 0.10070  0.53910  0.71770  Biso   1.000  H
  H143     1.0000 0.60070  0.46090  0.78230  Biso   1.000  H
  H144     1.0000 0.89930  0.53910  0.78230  Biso   1.000  H
  C161     1.0000 0.07280  0.13340  0.26550  Biso   1.000  C
  C162     1.0000 0.42720  0.86660  0.26550  Biso   1.000  C
  C163     1.0000 0.92720  0.13340  0.23450  Biso   1.000  C
  C164     1.0000 0.57280  0.86660  0.23450  Biso   1.000  C
  C165     1.0000 0.57280  0.63340  0.26550  Biso   1.000  C
  C166     1.0000 0.92720  0.36660  0.26550  Biso   1.000  C
  C167     1.0000 0.42720  0.63340  0.23450  Biso   1.000  C
  C168     1.0000 0.07280  0.36660  0.23450  Biso   1.000  C
  C169     1.0000 0.92720  0.86660  0.73450  Biso   1.000  C
  C170     1.0000 0.57280  0.13340  0.73450  Biso   1.000  C
  C171     1.0000 0.07280  0.86660  0.76550  Biso   1.000  C
  C172     1.0000 0.42720  0.13340  0.76550  Biso   1.000  C
  C173     1.0000 0.42720  0.36660  0.73450  Biso   1.000  C
  C174     1.0000 0.07280  0.63340  0.73450  Biso   1.000  C
  C175     1.0000 0.57280  0.36660  0.76550  Biso   1.000  C
  C176     1.0000 0.92720  0.63340  0.76550  Biso   1.000  C
  H145     1.0000 0.11050  0.15910  0.27680  Biso   1.000  H
  H146     1.0000 0.38950  0.84090  0.27680  Biso   1.000  H
  H147     1.0000 0.88950  0.15910  0.22320  Biso   1.000  H
  H148     1.0000 0.61050  0.84090  0.22320  Biso   1.000  H
  H149     1.0000 0.61050  0.65910  0.27680  Biso   1.000  H
  H150     1.0000 0.88950  0.34090  0.27680  Biso   1.000  H
  H151     1.0000 0.38950  0.65910  0.22320  Biso   1.000  H
  H152     1.0000 0.11050  0.34090  0.22320  Biso   1.000  H
  H153     1.0000 0.88950  0.84090  0.72320  Biso   1.000  H
  H154     1.0000 0.61050  0.15910  0.72320  Biso   1.000  H
  H155     1.0000 0.11050  0.84090  0.77680  Biso   1.000  H
  H156     1.0000 0.38950  0.15910  0.77680  Biso   1.000  H
  H157     1.0000 0.38950  0.34090  0.72320  Biso   1.000  H
  H158     1.0000 0.11050  0.65910  0.72320  Biso   1.000  H
  H159     1.0000 0.61050  0.34090  0.77680  Biso   1.000  H
  H160     1.0000 0.88950  0.65910  0.77680  Biso   1.000  H
  C177     1.0000 0.27020  0.10420  0.30600  Biso   1.000  C
  C178     1.0000 0.22980  0.89580  0.30600  Biso   1.000  C
  C179     1.0000 0.72980  0.10420  0.19400  Biso   1.000  C
  C180     1.0000 0.77020  0.89580  0.19400  Biso   1.000  C
  C181     1.0000 0.77020  0.60420  0.30600  Biso   1.000  C
  C182     1.0000 0.72980  0.39580  0.30600  Biso   1.000  C
  C183     1.0000 0.22980  0.60420  0.19400  Biso   1.000  C
  C184     1.0000 0.27020  0.39580  0.19400  Biso   1.000  C
  C185     1.0000 0.72980  0.89580  0.69400  Biso   1.000  C
  C186     1.0000 0.77020  0.10420  0.69400  Biso   1.000  C
  C187     1.0000 0.27020  0.89580  0.80600  Biso   1.000  C
  C188     1.0000 0.22980  0.10420  0.80600  Biso   1.000  C
  C189     1.0000 0.22980  0.39580  0.69400  Biso   1.000  C
  C190     1.0000 0.27020  0.60420  0.69400  Biso   1.000  C
  C191     1.0000 0.77020  0.39580  0.80600  Biso   1.000  C
  C192     1.0000 0.72980  0.60420  0.80600  Biso   1.000  C
  H161     1.0000 0.30180  0.07620  0.30860  Biso   1.000  H
  H162     1.0000 0.19820  0.92380  0.30860  Biso   1.000  H
  H163     1.0000 0.69820  0.07620  0.19140  Biso   1.000  H
  H164     1.0000 0.80180  0.92380  0.19140  Biso   1.000  H
  H165     1.0000 0.80180  0.57620  0.30860  Biso   1.000  H
  H166     1.0000 0.69820  0.42380  0.30860  Biso   1.000  H
  H167     1.0000 0.19820  0.57620  0.19140  Biso   1.000  H
  H168     1.0000 0.30180  0.42380  0.19140  Biso   1.000  H
  H169     1.0000 0.69820  0.92380  0.69140  Biso   1.000  H
  H170     1.0000 0.80180  0.07620  0.69140  Biso   1.000  H
  H171     1.0000 0.30180  0.92380  0.80860  Biso   1.000  H
  H172     1.0000 0.19820  0.07620  0.80860  Biso   1.000  H
  H173     1.0000 0.19820  0.42380  0.69140  Biso   1.000  H
  H174     1.0000 0.30180  0.57620  0.69140  Biso   1.000  H
  H175     1.0000 0.80180  0.42380  0.80860  Biso   1.000  H
  H176     1.0000 0.69820  0.57620  0.80860  Biso   1.000  H
  H177     1.0000 0.33290  0.11990  0.27550  Biso   1.000  H
  H178     1.0000 0.16710  0.88010  0.27550  Biso   1.000  H
  H179     1.0000 0.66710  0.11990  0.22450  Biso   1.000  H
  H180     1.0000 0.83290  0.88010  0.22450  Biso   1.000  H
  H181     1.0000 0.83290  0.61990  0.27550  Biso   1.000  H
  H182     1.0000 0.66710  0.38010  0.27550  Biso   1.000  H
  H183     1.0000 0.16710  0.61990  0.22450  Biso   1.000  H
  H184     1.0000 0.33290  0.38010  0.22450  Biso   1.000  H
  H185     1.0000 0.66710  0.88010  0.72450  Biso   1.000  H
  H186     1.0000 0.83290  0.11990  0.72450  Biso   1.000  H
  H187     1.0000 0.33290  0.88010  0.77550  Biso   1.000  H
  H188     1.0000 0.16710  0.11990  0.77550  Biso   1.000  H
  H189     1.0000 0.16710  0.38010  0.72450  Biso   1.000  H
  H190     1.0000 0.33290  0.61990  0.72450  Biso   1.000  H
  H191     1.0000 0.83290  0.38010  0.77550  Biso   1.000  H
  H192     1.0000 0.66710  0.61990  0.77550  Biso   1.000  H
  H193     1.0000 0.26810  0.11570  0.35510  Biso   1.000  H
  H194     1.0000 0.23190  0.88430  0.35510  Biso   1.000  H
  H195     1.0000 0.73190  0.11570  0.14490  Biso   1.000  H
  H196     1.0000 0.76810  0.88430  0.14490  Biso   1.000  H
  H197     1.0000 0.76810  0.61570  0.35510  Biso   1.000  H
  H198     1.0000 0.73190  0.38430  0.35510  Biso   1.000  H
  H199     1.0000 0.23190  0.61570  0.14490  Biso   1.000  H
  H200     1.0000 0.26810  0.38430  0.14490  Biso   1.000  H
  H201     1.0000 0.73190  0.88430  0.64490  Biso   1.000  H
  H202     1.0000 0.76810  0.11570  0.64490  Biso   1.000  H
  H203     1.0000 0.26810  0.88430  0.85510  Biso   1.000  H
  H204     1.0000 0.23190  0.11570  0.85510  Biso   1.000  H
  H205     1.0000 0.23190  0.38430  0.64490  Biso   1.000  H
  H206     1.0000 0.26810  0.61570  0.64490  Biso   1.000  H
  H207     1.0000 0.76810  0.38430  0.85510  Biso   1.000  H
  H208     1.0000 0.73190  0.61570  0.85510  Biso   1.000  H
