data_image0
_cell_length_a       19.105
_cell_length_b       9.5729
_cell_length_c       16.083
_cell_angle_alpha    90
_cell_angle_beta     90
_cell_angle_gamma    90

_symmetry_space_group_name_H-M    "P 1"
_symmetry_int_tables_number       1

loop_
  _symmetry_equiv_pos_as_xyz
  'x, y, z'

loop_
  _atom_site_label
  _atom_site_occupancy
  _atom_site_fract_x
  _atom_site_fract_y
  _atom_site_fract_z
  _atom_site_thermal_displace_type
  _atom_site_B_iso_or_equiv
  _atom_site_type_symbol
  Cu1      1.0000 0.75000  0.25000  0.50000  Biso   1.000  Cu
  Cu2      1.0000 0.25000  0.75000  0.50000  Biso   1.000  Cu
  N1       1.0000 0.67336  0.24320  0.58824  Biso   1.000  N
  N2       1.0000 0.82664  0.25680  0.58824  Biso   1.000  N
  N3       1.0000 0.82664  0.24320  0.41176  Biso   1.000  N
  N4       1.0000 0.67336  0.25680  0.41176  Biso   1.000  N
  N5       1.0000 0.32664  0.75680  0.41176  Biso   1.000  N
  N6       1.0000 0.17336  0.74320  0.41176  Biso   1.000  N
  N7       1.0000 0.17336  0.75680  0.58824  Biso   1.000  N
  N8       1.0000 0.32664  0.74320  0.58824  Biso   1.000  N
  O1       1.0000 0.50715  0.10280  0.86849  Biso   1.000  O
  O2       1.0000 0.99285  0.39720  0.86849  Biso   1.000  O
  O3       1.0000 0.99285  0.10280  0.13151  Biso   1.000  O
  O4       1.0000 0.50715  0.39720  0.13151  Biso   1.000  O
  O5       1.0000 0.49285  0.89720  0.13151  Biso   1.000  O
  O6       1.0000 0.00715  0.60280  0.13151  Biso   1.000  O
  O7       1.0000 0.00715  0.89720  0.86849  Biso   1.000  O
  O8       1.0000 0.49285  0.60280  0.86849  Biso   1.000  O
  N9       1.0000 0.49289  0.32060  0.81970  Biso   1.000  N
  N10      1.0000 0.00711  0.17940  0.81970  Biso   1.000  N
  N11      1.0000 0.00711  0.32060  0.18030  Biso   1.000  N
  N12      1.0000 0.49289  0.17940  0.18030  Biso   1.000  N
  N13      1.0000 0.50711  0.67940  0.18030  Biso   1.000  N
  N14      1.0000 0.99289  0.82060  0.18030  Biso   1.000  N
  N15      1.0000 0.99289  0.67940  0.81970  Biso   1.000  N
  N16      1.0000 0.50711  0.82060  0.81970  Biso   1.000  N
  H1       1.0000 0.49180  0.40810  0.83150  Biso   1.000  H
  H2       1.0000 0.00820  0.09190  0.83150  Biso   1.000  H
  H3       1.0000 0.00820  0.40810  0.16850  Biso   1.000  H
  H4       1.0000 0.49180  0.09190  0.16850  Biso   1.000  H
  H5       1.0000 0.50820  0.59190  0.16850  Biso   1.000  H
  H6       1.0000 0.99180  0.90810  0.16850  Biso   1.000  H
  H7       1.0000 0.99180  0.59190  0.83150  Biso   1.000  H
  H8       1.0000 0.50820  0.90810  0.83150  Biso   1.000  H
  C1       1.0000 0.66765  0.34090  0.64730  Biso   1.000  C
  C2       1.0000 0.83235  0.15910  0.64730  Biso   1.000  C
  C3       1.0000 0.83235  0.34090  0.35270  Biso   1.000  C
  C4       1.0000 0.66765  0.15910  0.35270  Biso   1.000  C
  C5       1.0000 0.33235  0.65910  0.35270  Biso   1.000  C
  C6       1.0000 0.16765  0.84090  0.35270  Biso   1.000  C
  C7       1.0000 0.16765  0.65910  0.64730  Biso   1.000  C
  C8       1.0000 0.33235  0.84090  0.64730  Biso   1.000  C
  H9       1.0000 0.70450  0.40320  0.65470  Biso   1.000  H
  H10      1.0000 0.79550  0.09680  0.65470  Biso   1.000  H
  H11      1.0000 0.79550  0.40320  0.34530  Biso   1.000  H
  H12      1.0000 0.70450  0.09680  0.34530  Biso   1.000  H
  H13      1.0000 0.29550  0.59680  0.34530  Biso   1.000  H
  H14      1.0000 0.20450  0.90320  0.34530  Biso   1.000  H
  H15      1.0000 0.20450  0.59680  0.65470  Biso   1.000  H
  H16      1.0000 0.29550  0.90320  0.65470  Biso   1.000  H
  C9       1.0000 0.60927  0.35330  0.69780  Biso   1.000  C
  C10      1.0000 0.89073  0.14670  0.69780  Biso   1.000  C
  C11      1.0000 0.89073  0.35330  0.30220  Biso   1.000  C
  C12      1.0000 0.60927  0.14670  0.30220  Biso   1.000  C
  C13      1.0000 0.39073  0.64670  0.30220  Biso   1.000  C
  C14      1.0000 0.10927  0.85330  0.30220  Biso   1.000  C
  C15      1.0000 0.10927  0.64670  0.69780  Biso   1.000  C
  C16      1.0000 0.39073  0.85330  0.69780  Biso   1.000  C
  H17      1.0000 0.60730  0.42260  0.73830  Biso   1.000  H
  H18      1.0000 0.89270  0.07740  0.73830  Biso   1.000  H
  H19      1.0000 0.89270  0.42260  0.26170  Biso   1.000  H
  H20      1.0000 0.60730  0.07740  0.26170  Biso   1.000  H
  H21      1.0000 0.39270  0.57740  0.26170  Biso   1.000  H
  H22      1.0000 0.10730  0.92260  0.26170  Biso   1.000  H
  H23      1.0000 0.10730  0.57740  0.73830  Biso   1.000  H
  H24      1.0000 0.39270  0.92260  0.73830  Biso   1.000  H
  C17      1.0000 0.55350  0.26110  0.68740  Biso   1.000  C
  C18      1.0000 0.94650  0.23890  0.68740  Biso   1.000  C
  C19      1.0000 0.94650  0.26110  0.31260  Biso   1.000  C
  C20      1.0000 0.55350  0.23890  0.31260  Biso   1.000  C
  C21      1.0000 0.44650  0.73890  0.31260  Biso   1.000  C
  C22      1.0000 0.05350  0.76110  0.31260  Biso   1.000  C
  C23      1.0000 0.05350  0.73890  0.68740  Biso   1.000  C
  C24      1.0000 0.44650  0.76110  0.68740  Biso   1.000  C
  C25      1.0000 0.56087  0.15660  0.62777  Biso   1.000  C
  C26      1.0000 0.93913  0.34340  0.62777  Biso   1.000  C
  C27      1.0000 0.93913  0.15660  0.37223  Biso   1.000  C
  C28      1.0000 0.56087  0.34340  0.37223  Biso   1.000  C
  C29      1.0000 0.43913  0.84340  0.37223  Biso   1.000  C
  C30      1.0000 0.06087  0.65660  0.37223  Biso   1.000  C
  C31      1.0000 0.06087  0.84340  0.62777  Biso   1.000  C
  C32      1.0000 0.43913  0.65660  0.62777  Biso   1.000  C
  H25      1.0000 0.52570  0.09070  0.62040  Biso   1.000  H
  H26      1.0000 0.97430  0.40930  0.62040  Biso   1.000  H
  H27      1.0000 0.97430  0.09070  0.37960  Biso   1.000  H
  H28      1.0000 0.52570  0.40930  0.37960  Biso   1.000  H
  H29      1.0000 0.47430  0.90930  0.37960  Biso   1.000  H
  H30      1.0000 0.02570  0.59070  0.37960  Biso   1.000  H
  H31      1.0000 0.02570  0.90930  0.62040  Biso   1.000  H
  H32      1.0000 0.47430  0.59070  0.62040  Biso   1.000  H
  C33      1.0000 0.62040  0.15160  0.57996  Biso   1.000  C
  C34      1.0000 0.87960  0.34840  0.57996  Biso   1.000  C
  C35      1.0000 0.87960  0.15160  0.42004  Biso   1.000  C
  C36      1.0000 0.62040  0.34840  0.42004  Biso   1.000  C
  C37      1.0000 0.37960  0.84840  0.42004  Biso   1.000  C
  C38      1.0000 0.12040  0.65160  0.42004  Biso   1.000  C
  C39      1.0000 0.12040  0.84840  0.57996  Biso   1.000  C
  C40      1.0000 0.37960  0.65160  0.57996  Biso   1.000  C
  H33      1.0000 0.62430  0.08170  0.54010  Biso   1.000  H
  H34      1.0000 0.87570  0.41830  0.54010  Biso   1.000  H
  H35      1.0000 0.87570  0.08170  0.45990  Biso   1.000  H
  H36      1.0000 0.62430  0.41830  0.45990  Biso   1.000  H
  H37      1.0000 0.37570  0.91830  0.45990  Biso   1.000  H
  H38      1.0000 0.12430  0.58170  0.45990  Biso   1.000  H
  H39      1.0000 0.12430  0.91830  0.54010  Biso   1.000  H
  H40      1.0000 0.37570  0.58170  0.54010  Biso   1.000  H
  C41      1.0000 0.48544  0.27720  0.73430  Biso   1.000  C
  C42      1.0000 0.01456  0.22280  0.73430  Biso   1.000  C
  C43      1.0000 0.01456  0.27720  0.26570  Biso   1.000  C
  C44      1.0000 0.48544  0.22280  0.26570  Biso   1.000  C
  C45      1.0000 0.51456  0.72280  0.26570  Biso   1.000  C
  C46      1.0000 0.98544  0.77720  0.26570  Biso   1.000  C
  C47      1.0000 0.98544  0.72280  0.73430  Biso   1.000  C
  C48      1.0000 0.51456  0.77720  0.73430  Biso   1.000  C
  H41      1.0000 0.45660  0.34520  0.70550  Biso   1.000  H
  H42      1.0000 0.04340  0.15480  0.70550  Biso   1.000  H
  H43      1.0000 0.04340  0.34520  0.29450  Biso   1.000  H
  H44      1.0000 0.45660  0.15480  0.29450  Biso   1.000  H
  H45      1.0000 0.54340  0.65480  0.29450  Biso   1.000  H
  H46      1.0000 0.95660  0.84520  0.29450  Biso   1.000  H
  H47      1.0000 0.95660  0.65480  0.70550  Biso   1.000  H
  H48      1.0000 0.54340  0.84520  0.70550  Biso   1.000  H
  H49      1.0000 0.46080  0.18870  0.73310  Biso   1.000  H
  H50      1.0000 0.03920  0.31130  0.73310  Biso   1.000  H
  H51      1.0000 0.03920  0.18870  0.26690  Biso   1.000  H
  H52      1.0000 0.46080  0.31130  0.26690  Biso   1.000  H
  H53      1.0000 0.53920  0.81130  0.26690  Biso   1.000  H
  H54      1.0000 0.96080  0.68870  0.26690  Biso   1.000  H
  H55      1.0000 0.96080  0.81130  0.73310  Biso   1.000  H
  H56      1.0000 0.53920  0.68870  0.73310  Biso   1.000  H
  C49      1.0000 0.50150  0.22710  0.88120  Biso   1.000  C
  C50      1.0000 0.99850  0.27290  0.88120  Biso   1.000  C
  C51      1.0000 0.99850  0.22710  0.11880  Biso   1.000  C
  C52      1.0000 0.50150  0.27290  0.11880  Biso   1.000  C
  C53      1.0000 0.49850  0.77290  0.11880  Biso   1.000  C
  C54      1.0000 0.00150  0.72710  0.11880  Biso   1.000  C
  C55      1.0000 0.00150  0.77290  0.88120  Biso   1.000  C
  C56      1.0000 0.49850  0.72710  0.88120  Biso   1.000  C
  C57      1.0000 0.50370  0.28820  0.96710  Biso   1.000  C
  C58      1.0000 0.99630  0.21180  0.96710  Biso   1.000  C
  C59      1.0000 0.99630  0.28820  0.03290  Biso   1.000  C
  C60      1.0000 0.50370  0.21180  0.03290  Biso   1.000  C
  C61      1.0000 0.49630  0.71180  0.03290  Biso   1.000  C
  C62      1.0000 0.00370  0.78820  0.03290  Biso   1.000  C
  C63      1.0000 0.00370  0.71180  0.96710  Biso   1.000  C
  C64      1.0000 0.49630  0.78820  0.96710  Biso   1.000  C
  H57      1.0000 0.50520  0.38480  0.97290  Biso   1.000  H
  H58      1.0000 0.99480  0.11520  0.97290  Biso   1.000  H
  H59      1.0000 0.99480  0.38480  0.02710  Biso   1.000  H
  H60      1.0000 0.50520  0.11520  0.02710  Biso   1.000  H
  H61      1.0000 0.49480  0.61520  0.02710  Biso   1.000  H
  H62      1.0000 0.00520  0.88480  0.02710  Biso   1.000  H
  H63      1.0000 0.00520  0.61520  0.97290  Biso   1.000  H
  H64      1.0000 0.49480  0.88480  0.97290  Biso   1.000  H
  O9       1.0000 0.75000  0.99070  0.50000  Biso   1.000  O
  O10      1.0000 0.75000  0.50930  0.50000  Biso   1.000  O
  O11      1.0000 0.25000  0.00930  0.50000  Biso   1.000  O
  O12      1.0000 0.25000  0.49070  0.50000  Biso   1.000  O
  Cl1      1.0000 0.40423  0.25000  0.50000  Biso   1.000  Cl
  Cl2      1.0000 0.09577  0.25000  0.50000  Biso   1.000  Cl
  Cl3      1.0000 0.59577  0.75000  0.50000  Biso   1.000  Cl
  Cl4      1.0000 0.90423  0.75000  0.50000  Biso   1.000  Cl
  O13      1.0000 0.44624  0.15110  0.45732  Biso   1.000  O
  O14      1.0000 0.05376  0.34890  0.45732  Biso   1.000  O
  O15      1.0000 0.05376  0.15110  0.54268  Biso   1.000  O
  O16      1.0000 0.44624  0.34890  0.54268  Biso   1.000  O
  O17      1.0000 0.55376  0.84890  0.54268  Biso   1.000  O
  O18      1.0000 0.94624  0.65110  0.54268  Biso   1.000  O
  O19      1.0000 0.94624  0.84890  0.45732  Biso   1.000  O
  O20      1.0000 0.55376  0.65110  0.45732  Biso   1.000  O
  O21      1.0000 0.36086  0.18040  0.55970  Biso   1.000  O
  O22      1.0000 0.13914  0.31960  0.55970  Biso   1.000  O
  O23      1.0000 0.13914  0.18040  0.44030  Biso   1.000  O
  O24      1.0000 0.36086  0.31960  0.44030  Biso   1.000  O
  O25      1.0000 0.63914  0.81960  0.44030  Biso   1.000  O
  O26      1.0000 0.86086  0.68040  0.44030  Biso   1.000  O
  O27      1.0000 0.86086  0.81960  0.55970  Biso   1.000  O
  O28      1.0000 0.63914  0.68040  0.55970  Biso   1.000  O
  C65      1.0000 0.28830  0.02260  0.86430  Biso   1.000  C
  C66      1.0000 0.21170  0.47740  0.86430  Biso   1.000  C
  C67      1.0000 0.21170  0.02260  0.13570  Biso   1.000  C
  C68      1.0000 0.28830  0.47740  0.13570  Biso   1.000  C
  C69      1.0000 0.71170  0.97740  0.13570  Biso   1.000  C
  C70      1.0000 0.78830  0.52260  0.13570  Biso   1.000  C
  C71      1.0000 0.78830  0.97740  0.86430  Biso   1.000  C
  C72      1.0000 0.71170  0.52260  0.86430  Biso   1.000  C
  C73      1.0000 0.30680  0.14800  0.82670  Biso   1.000  C
  C74      1.0000 0.19320  0.35200  0.82670  Biso   1.000  C
  C75      1.0000 0.19320  0.14800  0.17330  Biso   1.000  C
  C76      1.0000 0.30680  0.35200  0.17330  Biso   1.000  C
  C77      1.0000 0.69320  0.85200  0.17330  Biso   1.000  C
  C78      1.0000 0.80680  0.64800  0.17330  Biso   1.000  C
  C79      1.0000 0.80680  0.85200  0.82670  Biso   1.000  C
  C80      1.0000 0.69320  0.64800  0.82670  Biso   1.000  C
  C81      1.0000 0.26400  0.20350  0.76110  Biso   1.000  C
  C82      1.0000 0.23600  0.29650  0.76110  Biso   1.000  C
  C83      1.0000 0.23600  0.20350  0.23890  Biso   1.000  C
  C84      1.0000 0.26400  0.29650  0.23890  Biso   1.000  C
  C85      1.0000 0.73600  0.79650  0.23890  Biso   1.000  C
  C86      1.0000 0.76400  0.70350  0.23890  Biso   1.000  C
  C87      1.0000 0.76400  0.79650  0.76110  Biso   1.000  C
  C88      1.0000 0.73600  0.70350  0.76110  Biso   1.000  C
  C89      1.0000 0.20880  0.14540  0.73270  Biso   1.000  C
  C90      1.0000 0.29120  0.35460  0.73270  Biso   1.000  C
  C91      1.0000 0.29120  0.14540  0.26730  Biso   1.000  C
  C92      1.0000 0.20880  0.35460  0.26730  Biso   1.000  C
  C93      1.0000 0.79120  0.85460  0.26730  Biso   1.000  C
  C94      1.0000 0.70880  0.64540  0.26730  Biso   1.000  C
  C95      1.0000 0.70880  0.85460  0.73270  Biso   1.000  C
  C96      1.0000 0.79120  0.64540  0.73270  Biso   1.000  C
  C97      1.0000 0.18460  0.01350  0.77580  Biso   1.000  C
  C98      1.0000 0.31540  0.48650  0.77580  Biso   1.000  C
  C99      1.0000 0.31540  0.01350  0.22420  Biso   1.000  C
  C100     1.0000 0.18460  0.48650  0.22420  Biso   1.000  C
  C101     1.0000 0.81540  0.98650  0.22420  Biso   1.000  C
  C102     1.0000 0.68460  0.51350  0.22420  Biso   1.000  C
  C103     1.0000 0.68460  0.98650  0.77580  Biso   1.000  C
  C104     1.0000 0.81540  0.51350  0.77580  Biso   1.000  C
  C105     1.0000 0.22730  0.95320  0.84020  Biso   1.000  C
  C106     1.0000 0.27270  0.54680  0.84020  Biso   1.000  C
  C107     1.0000 0.27270  0.95320  0.15980  Biso   1.000  C
  C108     1.0000 0.22730  0.54680  0.15980  Biso   1.000  C
  C109     1.0000 0.77270  0.04680  0.15980  Biso   1.000  C
  C110     1.0000 0.72730  0.45320  0.15980  Biso   1.000  C
  C111     1.0000 0.72730  0.04680  0.84020  Biso   1.000  C
  C112     1.0000 0.77270  0.45320  0.84020  Biso   1.000  C
  C113     1.0000 0.32920  0.95450  0.92670  Biso   1.000  C
  C114     1.0000 0.17080  0.54550  0.92670  Biso   1.000  C
  C115     1.0000 0.17080  0.95450  0.07330  Biso   1.000  C
  C116     1.0000 0.32920  0.54550  0.07330  Biso   1.000  C
  C117     1.0000 0.67080  0.04550  0.07330  Biso   1.000  C
  C118     1.0000 0.82920  0.45450  0.07330  Biso   1.000  C
  C119     1.0000 0.82920  0.04550  0.92670  Biso   1.000  C
  C120     1.0000 0.67080  0.45450  0.92670  Biso   1.000  C
