data_image0
_cell_length_a       8.258
_cell_length_b       10.5015
_cell_length_c       11.1724
_cell_angle_alpha    89.74
_cell_angle_beta     75.477
_cell_angle_gamma    83.629

_symmetry_space_group_name_H-M    "P 1"
_symmetry_int_tables_number       1

loop_
  _symmetry_equiv_pos_as_xyz
  'x, y, z'

loop_
  _atom_site_label
  _atom_site_occupancy
  _atom_site_fract_x
  _atom_site_fract_y
  _atom_site_fract_z
  _atom_site_thermal_displace_type
  _atom_site_B_iso_or_equiv
  _atom_site_type_symbol
  Cu1      1.0000 0.28860  0.89181  0.57381  Biso   1.000  Cu
  Cu2      1.0000 0.71140  0.10819  0.42619  Biso   1.000  Cu
  N1       1.0000 0.29740  0.89340  0.75790  Biso   1.000  N
  N2       1.0000 0.70260  0.10660  0.24210  Biso   1.000  N
  N3       1.0000 0.29060  0.89260  0.39690  Biso   1.000  N
  N4       1.0000 0.70940  0.10740  0.60310  Biso   1.000  N
  O1       1.0000 0.20640  0.07430  0.59110  Biso   1.000  O
  O2       1.0000 0.79360  0.92570  0.40890  Biso   1.000  O
  O3       1.0000 0.27700  0.70270  0.56730  Biso   1.000  O
  O4       1.0000 0.72300  0.29730  0.43270  Biso   1.000  O
  C1       1.0000 0.29900  0.89320  0.14060  Biso   1.000  C
  C2       1.0000 0.70100  0.10680  0.85940  Biso   1.000  C
  C3       1.0000 0.19700  0.98490  0.34400  Biso   1.000  C
  C4       1.0000 0.80300  0.01510  0.65600  Biso   1.000  C
  H1       1.0000 0.12850  0.04880  0.39630  Biso   1.000  H
  H2       1.0000 0.87150  0.95120  0.60370  Biso   1.000  H
  C5       1.0000 0.39300  0.80020  0.19060  Biso   1.000  C
  C6       1.0000 0.60700  0.19980  0.80940  Biso   1.000  C
  H3       1.0000 0.46440  0.73770  0.13850  Biso   1.000  H
  H4       1.0000 0.53560  0.26230  0.86150  Biso   1.000  H
  C7       1.0000 0.19700  0.98920  0.22500  Biso   1.000  C
  C8       1.0000 0.80300  0.01080  0.77500  Biso   1.000  C
  H5       1.0000 0.13030  0.05420  0.19690  Biso   1.000  H
  H6       1.0000 0.86970  0.94580  0.80310  Biso   1.000  H
  C9       1.0000 0.23700  0.00100  0.83200  Biso   1.000  C
  C10      1.0000 0.76300  0.99900  0.16800  Biso   1.000  C
  H7       1.0000 0.19820  0.07670  0.79900  Biso   1.000  H
  H8       1.0000 0.80180  0.92330  0.20100  Biso   1.000  H
  C11      1.0000 0.38400  0.79750  0.31230  Biso   1.000  C
  C12      1.0000 0.61600  0.20250  0.68770  Biso   1.000  C
  H9       1.0000 0.44200  0.72880  0.34180  Biso   1.000  H
  H10      1.0000 0.55800  0.27120  0.65820  Biso   1.000  H
  C13      1.0000 0.29100  0.16440  0.54280  Biso   1.000  C
  C14      1.0000 0.70900  0.83560  0.45720  Biso   1.000  C
  S1       1.0000 0.30070  0.42990  0.54200  Biso   1.000  S
  S2       1.0000 0.69930  0.57010  0.45800  Biso   1.000  S
  O5       1.0000 0.42970  0.15480  0.47230  Biso   1.000  O
  O6       1.0000 0.57030  0.84520  0.52770  Biso   1.000  O
  C15      1.0000 0.29800  0.89440  0.00300  Biso   1.000  C
  C16      1.0000 0.70200  0.10560  0.99700  Biso   1.000  C
  C17      1.0000 0.12800  0.52800  0.61200  Biso   1.000  C
  C18      1.0000 0.87200  0.47200  0.38800  Biso   1.000  C
  C19      1.0000 0.19400  0.29780  0.58240  Biso   1.000  C
  C20      1.0000 0.80600  0.70220  0.41760  Biso   1.000  C
  C21      1.0000 0.99400  0.46600  0.67100  Biso   1.000  C
  C22      1.0000 0.00600  0.53400  0.32900  Biso   1.000  C
  C23      1.0000 0.03900  0.32830  0.65600  Biso   1.000  C
  C24      1.0000 0.96100  0.67170  0.34400  Biso   1.000  C
  C25      1.0000 0.23300  0.99600  0.95200  Biso   1.000  C
  C26      1.0000 0.76700  0.00400  0.04800  Biso   1.000  C
  H11      1.0000 0.18260  0.06640  0.00270  Biso   1.000  H
  H12      1.0000 0.81740  0.93360  0.99730  Biso   1.000  H
  C27      1.0000 0.34400  0.79800  0.80800  Biso   1.000  C
  C28      1.0000 0.65600  0.20200  0.19200  Biso   1.000  C
  H13      1.0000 0.35160  0.71880  0.76920  Biso   1.000  H
  H14      1.0000 0.64840  0.28120  0.23080  Biso   1.000  H
  C29      1.0000 0.38600  0.80500  0.92000  Biso   1.000  C
  C30      1.0000 0.61400  0.19500  0.08000  Biso   1.000  C
  H15      1.0000 0.47240  0.74870  0.93710  Biso   1.000  H
  H16      1.0000 0.52760  0.25130  0.06290  Biso   1.000  H
  C31      1.0000 0.13800  0.66980  0.62070  Biso   1.000  C
  C32      1.0000 0.86200  0.33020  0.37930  Biso   1.000  C
  O7       1.0000 0.00900  0.74250  0.67420  Biso   1.000  O
  O8       1.0000 0.99100  0.25750  0.32580  Biso   1.000  O
