data_image0
_cell_length_a       5.3113
_cell_length_b       18.042
_cell_length_c       22.823
_cell_angle_alpha    90
_cell_angle_beta     90
_cell_angle_gamma    90

_symmetry_space_group_name_H-M    "P 1"
_symmetry_int_tables_number       1

loop_
  _symmetry_equiv_pos_as_xyz
  'x, y, z'

loop_
  _atom_site_label
  _atom_site_occupancy
  _atom_site_fract_x
  _atom_site_fract_y
  _atom_site_fract_z
  _atom_site_thermal_displace_type
  _atom_site_B_iso_or_equiv
  _atom_site_type_symbol
  C1       1.0000 0.29460  0.75547  0.88079  Biso   1.000  C
  C2       1.0000 0.20540  0.24453  0.38079  Biso   1.000  C
  C3       1.0000 0.70540  0.25547  0.61921  Biso   1.000  C
  C4       1.0000 0.79460  0.74453  0.11921  Biso   1.000  C
  C5       1.0000 0.24820  0.82980  0.90802  Biso   1.000  C
  C6       1.0000 0.25180  0.17020  0.40802  Biso   1.000  C
  C7       1.0000 0.75180  0.32980  0.59198  Biso   1.000  C
  C8       1.0000 0.74820  0.67020  0.09198  Biso   1.000  C
  H1       1.0000 0.08770  0.84800  0.89370  Biso   1.000  H
  H2       1.0000 0.41230  0.15200  0.39370  Biso   1.000  H
  H3       1.0000 0.91230  0.34800  0.60630  Biso   1.000  H
  H4       1.0000 0.58770  0.65200  0.10630  Biso   1.000  H
  H5       1.0000 0.37700  0.86350  0.89400  Biso   1.000  H
  H6       1.0000 0.12300  0.13650  0.39400  Biso   1.000  H
  H7       1.0000 0.62300  0.36350  0.60600  Biso   1.000  H
  H8       1.0000 0.87700  0.63650  0.10600  Biso   1.000  H
  C9       1.0000 0.24470  0.83383  0.97440  Biso   1.000  C
  C10      1.0000 0.25530  0.16617  0.47440  Biso   1.000  C
  C11      1.0000 0.75530  0.33383  0.52560  Biso   1.000  C
  C12      1.0000 0.74470  0.66617  0.02560  Biso   1.000  C
  H9       1.0000 0.37940  0.80360  0.99030  Biso   1.000  H
  H10      1.0000 0.12060  0.19640  0.49030  Biso   1.000  H
  H11      1.0000 0.62060  0.30360  0.50970  Biso   1.000  H
  H12      1.0000 0.87940  0.69640  0.00970  Biso   1.000  H
  H13      1.0000 0.08600  0.81470  0.98900  Biso   1.000  H
  H14      1.0000 0.41400  0.18530  0.48900  Biso   1.000  H
  H15      1.0000 0.91400  0.31470  0.51100  Biso   1.000  H
  H16      1.0000 0.58600  0.68530  0.01100  Biso   1.000  H
  C13      1.0000 0.27820  0.91436  0.99413  Biso   1.000  C
  C14      1.0000 0.22180  0.08564  0.49413  Biso   1.000  C
  C15      1.0000 0.72180  0.41436  0.50587  Biso   1.000  C
  C16      1.0000 0.77820  0.58564  0.00587  Biso   1.000  C
  H17      1.0000 0.16380  0.94500  0.97080  Biso   1.000  H
  H18      1.0000 0.33620  0.05500  0.47080  Biso   1.000  H
  H19      1.0000 0.83620  0.44500  0.52920  Biso   1.000  H
  H20      1.0000 0.66380  0.55500  0.02920  Biso   1.000  H
  C17      1.0000 0.20430  0.92367  0.05899  Biso   1.000  C
  C18      1.0000 0.29570  0.07633  0.55899  Biso   1.000  C
  C19      1.0000 0.79570  0.42367  0.44101  Biso   1.000  C
  C20      1.0000 0.70430  0.57633  0.94101  Biso   1.000  C
  C21      1.0000 0.48840  0.08832  0.00169  Biso   1.000  C
  C22      1.0000 0.01160  0.91168  0.50169  Biso   1.000  C
  C23      1.0000 0.51160  0.58832  0.49831  Biso   1.000  C
  C24      1.0000 0.98840  0.41168  0.99831  Biso   1.000  C
  C25      1.0000 0.27950  0.13110  0.99090  Biso   1.000  C
  C26      1.0000 0.22050  0.86890  0.49090  Biso   1.000  C
  C27      1.0000 0.72050  0.63110  0.50910  Biso   1.000  C
  C28      1.0000 0.77950  0.36890  0.00910  Biso   1.000  C
  H21      1.0000 0.18160  0.12270  0.95780  Biso   1.000  H
  H22      1.0000 0.31840  0.87730  0.45780  Biso   1.000  H
  H23      1.0000 0.81840  0.62270  0.54220  Biso   1.000  H
  H24      1.0000 0.68160  0.37730  0.04220  Biso   1.000  H
  C29      1.0000 0.21640  0.18670  0.02971  Biso   1.000  C
  C30      1.0000 0.28360  0.81330  0.52971  Biso   1.000  C
  C31      1.0000 0.78360  0.68670  0.47029  Biso   1.000  C
  C32      1.0000 0.71640  0.31330  0.97029  Biso   1.000  C
  H25      1.0000 0.07810  0.21660  0.02170  Biso   1.000  H
  H26      1.0000 0.42190  0.78340  0.52170  Biso   1.000  H
  H27      1.0000 0.92190  0.71660  0.47830  Biso   1.000  H
  H28      1.0000 0.57810  0.28340  0.97830  Biso   1.000  H
  C33      1.0000 0.35220  0.19890  0.07981  Biso   1.000  C
  C34      1.0000 0.14780  0.80110  0.57981  Biso   1.000  C
  C35      1.0000 0.64780  0.69890  0.42019  Biso   1.000  C
  C36      1.0000 0.85220  0.30110  0.92019  Biso   1.000  C
  C37      1.0000 0.28260  0.26190  0.12070  Biso   1.000  C
  C38      1.0000 0.21740  0.73810  0.62070  Biso   1.000  C
  C39      1.0000 0.71740  0.76190  0.37930  Biso   1.000  C
  C40      1.0000 0.78260  0.23810  0.87930  Biso   1.000  C
  H29      1.0000 0.37080  0.30600  0.10920  Biso   1.000  H
  H30      1.0000 0.12920  0.69400  0.60920  Biso   1.000  H
  H31      1.0000 0.62920  0.80600  0.39080  Biso   1.000  H
  H32      1.0000 0.87080  0.19400  0.89080  Biso   1.000  H
  H33      1.0000 0.32860  0.24910  0.16010  Biso   1.000  H
  H34      1.0000 0.17140  0.75090  0.66010  Biso   1.000  H
  H35      1.0000 0.67140  0.74910  0.33990  Biso   1.000  H
  H36      1.0000 0.82860  0.25090  0.83990  Biso   1.000  H
  H37      1.0000 0.10450  0.27060  0.11880  Biso   1.000  H
  H38      1.0000 0.39550  0.72940  0.61880  Biso   1.000  H
  H39      1.0000 0.89550  0.77060  0.38120  Biso   1.000  H
  H40      1.0000 0.60450  0.22940  0.88120  Biso   1.000  H
  H41      1.0000 0.66280  0.92740  0.00300  Biso   1.000  H
  H42      1.0000 0.83720  0.07260  0.50300  Biso   1.000  H
  H43      1.0000 0.33720  0.42740  0.49700  Biso   1.000  H
  H44      1.0000 0.16280  0.57260  0.99700  Biso   1.000  H
  C41      1.0000 0.55780  0.15510  0.09032  Biso   1.000  C
  C42      1.0000 0.94220  0.84490  0.59032  Biso   1.000  C
  C43      1.0000 0.44220  0.65510  0.40968  Biso   1.000  C
  C44      1.0000 0.05780  0.34490  0.90968  Biso   1.000  C
  H45      1.0000 0.65240  0.16280  0.12410  Biso   1.000  H
  H46      1.0000 0.84760  0.83720  0.62410  Biso   1.000  H
  H47      1.0000 0.34760  0.66280  0.37590  Biso   1.000  H
  H48      1.0000 0.15240  0.33720  0.87590  Biso   1.000  H
  C45      1.0000 0.62790  0.09940  0.05183  Biso   1.000  C
  C46      1.0000 0.87210  0.90060  0.55183  Biso   1.000  C
  C47      1.0000 0.37210  0.59940  0.44817  Biso   1.000  C
  C48      1.0000 0.12790  0.40060  0.94817  Biso   1.000  C
  H49      1.0000 0.76740  0.06990  0.05970  Biso   1.000  H
  H50      1.0000 0.73260  0.93010  0.55970  Biso   1.000  H
  H51      1.0000 0.23260  0.56990  0.44030  Biso   1.000  H
  H52      1.0000 0.26740  0.43010  0.94030  Biso   1.000  H
  C49      1.0000 0.04240  0.03310  0.17287  Biso   1.000  C
  C50      1.0000 0.45760  0.96690  0.67287  Biso   1.000  C
  C51      1.0000 0.95760  0.53310  0.32713  Biso   1.000  C
  C52      1.0000 0.54240  0.46690  0.82713  Biso   1.000  C
  H53      1.0000 0.12680  0.03010  0.13720  Biso   1.000  H
  H54      1.0000 0.37320  0.96990  0.63720  Biso   1.000  H
  H55      1.0000 0.87320  0.53010  0.36280  Biso   1.000  H
  H56      1.0000 0.62680  0.46990  0.86280  Biso   1.000  H
  C53      1.0000 0.09850  0.09010  0.21011  Biso   1.000  C
  C54      1.0000 0.40150  0.90990  0.71011  Biso   1.000  C
  C55      1.0000 0.90150  0.59010  0.28989  Biso   1.000  C
  C56      1.0000 0.59850  0.40990  0.78989  Biso   1.000  C
  H57      1.0000 0.22020  0.12480  0.19990  Biso   1.000  H
  H58      1.0000 0.27980  0.87520  0.69990  Biso   1.000  H
  H59      1.0000 0.77980  0.62480  0.30010  Biso   1.000  H
  H60      1.0000 0.72020  0.37520  0.80010  Biso   1.000  H
  C57      1.0000 0.97420  0.09590  0.26268  Biso   1.000  C
  C58      1.0000 0.52580  0.90410  0.76268  Biso   1.000  C
  C59      1.0000 0.02580  0.59590  0.23732  Biso   1.000  C
  C60      1.0000 0.47420  0.40410  0.73732  Biso   1.000  C
  H61      1.0000 0.00880  0.13450  0.28840  Biso   1.000  H
  H62      1.0000 0.49120  0.86550  0.78840  Biso   1.000  H
  H63      1.0000 0.99120  0.63450  0.21160  Biso   1.000  H
  H64      1.0000 0.50880  0.36550  0.71160  Biso   1.000  H
  C61      1.0000 0.79920  0.04360  0.27596  Biso   1.000  C
  C62      1.0000 0.70080  0.95640  0.77596  Biso   1.000  C
  C63      1.0000 0.20080  0.54360  0.22404  Biso   1.000  C
  C64      1.0000 0.29920  0.45640  0.72404  Biso   1.000  C
  H65      1.0000 0.71180  0.04630  0.31120  Biso   1.000  H
  H66      1.0000 0.78820  0.95370  0.81120  Biso   1.000  H
  H67      1.0000 0.28820  0.54630  0.18880  Biso   1.000  H
  H68      1.0000 0.21180  0.45370  0.68880  Biso   1.000  H
  C65      1.0000 0.75070  0.98655  0.23730  Biso   1.000  C
  C66      1.0000 0.74930  0.01345  0.73730  Biso   1.000  C
  C67      1.0000 0.24930  0.48655  0.26270  Biso   1.000  C
  C68      1.0000 0.25070  0.51345  0.76270  Biso   1.000  C
  C69      1.0000 0.56270  0.92759  0.24830  Biso   1.000  C
  C70      1.0000 0.93730  0.07241  0.74830  Biso   1.000  C
  C71      1.0000 0.43730  0.42759  0.25170  Biso   1.000  C
  C72      1.0000 0.06270  0.57241  0.75170  Biso   1.000  C
  C73      1.0000 0.40430  0.92670  0.29595  Biso   1.000  C
  C74      1.0000 0.09570  0.07330  0.79595  Biso   1.000  C
  C75      1.0000 0.59570  0.42670  0.20405  Biso   1.000  C
  C76      1.0000 0.90430  0.57330  0.70405  Biso   1.000  C
  H69      1.0000 0.41530  0.96290  0.32480  Biso   1.000  H
  H70      1.0000 0.08470  0.03710  0.82480  Biso   1.000  H
  H71      1.0000 0.58470  0.46290  0.17520  Biso   1.000  H
  H72      1.0000 0.91530  0.53710  0.67520  Biso   1.000  H
  C77      1.0000 0.23020  0.87110  0.29981  Biso   1.000  C
  C78      1.0000 0.26980  0.12890  0.79981  Biso   1.000  C
  C79      1.0000 0.76980  0.37110  0.20019  Biso   1.000  C
  C80      1.0000 0.73020  0.62890  0.70019  Biso   1.000  C
  H73      1.0000 0.12210  0.86890  0.33180  Biso   1.000  H
  H74      1.0000 0.37790  0.13110  0.83180  Biso   1.000  H
  H75      1.0000 0.87790  0.36890  0.16820  Biso   1.000  H
  H76      1.0000 0.62210  0.63110  0.66820  Biso   1.000  H
  C81      1.0000 0.21510  0.81910  0.25701  Biso   1.000  C
  C82      1.0000 0.28490  0.18090  0.75701  Biso   1.000  C
  C83      1.0000 0.78490  0.31910  0.24299  Biso   1.000  C
  C84      1.0000 0.71510  0.68090  0.74299  Biso   1.000  C
  H77      1.0000 0.09630  0.78130  0.25910  Biso   1.000  H
  H78      1.0000 0.40370  0.21870  0.75910  Biso   1.000  H
  H79      1.0000 0.90370  0.28130  0.24090  Biso   1.000  H
  H80      1.0000 0.59630  0.71870  0.74090  Biso   1.000  H
  C85      1.0000 0.38010  0.82340  0.21017  Biso   1.000  C
  C86      1.0000 0.11990  0.17660  0.71017  Biso   1.000  C
  C87      1.0000 0.61990  0.32340  0.28983  Biso   1.000  C
  C88      1.0000 0.88010  0.67660  0.78983  Biso   1.000  C
  H81      1.0000 0.37020  0.78780  0.18080  Biso   1.000  H
  H82      1.0000 0.12980  0.21220  0.68080  Biso   1.000  H
  H83      1.0000 0.62980  0.28780  0.31920  Biso   1.000  H
  H84      1.0000 0.87020  0.71220  0.81920  Biso   1.000  H
  Cu1      1.0000 0.77154  0.89304  0.13574  Biso   1.000  Cu
  Cu2      1.0000 0.72846  0.10696  0.63574  Biso   1.000  Cu
  Cu3      1.0000 0.22846  0.39304  0.36426  Biso   1.000  Cu
  Cu4      1.0000 0.27154  0.60696  0.86426  Biso   1.000  Cu
  N1       1.0000 0.53440  0.93906  0.98208  Biso   1.000  N
  N2       1.0000 0.96560  0.06094  0.48208  Biso   1.000  N
  N3       1.0000 0.46560  0.43906  0.51792  Biso   1.000  N
  N4       1.0000 0.03440  0.56094  0.01792  Biso   1.000  N
  N5       1.0000 0.87130  0.98148  0.18579  Biso   1.000  N
  N6       1.0000 0.62870  0.01852  0.68579  Biso   1.000  N
  N7       1.0000 0.12870  0.48148  0.31421  Biso   1.000  N
  N8       1.0000 0.37130  0.51852  0.81421  Biso   1.000  N
  N9       1.0000 0.54910  0.87560  0.20569  Biso   1.000  N
  N10      1.0000 0.95090  0.12440  0.70569  Biso   1.000  N
  N11      1.0000 0.45090  0.37560  0.29431  Biso   1.000  N
  N12      1.0000 0.04910  0.62440  0.79431  Biso   1.000  N
  O1       1.0000 0.19190  0.69950  0.90419  Biso   1.000  O
  O2       1.0000 0.30810  0.30050  0.40419  Biso   1.000  O
  O3       1.0000 0.80810  0.19950  0.59581  Biso   1.000  O
  O4       1.0000 0.69190  0.80050  0.09581  Biso   1.000  O
  O5       1.0000 0.41900  0.75144  0.83616  Biso   1.000  O
  O6       1.0000 0.08100  0.24856  0.33616  Biso   1.000  O
  O7       1.0000 0.58100  0.25144  0.66384  Biso   1.000  O
  O8       1.0000 0.91900  0.74856  0.16384  Biso   1.000  O
  O9       1.0000 0.36490  0.93263  0.09607  Biso   1.000  O
  O10      1.0000 0.13510  0.06737  0.59607  Biso   1.000  O
  O11      1.0000 0.63510  0.43263  0.40393  Biso   1.000  O
  O12      1.0000 0.86490  0.56737  0.90393  Biso   1.000  O
  O13      1.0000 0.96660  0.92160  0.06737  Biso   1.000  O
  O14      1.0000 0.53340  0.07840  0.56737  Biso   1.000  O
  O15      1.0000 0.03340  0.42160  0.43263  Biso   1.000  O
  O16      1.0000 0.46660  0.57840  0.93263  Biso   1.000  O
  O17      1.0000 0.41420  0.02406  0.90267  Biso   1.000  O
  O18      1.0000 0.08580  0.97594  0.40267  Biso   1.000  O
  O19      1.0000 0.58580  0.52406  0.59733  Biso   1.000  O
  O20      1.0000 0.91420  0.47594  0.09733  Biso   1.000  O
  O21      1.0000 0.84200  0.02547  0.94215  Biso   1.000  O
  O22      1.0000 0.65800  0.97453  0.44215  Biso   1.000  O
  O23      1.0000 0.15800  0.52547  0.55785  Biso   1.000  O
  O24      1.0000 0.34200  0.47453  0.05785  Biso   1.000  O
  S1       1.0000 0.57871  0.01833  0.95175  Biso   1.000  S
  S2       1.0000 0.92129  0.98167  0.45175  Biso   1.000  S
  S3       1.0000 0.42129  0.51833  0.54825  Biso   1.000  S
  S4       1.0000 0.07871  0.48167  0.04825  Biso   1.000  S
