data_image0
_cell_length_a       7.559
_cell_length_b       12.466
_cell_length_c       17.421
_cell_angle_alpha    90
_cell_angle_beta     95.195
_cell_angle_gamma    90

_symmetry_space_group_name_H-M    "P 1"
_symmetry_int_tables_number       1

loop_
  _symmetry_equiv_pos_as_xyz
  'x, y, z'

loop_
  _atom_site_label
  _atom_site_occupancy
  _atom_site_fract_x
  _atom_site_fract_y
  _atom_site_fract_z
  _atom_site_thermal_displace_type
  _atom_site_B_iso_or_equiv
  _atom_site_type_symbol
  C1       1.0000 0.83750  0.32180  0.89400  Biso   1.000  C
  C2       1.0000 0.16250  0.82180  0.10600  Biso   1.000  C
  H1       1.0000 0.92580  0.34990  0.86320  Biso   1.000  H
  H2       1.0000 0.07420  0.84990  0.13680  Biso   1.000  H
  H3       1.0000 0.74400  0.37340  0.89660  Biso   1.000  H
  H4       1.0000 0.25600  0.87340  0.10340  Biso   1.000  H
  H5       1.0000 0.78940  0.25680  0.87110  Biso   1.000  H
  H6       1.0000 0.21060  0.75680  0.12890  Biso   1.000  H
  C3       1.0000 0.92100  0.29860  0.97380  Biso   1.000  C
  C4       1.0000 0.07900  0.79860  0.02620  Biso   1.000  C
  C5       1.0000 0.00700  0.20060  0.98410  Biso   1.000  C
  C6       1.0000 0.99300  0.70060  0.01590  Biso   1.000  C
  H7       1.0000 0.01070  0.15230  0.94360  Biso   1.000  H
  H8       1.0000 0.98930  0.65230  0.05640  Biso   1.000  H
  C7       1.0000 0.08900  0.17690  0.05830  Biso   1.000  C
  C8       1.0000 0.91100  0.67690  0.94170  Biso   1.000  C
  H9       1.0000 0.15900  0.11570  0.06470  Biso   1.000  H
  H10      1.0000 0.84100  0.61570  0.93530  Biso   1.000  H
  C9       1.0000 0.06940  0.23890  0.12000  Biso   1.000  C
  C10      1.0000 0.93060  0.73890  0.88000  Biso   1.000  C
  C11      1.0000 0.98300  0.33490  0.10960  Biso   1.000  C
  C12      1.0000 0.01700  0.83490  0.89040  Biso   1.000  C
  H11      1.0000 0.97650  0.38160  0.15090  Biso   1.000  H
  H12      1.0000 0.02350  0.88160  0.84910  Biso   1.000  H
  C13      1.0000 0.90300  0.36330  0.03450  Biso   1.000  C
  C14      1.0000 0.09700  0.86330  0.96550  Biso   1.000  C
  H13      1.0000 0.83770  0.42650  0.02780  Biso   1.000  H
  H14      1.0000 0.16230  0.92650  0.97220  Biso   1.000  H
  C15      1.0000 0.93030  0.21470  0.32130  Biso   1.000  C
  C16      1.0000 0.06970  0.71470  0.67870  Biso   1.000  C
  H15      1.0000 0.92900  0.29210  0.31140  Biso   1.000  H
  H16      1.0000 0.07100  0.79210  0.68860  Biso   1.000  H
  C17      1.0000 0.74500  0.17810  0.33850  Biso   1.000  C
  C18      1.0000 0.25500  0.67810  0.66150  Biso   1.000  C
  H17      1.0000 0.66550  0.18020  0.29160  Biso   1.000  H
  H18      1.0000 0.33450  0.68020  0.70840  Biso   1.000  H
  H19      1.0000 0.75040  0.10470  0.35720  Biso   1.000  H
  H20      1.0000 0.24960  0.60470  0.64280  Biso   1.000  H
  C19      1.0000 0.67510  0.25000  0.39840  Biso   1.000  C
  C20      1.0000 0.32490  0.75000  0.60160  Biso   1.000  C
  H21      1.0000 0.63640  0.31690  0.37380  Biso   1.000  H
  H22      1.0000 0.36360  0.81690  0.62620  Biso   1.000  H
  H23      1.0000 0.77180  0.26660  0.43700  Biso   1.000  H
  H24      1.0000 0.22820  0.76660  0.56300  Biso   1.000  H
  C21      1.0000 0.52040  0.20310  0.43900  Biso   1.000  C
  C22      1.0000 0.47960  0.70310  0.56100  Biso   1.000  C
  C23      1.0000 0.05830  0.19050  0.39240  Biso   1.000  C
  C24      1.0000 0.94170  0.69050  0.60760  Biso   1.000  C
  C25      1.0000 0.46090  0.11530  0.63070  Biso   1.000  C
  C26      1.0000 0.53910  0.61530  0.36930  Biso   1.000  C
  C27      1.0000 0.59200  0.09490  0.70220  Biso   1.000  C
  C28      1.0000 0.40800  0.59490  0.29780  Biso   1.000  C
  H25      1.0000 0.56670  0.14790  0.74130  Biso   1.000  H
  H26      1.0000 0.43330  0.64790  0.25870  Biso   1.000  H
  C29      1.0000 0.78320  0.11530  0.68130  Biso   1.000  C
  C30      1.0000 0.21680  0.61530  0.31870  Biso   1.000  C
  H27      1.0000 0.79130  0.18860  0.66320  Biso   1.000  H
  H28      1.0000 0.20870  0.68860  0.33680  Biso   1.000  H
  H29      1.0000 0.86380  0.10830  0.72770  Biso   1.000  H
  H30      1.0000 0.13620  0.60830  0.27230  Biso   1.000  H
  C31      1.0000 0.84510  0.03950  0.61950  Biso   1.000  C
  C32      1.0000 0.15490  0.53950  0.38050  Biso   1.000  C
  H31      1.0000 0.87840  0.97130  0.64350  Biso   1.000  H
  H32      1.0000 0.12160  0.47130  0.35650  Biso   1.000  H
  H33      1.0000 0.74630  0.02640  0.58120  Biso   1.000  H
  H34      1.0000 0.25370  0.52640  0.41880  Biso   1.000  H
  C33      1.0000 0.99890  0.08120  0.57980  Biso   1.000  C
  C34      1.0000 0.00110  0.58120  0.42020  Biso   1.000  C
  C35      1.0000 0.47830  0.99830  0.88300  Biso   1.000  C
  C36      1.0000 0.52170  0.49830  0.11700  Biso   1.000  C
  C37      1.0000 0.55890  0.91930  0.92720  Biso   1.000  C
  C38      1.0000 0.44110  0.41930  0.07280  Biso   1.000  C
  H35      1.0000 0.57550  0.85120  0.90720  Biso   1.000  H
  H36      1.0000 0.42450  0.35120  0.09280  Biso   1.000  H
  C39      1.0000 0.61520  0.94390  0.00270  Biso   1.000  C
  C40      1.0000 0.38480  0.44390  0.99730  Biso   1.000  C
  H37      1.0000 0.66950  0.89040  0.03370  Biso   1.000  H
  H38      1.0000 0.33050  0.39040  0.96630  Biso   1.000  H
  C41      1.0000 0.59480  0.04360  0.03410  Biso   1.000  C
  C42      1.0000 0.40520  0.54360  0.96590  Biso   1.000  C
  C43      1.0000 0.51900  0.11720  0.98950  Biso   1.000  C
  C44      1.0000 0.48100  0.61720  0.01050  Biso   1.000  C
  H39      1.0000 0.50650  0.18590  0.00910  Biso   1.000  H
  H40      1.0000 0.49350  0.68590  0.99090  Biso   1.000  H
  C45      1.0000 0.45230  0.09560  0.90980  Biso   1.000  C
  C46      1.0000 0.54770  0.59560  0.09020  Biso   1.000  C
  H41      1.0000 0.39410  0.14810  0.87910  Biso   1.000  H
  H42      1.0000 0.60590  0.64810  0.12090  Biso   1.000  H
  C47      1.0000 0.65430  0.06360  0.11810  Biso   1.000  C
  C48      1.0000 0.34570  0.56360  0.88190  Biso   1.000  C
  H43      1.0000 0.65420  0.13930  0.12810  Biso   1.000  H
  H44      1.0000 0.34580  0.63930  0.87190  Biso   1.000  H
  H45      1.0000 0.77210  0.03580  0.12970  Biso   1.000  H
  H46      1.0000 0.22790  0.53580  0.87030  Biso   1.000  H
  H47      1.0000 0.57450  0.02850  0.14980  Biso   1.000  H
  H48      1.0000 0.42550  0.52850  0.85020  Biso   1.000  H
  Cu1      1.0000 0.23587  0.24471  0.53576  Biso   1.000  Cu
  Cu2      1.0000 0.76413  0.74471  0.46424  Biso   1.000  Cu
  Cu3      1.0000 0.28333  0.05019  0.48589  Biso   1.000  Cu
  Cu4      1.0000 0.71667  0.55019  0.51411  Biso   1.000  Cu
  N1       1.0000 0.56620  0.99010  0.73450  Biso   1.000  N
  N2       1.0000 0.43380  0.49010  0.26550  Biso   1.000  N
  H49      1.0000 0.63900  0.93900  0.72660  Biso   1.000  H
  H50      1.0000 0.36100  0.43900  0.27340  Biso   1.000  H
  N3       1.0000 0.98070  0.15770  0.25330  Biso   1.000  N
  N4       1.0000 0.01930  0.65770  0.74670  Biso   1.000  N
  H51      1.0000 0.91980  0.10370  0.23500  Biso   1.000  H
  H52      1.0000 0.08020  0.60370  0.76500  Biso   1.000  H
  O1       1.0000 0.13500  0.10290  0.39430  Biso   1.000  O
  O2       1.0000 0.86500  0.60290  0.60570  Biso   1.000  O
  O3       1.0000 0.07480  0.26130  0.44330  Biso   1.000  O
  O4       1.0000 0.92520  0.76130  0.55670  Biso   1.000  O
  O5       1.0000 0.43460  0.27240  0.47350  Biso   1.000  O
  O6       1.0000 0.56540  0.77240  0.52650  Biso   1.000  O
  O7       1.0000 0.49450  0.10620  0.43910  Biso   1.000  O
  O8       1.0000 0.50550  0.60620  0.56090  Biso   1.000  O
  O9       1.0000 0.41020  0.20990  0.62220  Biso   1.000  O
  O10      1.0000 0.58980  0.70990  0.37780  Biso   1.000  O
  O11      1.0000 0.42550  0.03820  0.58590  Biso   1.000  O
  O12      1.0000 0.57450  0.53820  0.41410  Biso   1.000  O
  O13      1.0000 0.04950  0.17650  0.59170  Biso   1.000  O
  O14      1.0000 0.95050  0.67650  0.40830  Biso   1.000  O
  O15      1.0000 0.06620  0.01820  0.53590  Biso   1.000  O
  O16      1.0000 0.93380  0.51820  0.46410  Biso   1.000  O
  O17      1.0000 0.31580  0.89720  0.43600  Biso   1.000  O
  O18      1.0000 0.68420  0.39720  0.56400  Biso   1.000  O
  O19      1.0000 0.18300  0.41090  0.56710  Biso   1.000  O
  O20      1.0000 0.81700  0.91090  0.43290  Biso   1.000  O
  O21      1.0000 0.22100  0.29200  0.25340  Biso   1.000  O
  O22      1.0000 0.77900  0.79200  0.74660  Biso   1.000  O
  O23      1.0000 0.26900  0.10970  0.20380  Biso   1.000  O
  O24      1.0000 0.73100  0.60970  0.79620  Biso   1.000  O
  O25      1.0000 0.26360  0.04280  0.76060  Biso   1.000  O
  O26      1.0000 0.73640  0.54280  0.23940  Biso   1.000  O
  O27      1.0000 0.36540  0.85430  0.78260  Biso   1.000  O
  O28      1.0000 0.63460  0.35430  0.21740  Biso   1.000  O
  O29      1.0000 0.32350  0.30380  0.77710  Biso   1.000  O
  O30      1.0000 0.67650  0.80380  0.22290  Biso   1.000  O
  O31      1.0000 0.01570  0.41640  0.71900  Biso   1.000  O
  O32      1.0000 0.98430  0.91640  0.28100  Biso   1.000  O
  O33      1.0000 0.62110  0.41970  0.71580  Biso   1.000  O
  O34      1.0000 0.37890  0.91970  0.28420  Biso   1.000  O
  H53      1.0000 0.37000  0.83750  0.42600  Biso   1.000  H
  H54      1.0000 0.63000  0.33750  0.57400  Biso   1.000  H
  H55      1.0000 0.23250  0.90370  0.39970  Biso   1.000  H
  H56      1.0000 0.76750  0.40370  0.60030  Biso   1.000  H
  S1       1.0000 0.15430  0.19850  0.21292  Biso   1.000  S
  S2       1.0000 0.84570  0.69850  0.78708  Biso   1.000  S
  S3       1.0000 0.40160  0.96800  0.78531  Biso   1.000  S
  S4       1.0000 0.59840  0.46800  0.21469  Biso   1.000  S
  H57      1.0000 0.31490  0.27620  0.73060  Biso   1.000  H
  H58      1.0000 0.68510  0.77620  0.26940  Biso   1.000  H
  H59      1.0000 0.33070  0.37230  0.76900  Biso   1.000  H
  H60      1.0000 0.66930  0.87230  0.23100  Biso   1.000  H
  H61      1.0000 0.04940  0.41100  0.67310  Biso   1.000  H
  H62      1.0000 0.95060  0.91100  0.32690  Biso   1.000  H
  H63      1.0000 0.91060  0.44340  0.71320  Biso   1.000  H
  H64      1.0000 0.08940  0.94340  0.28680  Biso   1.000  H
  H65      1.0000 0.57630  0.37100  0.74330  Biso   1.000  H
  H66      1.0000 0.42370  0.87100  0.25670  Biso   1.000  H
  H67      1.0000 0.58540  0.48040  0.73580  Biso   1.000  H
  H68      1.0000 0.41460  0.98040  0.26420  Biso   1.000  H
  H69      1.0000 0.28700  0.43420  0.58160  Biso   1.000  H
  H70      1.0000 0.71300  0.93420  0.41840  Biso   1.000  H
  H71      1.0000 0.14040  0.45140  0.53060  Biso   1.000  H
  H72      1.0000 0.85960  0.95140  0.46940  Biso   1.000  H
