data_image0
_cell_length_a       21.073
_cell_length_b       13.061
_cell_length_c       11.123
_cell_angle_alpha    90
_cell_angle_beta     90
_cell_angle_gamma    90

_symmetry_space_group_name_H-M    "P 1"
_symmetry_int_tables_number       1

loop_
  _symmetry_equiv_pos_as_xyz
  'x, y, z'

loop_
  _atom_site_label
  _atom_site_occupancy
  _atom_site_fract_x
  _atom_site_fract_y
  _atom_site_fract_z
  _atom_site_thermal_displace_type
  _atom_site_B_iso_or_equiv
  _atom_site_type_symbol
  Cu1      1.0000 0.95265  0.14499  0.50000  Biso   1.000  Cu
  Cu2      1.0000 0.04735  0.85501  0.50000  Biso   1.000  Cu
  Cu3      1.0000 0.45265  0.35501  0.50000  Biso   1.000  Cu
  Cu4      1.0000 0.54735  0.64499  0.50000  Biso   1.000  Cu
  O1       1.0000 0.85900  0.16220  0.50000  Biso   1.000  O
  O2       1.0000 0.14100  0.83780  0.50000  Biso   1.000  O
  O3       1.0000 0.35900  0.33780  0.50000  Biso   1.000  O
  O4       1.0000 0.64100  0.66220  0.50000  Biso   1.000  O
  O5       1.0000 0.88810  0.32340  0.50000  Biso   1.000  O
  O6       1.0000 0.11190  0.67660  0.50000  Biso   1.000  O
  O7       1.0000 0.38810  0.17660  0.50000  Biso   1.000  O
  O8       1.0000 0.61190  0.82340  0.50000  Biso   1.000  O
  O9       1.0000 0.54090  0.30790  0.50000  Biso   1.000  O
  O10      1.0000 0.45910  0.69210  0.50000  Biso   1.000  O
  O11      1.0000 0.04090  0.19210  0.50000  Biso   1.000  O
  O12      1.0000 0.95910  0.80790  0.50000  Biso   1.000  O
  O13      1.0000 0.56990  0.46890  0.50000  Biso   1.000  O
  O14      1.0000 0.43010  0.53110  0.50000  Biso   1.000  O
  O15      1.0000 0.06990  0.03110  0.50000  Biso   1.000  O
  O16      1.0000 0.93010  0.96890  0.50000  Biso   1.000  O
  O17      1.0000 0.80590  0.46330  0.50000  Biso   1.000  O
  O18      1.0000 0.19410  0.53670  0.50000  Biso   1.000  O
  O19      1.0000 0.30590  0.03670  0.50000  Biso   1.000  O
  O20      1.0000 0.69410  0.96330  0.50000  Biso   1.000  O
  H1       1.0000 0.84120  0.43700  0.50000  Biso   1.000  H
  H2       1.0000 0.15880  0.56300  0.50000  Biso   1.000  H
  H3       1.0000 0.34120  0.06300  0.50000  Biso   1.000  H
  H4       1.0000 0.65880  0.93700  0.50000  Biso   1.000  H
  C1       1.0000 0.84610  0.25590  0.50000  Biso   1.000  C
  C2       1.0000 0.15390  0.74410  0.50000  Biso   1.000  C
  C3       1.0000 0.34610  0.24410  0.50000  Biso   1.000  C
  C4       1.0000 0.65390  0.75590  0.50000  Biso   1.000  C
  C5       1.0000 0.77880  0.28700  0.50000  Biso   1.000  C
  C6       1.0000 0.22120  0.71300  0.50000  Biso   1.000  C
  C7       1.0000 0.27880  0.21300  0.50000  Biso   1.000  C
  C8       1.0000 0.72120  0.78700  0.50000  Biso   1.000  C
  C9       1.0000 0.73040  0.21460  0.50000  Biso   1.000  C
  C10      1.0000 0.26960  0.78540  0.50000  Biso   1.000  C
  C11      1.0000 0.23040  0.28540  0.50000  Biso   1.000  C
  C12      1.0000 0.76960  0.71460  0.50000  Biso   1.000  C
  H5       1.0000 0.74100  0.14550  0.50000  Biso   1.000  H
  H6       1.0000 0.25900  0.85450  0.50000  Biso   1.000  H
  H7       1.0000 0.24100  0.35450  0.50000  Biso   1.000  H
  H8       1.0000 0.75900  0.64550  0.50000  Biso   1.000  H
  C13      1.0000 0.66730  0.24180  0.50000  Biso   1.000  C
  C14      1.0000 0.33270  0.75820  0.50000  Biso   1.000  C
  C15      1.0000 0.16730  0.25820  0.50000  Biso   1.000  C
  C16      1.0000 0.83270  0.74180  0.50000  Biso   1.000  C
  H9       1.0000 0.63600  0.19170  0.50000  Biso   1.000  H
  H10      1.0000 0.36400  0.80830  0.50000  Biso   1.000  H
  H11      1.0000 0.13600  0.30830  0.50000  Biso   1.000  H
  H12      1.0000 0.86400  0.69170  0.50000  Biso   1.000  H
  C17      1.0000 0.65080  0.34460  0.50000  Biso   1.000  C
  C18      1.0000 0.34920  0.65540  0.50000  Biso   1.000  C
  C19      1.0000 0.15080  0.15540  0.50000  Biso   1.000  C
  C20      1.0000 0.84920  0.84460  0.50000  Biso   1.000  C
  C21      1.0000 0.69710  0.41710  0.50000  Biso   1.000  C
  C22      1.0000 0.30290  0.58290  0.50000  Biso   1.000  C
  C23      1.0000 0.19710  0.08290  0.50000  Biso   1.000  C
  C24      1.0000 0.80290  0.91710  0.50000  Biso   1.000  C
  H13      1.0000 0.68610  0.48600  0.50000  Biso   1.000  H
  H14      1.0000 0.31390  0.51400  0.50000  Biso   1.000  H
  H15      1.0000 0.18610  0.01400  0.50000  Biso   1.000  H
  H16      1.0000 0.81390  0.98600  0.50000  Biso   1.000  H
  C25      1.0000 0.76110  0.38910  0.50000  Biso   1.000  C
  C26      1.0000 0.23890  0.61090  0.50000  Biso   1.000  C
  C27      1.0000 0.26110  0.11090  0.50000  Biso   1.000  C
  C28      1.0000 0.73890  0.88910  0.50000  Biso   1.000  C
  C29      1.0000 0.58230  0.37990  0.50000  Biso   1.000  C
  C30      1.0000 0.41770  0.62010  0.50000  Biso   1.000  C
  C31      1.0000 0.08230  0.12010  0.50000  Biso   1.000  C
  C32      1.0000 0.91770  0.87990  0.50000  Biso   1.000  C
  N1       1.0000 0.95313  0.14270  0.68250  Biso   1.000  N
  N2       1.0000 0.04687  0.85730  0.68250  Biso   1.000  N
  N3       1.0000 0.45313  0.35730  0.31750  Biso   1.000  N
  N4       1.0000 0.54687  0.64270  0.31750  Biso   1.000  N
  N5       1.0000 0.04687  0.85730  0.31750  Biso   1.000  N
  N6       1.0000 0.95313  0.14270  0.31750  Biso   1.000  N
  N7       1.0000 0.54687  0.64270  0.68250  Biso   1.000  N
  N8       1.0000 0.45313  0.35730  0.68250  Biso   1.000  N
  C33      1.0000 0.91970  0.07700  0.74390  Biso   1.000  C
  C34      1.0000 0.08030  0.92300  0.74390  Biso   1.000  C
  C35      1.0000 0.41970  0.42300  0.25610  Biso   1.000  C
  C36      1.0000 0.58030  0.57700  0.25610  Biso   1.000  C
  C37      1.0000 0.08030  0.92300  0.25610  Biso   1.000  C
  C38      1.0000 0.91970  0.07700  0.25610  Biso   1.000  C
  C39      1.0000 0.58030  0.57700  0.74390  Biso   1.000  C
  C40      1.0000 0.41970  0.42300  0.74390  Biso   1.000  C
  H17      1.0000 0.89580  0.02910  0.70190  Biso   1.000  H
  H18      1.0000 0.10420  0.97090  0.70190  Biso   1.000  H
  H19      1.0000 0.39580  0.47090  0.29810  Biso   1.000  H
  H20      1.0000 0.60420  0.52910  0.29810  Biso   1.000  H
  H21      1.0000 0.10420  0.97090  0.29810  Biso   1.000  H
  H22      1.0000 0.89580  0.02910  0.29810  Biso   1.000  H
  H23      1.0000 0.60420  0.52910  0.70190  Biso   1.000  H
  H24      1.0000 0.39580  0.47090  0.70190  Biso   1.000  H
  C41      1.0000 0.91780  0.07470  0.86770  Biso   1.000  C
  C42      1.0000 0.08220  0.92530  0.86770  Biso   1.000  C
  C43      1.0000 0.41780  0.42530  0.13230  Biso   1.000  C
  C44      1.0000 0.58220  0.57470  0.13230  Biso   1.000  C
  C45      1.0000 0.08220  0.92530  0.13230  Biso   1.000  C
  C46      1.0000 0.91780  0.07470  0.13230  Biso   1.000  C
  C47      1.0000 0.58220  0.57470  0.86770  Biso   1.000  C
  C48      1.0000 0.41780  0.42530  0.86770  Biso   1.000  C
  H25      1.0000 0.89230  0.02700  0.90680  Biso   1.000  H
  H26      1.0000 0.10770  0.97300  0.90680  Biso   1.000  H
  H27      1.0000 0.39230  0.47300  0.09320  Biso   1.000  H
  H28      1.0000 0.60770  0.52700  0.09320  Biso   1.000  H
  H29      1.0000 0.10770  0.97300  0.09320  Biso   1.000  H
  H30      1.0000 0.89230  0.02700  0.09320  Biso   1.000  H
  H31      1.0000 0.60770  0.52700  0.90680  Biso   1.000  H
  H32      1.0000 0.39230  0.47300  0.90680  Biso   1.000  H
  C49      1.0000 0.95300  0.14180  0.93270  Biso   1.000  C
  C50      1.0000 0.04700  0.85820  0.93270  Biso   1.000  C
  C51      1.0000 0.45300  0.35820  0.06730  Biso   1.000  C
  C52      1.0000 0.54700  0.64180  0.06730  Biso   1.000  C
  C53      1.0000 0.04700  0.85820  0.06730  Biso   1.000  C
  C54      1.0000 0.95300  0.14180  0.06730  Biso   1.000  C
  C55      1.0000 0.54700  0.64180  0.93270  Biso   1.000  C
  C56      1.0000 0.45300  0.35820  0.93270  Biso   1.000  C
  C57      1.0000 0.98890  0.20930  0.86730  Biso   1.000  C
  C58      1.0000 0.01110  0.79070  0.86730  Biso   1.000  C
  C59      1.0000 0.48890  0.29070  0.13270  Biso   1.000  C
  C60      1.0000 0.51110  0.70930  0.13270  Biso   1.000  C
  C61      1.0000 0.01110  0.79070  0.13270  Biso   1.000  C
  C62      1.0000 0.98890  0.20930  0.13270  Biso   1.000  C
  C63      1.0000 0.51110  0.70930  0.86730  Biso   1.000  C
  C64      1.0000 0.48890  0.29070  0.86730  Biso   1.000  C
  H33      1.0000 0.01450  0.25650  0.90680  Biso   1.000  H
  H34      1.0000 0.98550  0.74350  0.90680  Biso   1.000  H
  H35      1.0000 0.51450  0.24350  0.09320  Biso   1.000  H
  H36      1.0000 0.48550  0.75650  0.09320  Biso   1.000  H
  H37      1.0000 0.98550  0.74350  0.09320  Biso   1.000  H
  H38      1.0000 0.01450  0.25650  0.09320  Biso   1.000  H
  H39      1.0000 0.48550  0.75650  0.90680  Biso   1.000  H
  H40      1.0000 0.51450  0.24350  0.90680  Biso   1.000  H
  C65      1.0000 0.98730  0.20780  0.74470  Biso   1.000  C
  C66      1.0000 0.01270  0.79220  0.74470  Biso   1.000  C
  C67      1.0000 0.48730  0.29220  0.25530  Biso   1.000  C
  C68      1.0000 0.51270  0.70780  0.25530  Biso   1.000  C
  C69      1.0000 0.01270  0.79220  0.25530  Biso   1.000  C
  C70      1.0000 0.98730  0.20780  0.25530  Biso   1.000  C
  C71      1.0000 0.51270  0.70780  0.74470  Biso   1.000  C
  C72      1.0000 0.48730  0.29220  0.74470  Biso   1.000  C
  H41      1.0000 0.01170  0.25540  0.70310  Biso   1.000  H
  H42      1.0000 0.98830  0.74460  0.70310  Biso   1.000  H
  H43      1.0000 0.51170  0.24460  0.29690  Biso   1.000  H
  H44      1.0000 0.48830  0.75540  0.29690  Biso   1.000  H
  H45      1.0000 0.98830  0.74460  0.29690  Biso   1.000  H
  H46      1.0000 0.01170  0.25540  0.29690  Biso   1.000  H
  H47      1.0000 0.48830  0.75540  0.70310  Biso   1.000  H
  H48      1.0000 0.51170  0.24460  0.70310  Biso   1.000  H
