data_image0
_cell_length_a       6.1507
_cell_length_b       11.0663
_cell_length_c       15.5218
_cell_angle_alpha    90
_cell_angle_beta     96.195
_cell_angle_gamma    90

_symmetry_space_group_name_H-M    "P 1"
_symmetry_int_tables_number       1

loop_
  _symmetry_equiv_pos_as_xyz
  'x, y, z'

loop_
  _atom_site_label
  _atom_site_occupancy
  _atom_site_fract_x
  _atom_site_fract_y
  _atom_site_fract_z
  _atom_site_thermal_displace_type
  _atom_site_B_iso_or_equiv
  _atom_site_type_symbol
  Cu1      1.0000 0.00000  0.00000  0.50000  Biso   1.000  Cu
  Cu2      1.0000 0.00000  0.50000  0.00000  Biso   1.000  Cu
  O1       1.0000 0.19220  0.98544  0.34552  Biso   1.000  O
  O2       1.0000 0.80780  0.48544  0.15448  Biso   1.000  O
  O3       1.0000 0.80780  0.01456  0.65448  Biso   1.000  O
  O4       1.0000 0.19220  0.51456  0.84552  Biso   1.000  O
  H1       1.0000 0.29920  0.02920  0.36350  Biso   1.000  H
  H2       1.0000 0.70080  0.52920  0.13650  Biso   1.000  H
  H3       1.0000 0.70080  0.97080  0.63650  Biso   1.000  H
  H4       1.0000 0.29920  0.47080  0.86350  Biso   1.000  H
  C1       1.0000 0.26260  0.87100  0.33365  Biso   1.000  C
  C2       1.0000 0.73740  0.37100  0.16635  Biso   1.000  C
  C3       1.0000 0.73740  0.12900  0.66635  Biso   1.000  C
  C4       1.0000 0.26260  0.62900  0.83365  Biso   1.000  C
  C5       1.0000 0.11720  0.78610  0.29215  Biso   1.000  C
  C6       1.0000 0.88280  0.28610  0.20785  Biso   1.000  C
  C7       1.0000 0.88280  0.21390  0.70785  Biso   1.000  C
  C8       1.0000 0.11720  0.71390  0.79215  Biso   1.000  C
  H5       1.0000 0.97130  0.80950  0.27300  Biso   1.000  H
  H6       1.0000 0.02870  0.30950  0.22700  Biso   1.000  H
  H7       1.0000 0.02870  0.19050  0.72700  Biso   1.000  H
  H8       1.0000 0.97130  0.69050  0.77300  Biso   1.000  H
  C9       1.0000 0.18320  0.67040  0.27900  Biso   1.000  C
  C10      1.0000 0.81680  0.17040  0.22100  Biso   1.000  C
  C11      1.0000 0.81680  0.32960  0.72100  Biso   1.000  C
  C12      1.0000 0.18320  0.82960  0.77900  Biso   1.000  C
  H9       1.0000 0.08290  0.61490  0.24980  Biso   1.000  H
  H10      1.0000 0.91710  0.11490  0.25020  Biso   1.000  H
  H11      1.0000 0.91710  0.38510  0.75020  Biso   1.000  H
  H12      1.0000 0.08290  0.88510  0.74980  Biso   1.000  H
  C13      1.0000 0.39430  0.63200  0.30740  Biso   1.000  C
  C14      1.0000 0.60570  0.13200  0.19260  Biso   1.000  C
  C15      1.0000 0.60570  0.36800  0.69260  Biso   1.000  C
  C16      1.0000 0.39430  0.86800  0.80740  Biso   1.000  C
  H13      1.0000 0.43900  0.55130  0.29810  Biso   1.000  H
  H14      1.0000 0.56100  0.05130  0.20190  Biso   1.000  H
  H15      1.0000 0.56100  0.44870  0.70190  Biso   1.000  H
  H16      1.0000 0.43900  0.94870  0.79810  Biso   1.000  H
  C17      1.0000 0.53760  0.71490  0.34976  Biso   1.000  C
  C18      1.0000 0.46240  0.21490  0.15024  Biso   1.000  C
  C19      1.0000 0.46240  0.28510  0.65024  Biso   1.000  C
  C20      1.0000 0.53760  0.78510  0.84976  Biso   1.000  C
  H17      1.0000 0.68190  0.68980  0.36990  Biso   1.000  H
  H18      1.0000 0.31810  0.18980  0.13010  Biso   1.000  H
  H19      1.0000 0.31810  0.31020  0.63010  Biso   1.000  H
  H20      1.0000 0.68190  0.81020  0.86990  Biso   1.000  H
  C21      1.0000 0.47600  0.83380  0.36347  Biso   1.000  C
  C22      1.0000 0.52400  0.33380  0.13653  Biso   1.000  C
  C23      1.0000 0.52400  0.16620  0.63653  Biso   1.000  C
  C24      1.0000 0.47600  0.66620  0.86347  Biso   1.000  C
  C25      1.0000 0.63550  0.91990  0.40847  Biso   1.000  C
  C26      1.0000 0.36450  0.41990  0.09153  Biso   1.000  C
  C27      1.0000 0.36450  0.08010  0.59153  Biso   1.000  C
  C28      1.0000 0.63550  0.58010  0.90847  Biso   1.000  C
  O5       1.0000 0.18700  0.12294  0.55179  Biso   1.000  O
  O6       1.0000 0.81300  0.62294  0.94821  Biso   1.000  O
  O7       1.0000 0.81300  0.87706  0.44821  Biso   1.000  O
  O8       1.0000 0.18700  0.37706  0.05179  Biso   1.000  O
  N1       1.0000 0.41650  0.96580  0.59547  Biso   1.000  N
  N2       1.0000 0.58350  0.46580  0.90453  Biso   1.000  N
  N3       1.0000 0.58350  0.03420  0.40453  Biso   1.000  N
  N4       1.0000 0.41650  0.53420  0.09547  Biso   1.000  N
  N5       1.0000 0.25070  0.89250  0.55359  Biso   1.000  N
  N6       1.0000 0.74930  0.39250  0.94641  Biso   1.000  N
  N7       1.0000 0.74930  0.10750  0.44641  Biso   1.000  N
  N8       1.0000 0.25070  0.60750  0.05359  Biso   1.000  N
  C29      1.0000 0.29720  0.77890  0.55628  Biso   1.000  C
  C30      1.0000 0.70280  0.27890  0.94372  Biso   1.000  C
  C31      1.0000 0.70280  0.22110  0.44372  Biso   1.000  C
  C32      1.0000 0.29720  0.72110  0.05628  Biso   1.000  C
  C33      1.0000 0.52020  0.73750  0.60250  Biso   1.000  C
  C34      1.0000 0.47980  0.23750  0.89750  Biso   1.000  C
  C35      1.0000 0.47980  0.26250  0.39750  Biso   1.000  C
  C36      1.0000 0.52020  0.76250  0.10250  Biso   1.000  C
  H21      1.0000 0.63880  0.77410  0.57410  Biso   1.000  H
  H22      1.0000 0.36120  0.27410  0.92590  Biso   1.000  H
  H23      1.0000 0.36120  0.22590  0.42590  Biso   1.000  H
  H24      1.0000 0.63880  0.72590  0.07410  Biso   1.000  H
  H25      1.0000 0.53090  0.64920  0.59940  Biso   1.000  H
  H26      1.0000 0.46910  0.14920  0.90060  Biso   1.000  H
  H27      1.0000 0.46910  0.35080  0.40060  Biso   1.000  H
  H28      1.0000 0.53090  0.85080  0.09940  Biso   1.000  H
  H29      1.0000 0.53230  0.76270  0.66340  Biso   1.000  H
  H30      1.0000 0.46770  0.26270  0.83660  Biso   1.000  H
  H31      1.0000 0.46770  0.23730  0.33660  Biso   1.000  H
  H32      1.0000 0.53230  0.73730  0.16340  Biso   1.000  H
  C37      1.0000 0.14400  0.67980  0.52020  Biso   1.000  C
  C38      1.0000 0.85600  0.17980  0.97980  Biso   1.000  C
  C39      1.0000 0.85600  0.32020  0.47980  Biso   1.000  C
  C40      1.0000 0.14400  0.82020  0.02020  Biso   1.000  C
  H33      1.0000 0.01810  0.71750  0.48520  Biso   1.000  H
  H34      1.0000 0.98190  0.21750  0.01480  Biso   1.000  H
  H35      1.0000 0.98190  0.28250  0.51480  Biso   1.000  H
  H36      1.0000 0.01810  0.78250  0.98520  Biso   1.000  H
  H37      1.0000 0.22200  0.62930  0.48070  Biso   1.000  H
  H38      1.0000 0.77800  0.12930  0.01930  Biso   1.000  H
  H39      1.0000 0.77800  0.37070  0.51930  Biso   1.000  H
  H40      1.0000 0.22200  0.87070  0.98070  Biso   1.000  H
  C41      1.0000 0.06380  0.60330  0.58300  Biso   1.000  C
  C42      1.0000 0.93620  0.10330  0.91700  Biso   1.000  C
  C43      1.0000 0.93620  0.39670  0.41700  Biso   1.000  C
  C44      1.0000 0.06380  0.89670  0.08300  Biso   1.000  C
  H41      1.0000 0.18700  0.56590  0.61870  Biso   1.000  H
  H42      1.0000 0.81300  0.06590  0.88130  Biso   1.000  H
  H43      1.0000 0.81300  0.43410  0.38130  Biso   1.000  H
  H44      1.0000 0.18700  0.93410  0.11870  Biso   1.000  H
  H45      1.0000 0.97170  0.54010  0.55380  Biso   1.000  H
  H46      1.0000 0.02830  0.04010  0.94620  Biso   1.000  H
  H47      1.0000 0.02830  0.45990  0.44620  Biso   1.000  H
  H48      1.0000 0.97170  0.95990  0.05380  Biso   1.000  H
  H49      1.0000 0.97710  0.65110  0.62010  Biso   1.000  H
  H50      1.0000 0.02290  0.15110  0.87990  Biso   1.000  H
  H51      1.0000 0.02290  0.34890  0.37990  Biso   1.000  H
  H52      1.0000 0.97710  0.84890  0.12010  Biso   1.000  H
  C45      1.0000 0.12900  0.70300  0.51400  Biso   1.000  C
  C46      1.0000 0.87100  0.20300  0.98600  Biso   1.000  C
  C47      1.0000 0.87100  0.29700  0.48600  Biso   1.000  C
  C48      1.0000 0.12900  0.79700  0.01400  Biso   1.000  C
  C49      1.0000 0.49600  0.72100  0.58700  Biso   1.000  C
  C50      1.0000 0.50400  0.22100  0.91300  Biso   1.000  C
  C51      1.0000 0.50400  0.27900  0.41300  Biso   1.000  C
  C52      1.0000 0.49600  0.77900  0.08700  Biso   1.000  C
  C53      1.0000 0.52400  0.60810  0.60100  Biso   1.000  C
  C54      1.0000 0.47600  0.10810  0.89900  Biso   1.000  C
  C55      1.0000 0.47600  0.39190  0.39900  Biso   1.000  C
  C56      1.0000 0.52400  0.89190  0.10100  Biso   1.000  C
  H53      1.0000 0.99360  0.75000  0.50180  Biso   1.000  H
  H54      1.0000 0.00640  0.25000  0.99820  Biso   1.000  H
  H55      1.0000 0.00640  0.25000  0.49820  Biso   1.000  H
  H56      1.0000 0.99360  0.75000  0.00180  Biso   1.000  H
  H57      1.0000 0.10280  0.63470  0.55140  Biso   1.000  H
  H58      1.0000 0.89720  0.13470  0.94860  Biso   1.000  H
  H59      1.0000 0.89720  0.36530  0.44860  Biso   1.000  H
  H60      1.0000 0.10280  0.86530  0.05140  Biso   1.000  H
  H61      1.0000 0.17480  0.67300  0.45920  Biso   1.000  H
  H62      1.0000 0.82520  0.17300  0.04080  Biso   1.000  H
  H63      1.0000 0.82520  0.32700  0.54080  Biso   1.000  H
  H64      1.0000 0.17480  0.82700  0.95920  Biso   1.000  H
  H65      1.0000 0.60150  0.74320  0.54570  Biso   1.000  H
  H66      1.0000 0.39850  0.24320  0.95430  Biso   1.000  H
  H67      1.0000 0.39850  0.25680  0.45430  Biso   1.000  H
  H68      1.0000 0.60150  0.75680  0.04570  Biso   1.000  H
  H69      1.0000 0.54770  0.76120  0.64230  Biso   1.000  H
  H70      1.0000 0.45230  0.26120  0.85770  Biso   1.000  H
  H71      1.0000 0.45230  0.23880  0.35770  Biso   1.000  H
  H72      1.0000 0.54770  0.73880  0.14230  Biso   1.000  H
  H73      1.0000 0.67950  0.59170  0.61710  Biso   1.000  H
  H74      1.0000 0.32050  0.09170  0.88290  Biso   1.000  H
  H75      1.0000 0.32050  0.40830  0.38290  Biso   1.000  H
  H76      1.0000 0.67950  0.90830  0.11710  Biso   1.000  H
  H77      1.0000 0.47310  0.56290  0.54830  Biso   1.000  H
  H78      1.0000 0.52690  0.06290  0.95170  Biso   1.000  H
  H79      1.0000 0.52690  0.43710  0.45170  Biso   1.000  H
  H80      1.0000 0.47310  0.93710  0.04830  Biso   1.000  H
  H81      1.0000 0.44030  0.58300  0.64820  Biso   1.000  H
  H82      1.0000 0.55970  0.08300  0.85180  Biso   1.000  H
  H83      1.0000 0.55970  0.41700  0.35180  Biso   1.000  H
  H84      1.0000 0.44030  0.91700  0.14820  Biso   1.000  H
