data_image0
_cell_length_a       18.918
_cell_length_b       7.3603
_cell_length_c       12.9038
_cell_angle_alpha    90
_cell_angle_beta     96.722
_cell_angle_gamma    90

_symmetry_space_group_name_H-M    "P 1"
_symmetry_int_tables_number       1

loop_
  _symmetry_equiv_pos_as_xyz
  'x, y, z'

loop_
  _atom_site_label
  _atom_site_occupancy
  _atom_site_fract_x
  _atom_site_fract_y
  _atom_site_fract_z
  _atom_site_thermal_displace_type
  _atom_site_B_iso_or_equiv
  _atom_site_type_symbol
  Cu1      1.0000 0.50000  0.39714  0.25000  Biso   1.000  Cu
  Cu2      1.0000 0.00000  0.89714  0.25000  Biso   1.000  Cu
  Cu3      1.0000 0.50000  0.60286  0.75000  Biso   1.000  Cu
  Cu4      1.0000 0.00000  0.10286  0.75000  Biso   1.000  Cu
  O1       1.0000 0.57565  0.39038  0.37037  Biso   1.000  O
  O2       1.0000 0.42435  0.39038  0.12963  Biso   1.000  O
  O3       1.0000 0.07565  0.89038  0.37037  Biso   1.000  O
  O4       1.0000 0.92435  0.89038  0.12963  Biso   1.000  O
  O5       1.0000 0.42435  0.60962  0.62963  Biso   1.000  O
  O6       1.0000 0.57565  0.60962  0.87037  Biso   1.000  O
  O7       1.0000 0.92435  0.10962  0.62963  Biso   1.000  O
  O8       1.0000 0.07565  0.10962  0.87037  Biso   1.000  O
  O9       1.0000 0.58562  0.09360  0.34503  Biso   1.000  O
  O10      1.0000 0.41438  0.09360  0.15497  Biso   1.000  O
  O11      1.0000 0.08562  0.59360  0.34503  Biso   1.000  O
  O12      1.0000 0.91438  0.59360  0.15497  Biso   1.000  O
  O13      1.0000 0.41438  0.90640  0.65497  Biso   1.000  O
  O14      1.0000 0.58562  0.90640  0.84503  Biso   1.000  O
  O15      1.0000 0.91438  0.40640  0.65497  Biso   1.000  O
  O16      1.0000 0.08562  0.40640  0.84503  Biso   1.000  O
  O17      1.0000 0.57491  0.14090  0.58512  Biso   1.000  O
  O18      1.0000 0.42509  0.14090  0.91488  Biso   1.000  O
  O19      1.0000 0.07491  0.64090  0.58512  Biso   1.000  O
  O20      1.0000 0.92509  0.64090  0.91488  Biso   1.000  O
  O21      1.0000 0.42509  0.85910  0.41488  Biso   1.000  O
  O22      1.0000 0.57491  0.85910  0.08512  Biso   1.000  O
  O23      1.0000 0.92509  0.35910  0.41488  Biso   1.000  O
  O24      1.0000 0.07491  0.35910  0.08512  Biso   1.000  O
  O25      1.0000 0.66255  0.03600  0.70022  Biso   1.000  O
  O26      1.0000 0.33745  0.03600  0.79978  Biso   1.000  O
  O27      1.0000 0.16255  0.53600  0.70022  Biso   1.000  O
  O28      1.0000 0.83745  0.53600  0.79978  Biso   1.000  O
  O29      1.0000 0.33745  0.96400  0.29978  Biso   1.000  O
  O30      1.0000 0.66255  0.96400  0.20022  Biso   1.000  O
  O31      1.0000 0.83745  0.46400  0.29978  Biso   1.000  O
  O32      1.0000 0.16255  0.46400  0.20022  Biso   1.000  O
  H1       1.0000 0.62930  0.99690  0.72920  Biso   1.000  H
  H2       1.0000 0.37070  0.99690  0.77080  Biso   1.000  H
  H3       1.0000 0.12930  0.49690  0.72920  Biso   1.000  H
  H4       1.0000 0.87070  0.49690  0.77080  Biso   1.000  H
  H5       1.0000 0.37070  0.00310  0.27080  Biso   1.000  H
  H6       1.0000 0.62930  0.00310  0.22920  Biso   1.000  H
  H7       1.0000 0.87070  0.50310  0.27080  Biso   1.000  H
  H8       1.0000 0.12930  0.50310  0.22920  Biso   1.000  H
  O33      1.0000 0.50000  0.71560  0.25000  Biso   1.000  O
  O34      1.0000 0.00000  0.21560  0.25000  Biso   1.000  O
  O35      1.0000 0.50000  0.28440  0.75000  Biso   1.000  O
  O36      1.0000 0.00000  0.78440  0.75000  Biso   1.000  O
  H9       1.0000 0.52020  0.78260  0.20860  Biso   1.000  H
  H10      1.0000 0.47980  0.78260  0.29140  Biso   1.000  H
  H11      1.0000 0.02020  0.28260  0.20860  Biso   1.000  H
  H12      1.0000 0.97980  0.28260  0.29140  Biso   1.000  H
  H13      1.0000 0.47980  0.21740  0.79140  Biso   1.000  H
  H14      1.0000 0.52020  0.21740  0.70860  Biso   1.000  H
  H15      1.0000 0.97980  0.71740  0.79140  Biso   1.000  H
  H16      1.0000 0.02020  0.71740  0.70860  Biso   1.000  H
  N1       1.0000 0.37017  0.31070  0.47876  Biso   1.000  N
  N2       1.0000 0.62983  0.31070  0.02124  Biso   1.000  N
  N3       1.0000 0.87017  0.81070  0.47876  Biso   1.000  N
  N4       1.0000 0.12983  0.81070  0.02124  Biso   1.000  N
  N5       1.0000 0.62983  0.68930  0.52124  Biso   1.000  N
  N6       1.0000 0.37017  0.68930  0.97876  Biso   1.000  N
  N7       1.0000 0.12983  0.18930  0.52124  Biso   1.000  N
  N8       1.0000 0.87017  0.18930  0.97876  Biso   1.000  N
  N9       1.0000 0.42775  0.38140  0.34915  Biso   1.000  N
  N10      1.0000 0.57225  0.38140  0.15085  Biso   1.000  N
  N11      1.0000 0.92775  0.88140  0.34915  Biso   1.000  N
  N12      1.0000 0.07225  0.88140  0.15085  Biso   1.000  N
  N13      1.0000 0.57225  0.61860  0.65085  Biso   1.000  N
  N14      1.0000 0.42775  0.61860  0.84915  Biso   1.000  N
  N15      1.0000 0.07225  0.11860  0.65085  Biso   1.000  N
  N16      1.0000 0.92775  0.11860  0.84915  Biso   1.000  N
  N17      1.0000 0.35640  0.42390  0.32096  Biso   1.000  N
  N18      1.0000 0.64360  0.42390  0.17904  Biso   1.000  N
  N19      1.0000 0.85640  0.92390  0.32096  Biso   1.000  N
  N20      1.0000 0.14360  0.92390  0.17904  Biso   1.000  N
  N21      1.0000 0.64360  0.57610  0.67904  Biso   1.000  N
  N22      1.0000 0.35640  0.57610  0.82096  Biso   1.000  N
  N23      1.0000 0.14360  0.07610  0.67904  Biso   1.000  N
  N24      1.0000 0.85640  0.07610  0.82096  Biso   1.000  N
  N25      1.0000 0.35105  0.25520  0.57632  Biso   1.000  N
  N26      1.0000 0.64895  0.25520  0.92368  Biso   1.000  N
  N27      1.0000 0.85105  0.75520  0.57632  Biso   1.000  N
  N28      1.0000 0.14895  0.75520  0.92368  Biso   1.000  N
  N29      1.0000 0.64895  0.74480  0.42368  Biso   1.000  N
  N30      1.0000 0.35105  0.74480  0.07632  Biso   1.000  N
  N31      1.0000 0.14895  0.24480  0.42368  Biso   1.000  N
  N32      1.0000 0.85105  0.24480  0.07632  Biso   1.000  N
  H17      1.0000 0.37310  0.14940  0.59410  Biso   1.000  H
  H18      1.0000 0.62690  0.14940  0.90590  Biso   1.000  H
  H19      1.0000 0.87310  0.64940  0.59410  Biso   1.000  H
  H20      1.0000 0.12690  0.64940  0.90590  Biso   1.000  H
  H21      1.0000 0.62690  0.85060  0.40590  Biso   1.000  H
  H22      1.0000 0.37310  0.85060  0.09410  Biso   1.000  H
  H23      1.0000 0.12690  0.35060  0.40590  Biso   1.000  H
  H24      1.0000 0.87310  0.35060  0.09410  Biso   1.000  H
  H25      1.0000 0.36430  0.34550  0.62150  Biso   1.000  H
  H26      1.0000 0.63570  0.34550  0.87850  Biso   1.000  H
  H27      1.0000 0.86430  0.84550  0.62150  Biso   1.000  H
  H28      1.0000 0.13570  0.84550  0.87850  Biso   1.000  H
  H29      1.0000 0.63570  0.65450  0.37850  Biso   1.000  H
  H30      1.0000 0.36430  0.65450  0.12150  Biso   1.000  H
  H31      1.0000 0.13570  0.15450  0.37850  Biso   1.000  H
  H32      1.0000 0.86430  0.15450  0.12150  Biso   1.000  H
  C1       1.0000 0.43437  0.31550  0.44404  Biso   1.000  C
  C2       1.0000 0.56563  0.31550  0.05596  Biso   1.000  C
  C3       1.0000 0.93437  0.81550  0.44404  Biso   1.000  C
  C4       1.0000 0.06563  0.81550  0.05596  Biso   1.000  C
  C5       1.0000 0.56563  0.68450  0.55596  Biso   1.000  C
  C6       1.0000 0.43437  0.68450  0.94404  Biso   1.000  C
  C7       1.0000 0.06563  0.18450  0.55596  Biso   1.000  C
  C8       1.0000 0.93437  0.18450  0.94404  Biso   1.000  C
  H33      1.0000 0.47680  0.27790  0.48150  Biso   1.000  H
  H34      1.0000 0.52320  0.27790  0.01850  Biso   1.000  H
  H35      1.0000 0.97680  0.77790  0.48150  Biso   1.000  H
  H36      1.0000 0.02320  0.77790  0.01850  Biso   1.000  H
  H37      1.0000 0.52320  0.72210  0.51850  Biso   1.000  H
  H38      1.0000 0.47680  0.72210  0.98150  Biso   1.000  H
  H39      1.0000 0.02320  0.22210  0.51850  Biso   1.000  H
  H40      1.0000 0.97680  0.22210  0.98150  Biso   1.000  H
  C9       1.0000 0.32392  0.37790  0.40048  Biso   1.000  C
  C10      1.0000 0.67608  0.37790  0.09952  Biso   1.000  C
  C11      1.0000 0.82392  0.87790  0.40048  Biso   1.000  C
  C12      1.0000 0.17608  0.87790  0.09952  Biso   1.000  C
  C13      1.0000 0.67608  0.62210  0.59952  Biso   1.000  C
  C14      1.0000 0.32392  0.62210  0.90048  Biso   1.000  C
  C15      1.0000 0.17608  0.12210  0.59952  Biso   1.000  C
  C16      1.0000 0.82392  0.12210  0.90048  Biso   1.000  C
  H41      1.0000 0.27520  0.38970  0.40310  Biso   1.000  H
  H42      1.0000 0.72480  0.38970  0.09690  Biso   1.000  H
  H43      1.0000 0.77520  0.88970  0.40310  Biso   1.000  H
  H44      1.0000 0.22480  0.88970  0.09690  Biso   1.000  H
  H45      1.0000 0.72480  0.61030  0.59690  Biso   1.000  H
  H46      1.0000 0.27520  0.61030  0.90310  Biso   1.000  H
  H47      1.0000 0.22480  0.11030  0.59690  Biso   1.000  H
  H48      1.0000 0.77520  0.11030  0.90310  Biso   1.000  H
  C17      1.0000 0.67978  0.24610  0.44987  Biso   1.000  C
  C18      1.0000 0.32022  0.24610  0.05013  Biso   1.000  C
  C19      1.0000 0.17978  0.74610  0.44987  Biso   1.000  C
  C20      1.0000 0.82022  0.74610  0.05013  Biso   1.000  C
  C21      1.0000 0.32022  0.75390  0.55013  Biso   1.000  C
  C22      1.0000 0.67978  0.75390  0.94987  Biso   1.000  C
  C23      1.0000 0.82022  0.25390  0.55013  Biso   1.000  C
  C24      1.0000 0.17978  0.25390  0.94987  Biso   1.000  C
  C25      1.0000 0.69517  0.18070  0.55200  Biso   1.000  C
  C26      1.0000 0.30483  0.18070  0.94800  Biso   1.000  C
  C27      1.0000 0.19517  0.68070  0.55200  Biso   1.000  C
  C28      1.0000 0.80483  0.68070  0.94800  Biso   1.000  C
  C29      1.0000 0.30483  0.81930  0.44800  Biso   1.000  C
  C30      1.0000 0.69517  0.81930  0.05200  Biso   1.000  C
  C31      1.0000 0.80483  0.31930  0.44800  Biso   1.000  C
  C32      1.0000 0.19517  0.31930  0.05200  Biso   1.000  C
  C33      1.0000 0.73490  0.31580  0.39994  Biso   1.000  C
  C34      1.0000 0.26510  0.31580  0.10006  Biso   1.000  C
  C35      1.0000 0.23490  0.81580  0.39994  Biso   1.000  C
  C36      1.0000 0.76510  0.81580  0.10006  Biso   1.000  C
  C37      1.0000 0.26510  0.68420  0.60006  Biso   1.000  C
  C38      1.0000 0.73490  0.68420  0.89994  Biso   1.000  C
  C39      1.0000 0.76510  0.18420  0.60006  Biso   1.000  C
  C40      1.0000 0.23490  0.18420  0.89994  Biso   1.000  C
  H49      1.0000 0.72490  0.36140  0.33260  Biso   1.000  H
  H50      1.0000 0.27510  0.36140  0.16740  Biso   1.000  H
  H51      1.0000 0.22490  0.86140  0.33260  Biso   1.000  H
  H52      1.0000 0.77510  0.86140  0.16740  Biso   1.000  H
  H53      1.0000 0.27510  0.63860  0.66740  Biso   1.000  H
  H54      1.0000 0.72490  0.63860  0.83260  Biso   1.000  H
  H55      1.0000 0.77510  0.13860  0.66740  Biso   1.000  H
  H56      1.0000 0.22490  0.13860  0.83260  Biso   1.000  H
  C41      1.0000 0.60723  0.23980  0.38555  Biso   1.000  C
  C42      1.0000 0.39277  0.23980  0.11445  Biso   1.000  C
  C43      1.0000 0.10723  0.73980  0.38555  Biso   1.000  C
  C44      1.0000 0.89277  0.73980  0.11445  Biso   1.000  C
  C45      1.0000 0.39277  0.76020  0.61445  Biso   1.000  C
  C46      1.0000 0.60723  0.76020  0.88555  Biso   1.000  C
  C47      1.0000 0.89277  0.26020  0.61445  Biso   1.000  C
  C48      1.0000 0.10723  0.26020  0.88555  Biso   1.000  C
  C49      1.0000 0.63763  0.11730  0.61311  Biso   1.000  C
  C50      1.0000 0.36237  0.11730  0.88689  Biso   1.000  C
  C51      1.0000 0.13763  0.61730  0.61311  Biso   1.000  C
  C52      1.0000 0.86237  0.61730  0.88689  Biso   1.000  C
  C53      1.0000 0.36237  0.88270  0.38689  Biso   1.000  C
  C54      1.0000 0.63763  0.88270  0.11311  Biso   1.000  C
  C55      1.0000 0.86237  0.38270  0.38689  Biso   1.000  C
  C56      1.0000 0.13763  0.38270  0.11311  Biso   1.000  C
