data_image0
_cell_length_a       7.067
_cell_length_b       7.563
_cell_length_c       9.867
_cell_angle_alpha    69.266
_cell_angle_beta     88.868
_cell_angle_gamma    75.042

_symmetry_space_group_name_H-M    "P 1"
_symmetry_int_tables_number       1

loop_
  _symmetry_equiv_pos_as_xyz
  'x, y, z'

loop_
  _atom_site_label
  _atom_site_occupancy
  _atom_site_fract_x
  _atom_site_fract_y
  _atom_site_fract_z
  _atom_site_thermal_displace_type
  _atom_site_B_iso_or_equiv
  _atom_site_type_symbol
  Cu1      1.0000 0.00000  0.50000  0.00000  Biso   1.000  Cu
  O1       1.0000 0.22130  0.35050  0.15703  Biso   1.000  O
  O2       1.0000 0.77870  0.64950  0.84297  Biso   1.000  O
  O3       1.0000 0.24910  0.04490  0.16780  Biso   1.000  O
  O4       1.0000 0.75090  0.95510  0.83220  Biso   1.000  O
  O5       1.0000 0.66710  0.09050  0.13233  Biso   1.000  O
  O6       1.0000 0.33290  0.90950  0.86767  Biso   1.000  O
  O7       1.0000 0.86810  0.81610  0.28561  Biso   1.000  O
  O8       1.0000 0.13190  0.18390  0.71439  Biso   1.000  O
  H1       1.0000 0.92270  0.81650  0.21140  Biso   1.000  H
  H2       1.0000 0.07730  0.18350  0.78860  Biso   1.000  H
  O9       1.0000 0.02840  0.78740  0.04500  Biso   1.000  O
  O10      1.0000 0.97160  0.21260  0.95500  Biso   1.000  O
  H3       1.0000 0.93700  0.87190  0.98340  Biso   1.000  H
  H4       1.0000 0.06300  0.12810  0.01660  Biso   1.000  H
  H5       1.0000 0.13410  0.79840  0.00440  Biso   1.000  H
  H6       1.0000 0.86590  0.20160  0.99560  Biso   1.000  H
  N1       1.0000 0.80770  0.47710  0.14858  Biso   1.000  N
  N2       1.0000 0.19230  0.52290  0.85142  Biso   1.000  N
  N3       1.0000 0.85630  0.36510  0.29440  Biso   1.000  N
  N4       1.0000 0.14370  0.63490  0.70560  Biso   1.000  N
  N5       1.0000 0.54940  0.53520  0.26346  Biso   1.000  N
  N6       1.0000 0.45060  0.46480  0.73654  Biso   1.000  N
  N7       1.0000 0.35750  0.60530  0.29970  Biso   1.000  N
  N8       1.0000 0.64250  0.39470  0.70030  Biso   1.000  N
  H7       1.0000 0.31730  0.73720  0.26250  Biso   1.000  H
  H8       1.0000 0.68270  0.26280  0.73750  Biso   1.000  H
  H9       1.0000 0.27640  0.54880  0.27080  Biso   1.000  H
  H10      1.0000 0.72360  0.45120  0.72920  Biso   1.000  H
  C1       1.0000 0.40230  0.08630  0.36070  Biso   1.000  C
  C2       1.0000 0.59770  0.91370  0.63930  Biso   1.000  C
  C3       1.0000 0.60040  0.97760  0.38100  Biso   1.000  C
  C4       1.0000 0.39960  0.02240  0.61900  Biso   1.000  C
  C5       1.0000 0.30510  0.10840  0.47940  Biso   1.000  C
  C6       1.0000 0.69490  0.89160  0.52060  Biso   1.000  C
  H11      1.0000 0.17460  0.18190  0.46580  Biso   1.000  H
  H12      1.0000 0.82540  0.81810  0.53420  Biso   1.000  H
  C7       1.0000 0.28310  0.16600  0.21560  Biso   1.000  C
  C8       1.0000 0.71690  0.83400  0.78440  Biso   1.000  C
  C9       1.0000 0.71270  0.96790  0.25350  Biso   1.000  C
  C10      1.0000 0.28730  0.03210  0.74650  Biso   1.000  C
  C11      1.0000 0.69840  0.40460  0.35970  Biso   1.000  C
  C12      1.0000 0.30160  0.59540  0.64030  Biso   1.000  C
  H13      1.0000 0.68910  0.35020  0.45930  Biso   1.000  H
  H14      1.0000 0.31090  0.64980  0.54070  Biso   1.000  H
  C13      1.0000 0.62270  0.57630  0.13320  Biso   1.000  C
  C14      1.0000 0.37730  0.42370  0.86680  Biso   1.000  C
  H15      1.0000 0.55320  0.66200  0.04550  Biso   1.000  H
  H16      1.0000 0.44680  0.33800  0.95450  Biso   1.000  H
