data_image0
_cell_length_a       15.7236
_cell_length_b       9.7063
_cell_length_c       9.8112
_cell_angle_alpha    90
_cell_angle_beta     90
_cell_angle_gamma    90

_symmetry_space_group_name_H-M    "P 1"
_symmetry_int_tables_number       1

loop_
  _symmetry_equiv_pos_as_xyz
  'x, y, z'

loop_
  _atom_site_label
  _atom_site_occupancy
  _atom_site_fract_x
  _atom_site_fract_y
  _atom_site_fract_z
  _atom_site_thermal_displace_type
  _atom_site_B_iso_or_equiv
  _atom_site_type_symbol
  O1       1.0000 0.45762  0.72200  0.16230  Biso   1.000  O
  O2       1.0000 0.54238  0.27800  0.66230  Biso   1.000  O
  O3       1.0000 0.95762  0.77800  0.16230  Biso   1.000  O
  O4       1.0000 0.04238  0.22200  0.66230  Biso   1.000  O
  O5       1.0000 0.10710  0.75690  0.70130  Biso   1.000  O
  O6       1.0000 0.89290  0.24310  0.20130  Biso   1.000  O
  O7       1.0000 0.60710  0.74310  0.70130  Biso   1.000  O
  O8       1.0000 0.39290  0.25690  0.20130  Biso   1.000  O
  Cr1      1.0000 0.49776  0.86712  0.07241  Biso   1.000  Cr
  Cr2      1.0000 0.50224  0.13288  0.57241  Biso   1.000  Cr
  Cr3      1.0000 0.99776  0.63288  0.07241  Biso   1.000  Cr
  Cr4      1.0000 0.00224  0.36712  0.57241  Biso   1.000  Cr
  C1       1.0000 0.19130  0.61290  0.44320  Biso   1.000  C
  C2       1.0000 0.80870  0.38710  0.94320  Biso   1.000  C
  C3       1.0000 0.69130  0.88710  0.44320  Biso   1.000  C
  C4       1.0000 0.30870  0.11290  0.94320  Biso   1.000  C
  H1       1.0000 0.15090  0.68550  0.43930  Biso   1.000  H
  H2       1.0000 0.84910  0.31450  0.93930  Biso   1.000  H
  H3       1.0000 0.65090  0.81450  0.43930  Biso   1.000  H
  H4       1.0000 0.34910  0.18550  0.93930  Biso   1.000  H
  C5       1.0000 0.19150  0.51540  0.34220  Biso   1.000  C
  C6       1.0000 0.80850  0.48460  0.84220  Biso   1.000  C
  C7       1.0000 0.69150  0.98460  0.34220  Biso   1.000  C
  C8       1.0000 0.30850  0.01540  0.84220  Biso   1.000  C
  H5       1.0000 0.15220  0.52300  0.26890  Biso   1.000  H
  H6       1.0000 0.84780  0.47700  0.76890  Biso   1.000  H
  H7       1.0000 0.65220  0.97700  0.26890  Biso   1.000  H
  H8       1.0000 0.34780  0.02300  0.76890  Biso   1.000  H
  C9       1.0000 0.30150  0.40140  0.44960  Biso   1.000  C
  C10      1.0000 0.69850  0.59860  0.94960  Biso   1.000  C
  C11      1.0000 0.80150  0.09860  0.44960  Biso   1.000  C
  C12      1.0000 0.19850  0.90140  0.94960  Biso   1.000  C
  H9       1.0000 0.34040  0.32670  0.45550  Biso   1.000  H
  H10      1.0000 0.65960  0.67330  0.95550  Biso   1.000  H
  H11      1.0000 0.84040  0.17330  0.45550  Biso   1.000  H
  H12      1.0000 0.15960  0.82670  0.95550  Biso   1.000  H
  C13      1.0000 0.30160  0.50430  0.54990  Biso   1.000  C
  C14      1.0000 0.69840  0.49570  0.04990  Biso   1.000  C
  C15      1.0000 0.80160  0.99570  0.54990  Biso   1.000  C
  C16      1.0000 0.19840  0.00430  0.04990  Biso   1.000  C
  H13      1.0000 0.34200  0.49950  0.62180  Biso   1.000  H
  H14      1.0000 0.65800  0.50050  0.12180  Biso   1.000  H
  H15      1.0000 0.84200  0.00050  0.62180  Biso   1.000  H
  H16      1.0000 0.15800  0.99950  0.12180  Biso   1.000  H
  C17      1.0000 0.31180  0.61030  0.94590  Biso   1.000  C
  C18      1.0000 0.68820  0.38970  0.44590  Biso   1.000  C
  C19      1.0000 0.81180  0.88970  0.94590  Biso   1.000  C
  C20      1.0000 0.18820  0.11030  0.44590  Biso   1.000  C
  H17      1.0000 0.35310  0.68150  0.94900  Biso   1.000  H
  H18      1.0000 0.64690  0.31850  0.44900  Biso   1.000  H
  H19      1.0000 0.85310  0.81850  0.94900  Biso   1.000  H
  H20      1.0000 0.14690  0.18150  0.44900  Biso   1.000  H
  C21      1.0000 0.31100  0.50890  0.04730  Biso   1.000  C
  C22      1.0000 0.68900  0.49110  0.54730  Biso   1.000  C
  C23      1.0000 0.81100  0.99110  0.04730  Biso   1.000  C
  C24      1.0000 0.18900  0.00890  0.54730  Biso   1.000  C
  H21      1.0000 0.35210  0.51280  0.11810  Biso   1.000  H
  H22      1.0000 0.64790  0.48720  0.61810  Biso   1.000  H
  H23      1.0000 0.85210  0.98720  0.11810  Biso   1.000  H
  H24      1.0000 0.14790  0.01280  0.61810  Biso   1.000  H
  C25      1.0000 0.19820  0.40580  0.94430  Biso   1.000  C
  C26      1.0000 0.80180  0.59420  0.44430  Biso   1.000  C
  C27      1.0000 0.69820  0.09420  0.94430  Biso   1.000  C
  C28      1.0000 0.30180  0.90580  0.44430  Biso   1.000  C
  H25      1.0000 0.15720  0.33410  0.94060  Biso   1.000  H
  H26      1.0000 0.84280  0.66590  0.44060  Biso   1.000  H
  H27      1.0000 0.65720  0.16590  0.94060  Biso   1.000  H
  H28      1.0000 0.34280  0.83410  0.44060  Biso   1.000  H
  C29      1.0000 0.19790  0.50440  0.84370  Biso   1.000  C
  C30      1.0000 0.80210  0.49560  0.34370  Biso   1.000  C
  C31      1.0000 0.69790  0.99560  0.84370  Biso   1.000  C
  C32      1.0000 0.30210  0.00440  0.34370  Biso   1.000  C
  H29      1.0000 0.15690  0.49910  0.77280  Biso   1.000  H
  H30      1.0000 0.84310  0.50090  0.27280  Biso   1.000  H
  H31      1.0000 0.65690  0.00090  0.77280  Biso   1.000  H
  H32      1.0000 0.34310  0.99910  0.27280  Biso   1.000  H
  Cr5      1.0000 0.50002  0.63968  0.31068  Biso   1.000  Cr
  Cr6      1.0000 0.49998  0.36032  0.81068  Biso   1.000  Cr
  Cr7      1.0000 0.00002  0.86032  0.31068  Biso   1.000  Cr
  Cr8      1.0000 0.99998  0.13968  0.81068  Biso   1.000  Cr
  Cu1      1.0000 0.25032  0.75844  0.69584  Biso   1.000  Cu
  Cu2      1.0000 0.74968  0.24156  0.19584  Biso   1.000  Cu
  Cu3      1.0000 0.75032  0.74156  0.69584  Biso   1.000  Cu
  Cu4      1.0000 0.24968  0.25844  0.19584  Biso   1.000  Cu
  N1       1.0000 0.24620  0.60910  0.54700  Biso   1.000  N
  N2       1.0000 0.75380  0.39090  0.04700  Biso   1.000  N
  N3       1.0000 0.74620  0.89090  0.54700  Biso   1.000  N
  N4       1.0000 0.25380  0.10910  0.04700  Biso   1.000  N
  N5       1.0000 0.24640  0.40870  0.34510  Biso   1.000  N
  N6       1.0000 0.75360  0.59130  0.84510  Biso   1.000  N
  N7       1.0000 0.74640  0.09130  0.34510  Biso   1.000  N
  N8       1.0000 0.25360  0.90870  0.84510  Biso   1.000  N
  N9       1.0000 0.25420  0.60760  0.84390  Biso   1.000  N
  N10      1.0000 0.74580  0.39240  0.34390  Biso   1.000  N
  N11      1.0000 0.75420  0.89240  0.84390  Biso   1.000  N
  N12      1.0000 0.24580  0.10760  0.34390  Biso   1.000  N
  N13      1.0000 0.25420  0.40700  0.04750  Biso   1.000  N
  N14      1.0000 0.74580  0.59300  0.54750  Biso   1.000  N
  N15      1.0000 0.75420  0.09300  0.04750  Biso   1.000  N
  N16      1.0000 0.24580  0.90700  0.54750  Biso   1.000  N
  O9       1.0000 0.39379  0.75030  0.68860  Biso   1.000  O
  O10      1.0000 0.60621  0.24970  0.18860  Biso   1.000  O
  O11      1.0000 0.89379  0.74970  0.68860  Biso   1.000  O
  O12      1.0000 0.10621  0.25030  0.18860  Biso   1.000  O
  H33      1.0000 0.41800  0.80300  0.73700  Biso   1.000  H
  H34      1.0000 0.58200  0.19700  0.23700  Biso   1.000  H
  H35      1.0000 0.91800  0.69700  0.73700  Biso   1.000  H
  H36      1.0000 0.08200  0.30300  0.23700  Biso   1.000  H
  H37      1.0000 0.42500  0.74700  0.62300  Biso   1.000  H
  H38      1.0000 0.57500  0.25300  0.12300  Biso   1.000  H
  H39      1.0000 0.92500  0.75300  0.62300  Biso   1.000  H
  H40      1.0000 0.07500  0.24700  0.12300  Biso   1.000  H
  H41      1.0000 0.07800  0.68200  0.69200  Biso   1.000  H
  H42      1.0000 0.92200  0.31800  0.19200  Biso   1.000  H
  H43      1.0000 0.57800  0.81800  0.69200  Biso   1.000  H
  H44      1.0000 0.42200  0.18200  0.19200  Biso   1.000  H
  H45      1.0000 0.08000  0.81000  0.74200  Biso   1.000  H
  H46      1.0000 0.92000  0.19000  0.24200  Biso   1.000  H
  H47      1.0000 0.58000  0.69000  0.74200  Biso   1.000  H
  H48      1.0000 0.42000  0.31000  0.24200  Biso   1.000  H
  O13      1.0000 0.47580  0.73150  0.44360  Biso   1.000  O
  O14      1.0000 0.52420  0.26850  0.94360  Biso   1.000  O
  O15      1.0000 0.97580  0.76850  0.44360  Biso   1.000  O
  O16      1.0000 0.02420  0.23150  0.94360  Biso   1.000  O
  O17      1.0000 0.45640  0.48930  0.31800  Biso   1.000  O
  O18      1.0000 0.54360  0.51070  0.81800  Biso   1.000  O
  O19      1.0000 0.95640  0.01070  0.31800  Biso   1.000  O
  O20      1.0000 0.04360  0.98930  0.81800  Biso   1.000  O
  O21      1.0000 0.60195  0.62950  0.29850  Biso   1.000  O
  O22      1.0000 0.39805  0.37050  0.79850  Biso   1.000  O
  O23      1.0000 0.10195  0.87050  0.29850  Biso   1.000  O
  O24      1.0000 0.89805  0.12950  0.79850  Biso   1.000  O
  O25      1.0000 0.46480  0.00780  0.14600  Biso   1.000  O
  O26      1.0000 0.53520  0.99220  0.64600  Biso   1.000  O
  O27      1.0000 0.96480  0.49220  0.14600  Biso   1.000  O
  O28      1.0000 0.03520  0.50780  0.64600  Biso   1.000  O
  O29      1.0000 0.60047  0.86220  0.07100  Biso   1.000  O
  O30      1.0000 0.39953  0.13780  0.57100  Biso   1.000  O
  O31      1.0000 0.10047  0.63780  0.07100  Biso   1.000  O
  O32      1.0000 0.89953  0.36220  0.57100  Biso   1.000  O
  O33      1.0000 0.45950  0.85480  0.92020  Biso   1.000  O
  O34      1.0000 0.54050  0.14520  0.42020  Biso   1.000  O
  O35      1.0000 0.95950  0.64520  0.92020  Biso   1.000  O
  O36      1.0000 0.04050  0.35480  0.42020  Biso   1.000  O
