data_image0
_cell_length_a       14.836
_cell_length_b       6.6844
_cell_length_c       4.363
_cell_angle_alpha    90
_cell_angle_beta     93.28
_cell_angle_gamma    90

_symmetry_space_group_name_H-M    "P 1"
_symmetry_int_tables_number       1

loop_
  _symmetry_equiv_pos_as_xyz
  'x, y, z'

loop_
  _atom_site_label
  _atom_site_occupancy
  _atom_site_fract_x
  _atom_site_fract_y
  _atom_site_fract_z
  _atom_site_thermal_displace_type
  _atom_site_B_iso_or_equiv
  _atom_site_type_symbol
  Cu1      1.0000 0.25000  0.25000  0.50000  Biso   1.000  Cu
  Cu2      1.0000 0.75000  0.25000  0.50000  Biso   1.000  Cu
  Cu3      1.0000 0.75000  0.75000  0.50000  Biso   1.000  Cu
  Cu4      1.0000 0.25000  0.75000  0.50000  Biso   1.000  Cu
  P1       1.0000 0.14930  0.00000  0.97170  Biso   1.000  P
  P2       1.0000 0.85070  0.00000  0.02830  Biso   1.000  P
  P3       1.0000 0.64930  0.50000  0.97170  Biso   1.000  P
  P4       1.0000 0.35070  0.50000  0.02830  Biso   1.000  P
  O1       1.0000 0.21740  0.00000  0.25670  Biso   1.000  O
  O2       1.0000 0.78260  0.00000  0.74330  Biso   1.000  O
  O3       1.0000 0.71740  0.50000  0.25670  Biso   1.000  O
  O4       1.0000 0.28260  0.50000  0.74330  Biso   1.000  O
  O5       1.0000 0.15880  0.18970  0.78520  Biso   1.000  O
  O6       1.0000 0.84120  0.18970  0.21480  Biso   1.000  O
  O7       1.0000 0.65880  0.68970  0.78520  Biso   1.000  O
  O8       1.0000 0.34120  0.68970  0.21480  Biso   1.000  O
  O9       1.0000 0.84120  0.81030  0.21480  Biso   1.000  O
  O10      1.0000 0.15880  0.81030  0.78520  Biso   1.000  O
  O11      1.0000 0.34120  0.31030  0.21480  Biso   1.000  O
  O12      1.0000 0.65880  0.31030  0.78520  Biso   1.000  O
  C1       1.0000 0.03870  0.00000  0.12050  Biso   1.000  C
  C2       1.0000 0.96130  0.00000  0.87950  Biso   1.000  C
  C3       1.0000 0.53870  0.50000  0.12050  Biso   1.000  C
  C4       1.0000 0.46130  0.50000  0.87950  Biso   1.000  C
  O13      1.0000 0.35270  0.00000  0.73860  Biso   1.000  O
  O14      1.0000 0.64730  0.00000  0.26140  Biso   1.000  O
  O15      1.0000 0.85270  0.50000  0.73860  Biso   1.000  O
  O16      1.0000 0.14730  0.50000  0.26140  Biso   1.000  O
  H1       1.0000 0.03430  0.12270  0.22800  Biso   1.000  H
  H2       1.0000 0.96570  0.12270  0.77200  Biso   1.000  H
  H3       1.0000 0.53430  0.62270  0.22800  Biso   1.000  H
  H4       1.0000 0.46570  0.62270  0.77200  Biso   1.000  H
  H5       1.0000 0.96570  0.87730  0.77200  Biso   1.000  H
  H6       1.0000 0.03430  0.87730  0.22800  Biso   1.000  H
  H7       1.0000 0.46570  0.37730  0.77200  Biso   1.000  H
  H8       1.0000 0.53430  0.37730  0.22800  Biso   1.000  H
  O17      1.0000 0.47460  0.00000  0.43710  Biso   1.000  O
  O18      1.0000 0.52540  0.00000  0.56290  Biso   1.000  O
  O19      1.0000 0.97460  0.50000  0.43710  Biso   1.000  O
  O20      1.0000 0.02540  0.50000  0.56290  Biso   1.000  O
  O21      1.0000 0.45660  0.00000  0.11550  Biso   1.000  O
  O22      1.0000 0.54340  0.00000  0.88450  Biso   1.000  O
  O23      1.0000 0.95660  0.50000  0.11550  Biso   1.000  O
  O24      1.0000 0.04340  0.50000  0.88450  Biso   1.000  O
