data_image0
_cell_length_a       23.8378
_cell_length_b       7.7832
_cell_length_c       24.6589
_cell_angle_alpha    90
_cell_angle_beta     90
_cell_angle_gamma    90

_symmetry_space_group_name_H-M    "P 1"
_symmetry_int_tables_number       1

loop_
  _symmetry_equiv_pos_as_xyz
  'x, y, z'

loop_
  _atom_site_label
  _atom_site_occupancy
  _atom_site_fract_x
  _atom_site_fract_y
  _atom_site_fract_z
  _atom_site_thermal_displace_type
  _atom_site_B_iso_or_equiv
  _atom_site_type_symbol
  Cu1      1.0000 0.40736  0.86968  0.13966  Biso   1.000  Cu
  Cu2      1.0000 0.09264  0.13032  0.63965  Biso   1.000  Cu
  Cu3      1.0000 0.59264  0.36968  0.36035  Biso   1.000  Cu
  Cu4      1.0000 0.90736  0.63032  0.86034  Biso   1.000  Cu
  Cu5      1.0000 0.59264  0.13032  0.86034  Biso   1.000  Cu
  Cu6      1.0000 0.90736  0.86968  0.36035  Biso   1.000  Cu
  Cu7      1.0000 0.40736  0.63032  0.63965  Biso   1.000  Cu
  Cu8      1.0000 0.09264  0.36968  0.13966  Biso   1.000  Cu
  C1       1.0000 0.40914  0.69570  0.37129  Biso   1.000  C
  C2       1.0000 0.09086  0.30430  0.87129  Biso   1.000  C
  C3       1.0000 0.59086  0.19570  0.12871  Biso   1.000  C
  C4       1.0000 0.90914  0.80430  0.62871  Biso   1.000  C
  C5       1.0000 0.59086  0.30430  0.62871  Biso   1.000  C
  C6       1.0000 0.90914  0.69570  0.12871  Biso   1.000  C
  C7       1.0000 0.40914  0.80430  0.87129  Biso   1.000  C
  C8       1.0000 0.09086  0.19570  0.37129  Biso   1.000  C
  H1       1.0000 0.43110  0.59710  0.37190  Biso   1.000  H
  H2       1.0000 0.06890  0.40290  0.87190  Biso   1.000  H
  H3       1.0000 0.56890  0.09710  0.12810  Biso   1.000  H
  H4       1.0000 0.93110  0.90290  0.62810  Biso   1.000  H
  H5       1.0000 0.56890  0.40290  0.62810  Biso   1.000  H
  H6       1.0000 0.93110  0.59710  0.12810  Biso   1.000  H
  H7       1.0000 0.43110  0.90290  0.87190  Biso   1.000  H
  H8       1.0000 0.06890  0.09710  0.37190  Biso   1.000  H
  C9       1.0000 0.33262  0.85170  0.33110  Biso   1.000  C
  C10      1.0000 0.16738  0.14830  0.83110  Biso   1.000  C
  C11      1.0000 0.66738  0.35170  0.16890  Biso   1.000  C
  C12      1.0000 0.83262  0.64830  0.66890  Biso   1.000  C
  C13      1.0000 0.66738  0.14830  0.66890  Biso   1.000  C
  C14      1.0000 0.83262  0.85170  0.16890  Biso   1.000  C
  C15      1.0000 0.33262  0.64830  0.83110  Biso   1.000  C
  C16      1.0000 0.16738  0.35170  0.33110  Biso   1.000  C
  C17      1.0000 0.30466  0.85950  0.99968  Biso   1.000  C
  C18      1.0000 0.19534  0.14050  0.49968  Biso   1.000  C
  C19      1.0000 0.69534  0.35950  0.50032  Biso   1.000  C
  C20      1.0000 0.80466  0.64050  0.00032  Biso   1.000  C
  C21      1.0000 0.69534  0.14050  0.00032  Biso   1.000  C
  C22      1.0000 0.80466  0.85950  0.50032  Biso   1.000  C
  C23      1.0000 0.30466  0.64050  0.49968  Biso   1.000  C
  C24      1.0000 0.19534  0.35950  0.99968  Biso   1.000  C
  H9       1.0000 0.30900  0.81840  0.96450  Biso   1.000  H
  H10      1.0000 0.19100  0.18160  0.46450  Biso   1.000  H
  H11      1.0000 0.69100  0.31840  0.53550  Biso   1.000  H
  H12      1.0000 0.80900  0.68160  0.03550  Biso   1.000  H
  H13      1.0000 0.69100  0.18160  0.03550  Biso   1.000  H
  H14      1.0000 0.80900  0.81840  0.53550  Biso   1.000  H
  H15      1.0000 0.30900  0.68160  0.46450  Biso   1.000  H
  H16      1.0000 0.19100  0.31840  0.96450  Biso   1.000  H
  C25      1.0000 0.41967  0.82390  0.40732  Biso   1.000  C
  C26      1.0000 0.08033  0.17610  0.90732  Biso   1.000  C
  C27      1.0000 0.58033  0.32390  0.09268  Biso   1.000  C
  C28      1.0000 0.91967  0.67610  0.59268  Biso   1.000  C
  C29      1.0000 0.58033  0.17610  0.59268  Biso   1.000  C
  C30      1.0000 0.91967  0.82390  0.09268  Biso   1.000  C
  C31      1.0000 0.41967  0.67610  0.90732  Biso   1.000  C
  C32      1.0000 0.08033  0.32390  0.40732  Biso   1.000  C
  C33      1.0000 0.46960  0.88530  0.24300  Biso   1.000  C
  C34      1.0000 0.03040  0.11470  0.74300  Biso   1.000  C
  C35      1.0000 0.53040  0.38530  0.25700  Biso   1.000  C
  C36      1.0000 0.96960  0.61470  0.75700  Biso   1.000  C
  C37      1.0000 0.53040  0.11470  0.75700  Biso   1.000  C
  C38      1.0000 0.96960  0.88530  0.25700  Biso   1.000  C
  C39      1.0000 0.46960  0.61470  0.74300  Biso   1.000  C
  C40      1.0000 0.03040  0.38530  0.24300  Biso   1.000  C
  H17      1.0000 0.43520  0.92110  0.25670  Biso   1.000  H
  H18      1.0000 0.06480  0.07890  0.75670  Biso   1.000  H
  H19      1.0000 0.56480  0.42110  0.24330  Biso   1.000  H
  H20      1.0000 0.93520  0.57890  0.74330  Biso   1.000  H
  H21      1.0000 0.56480  0.07890  0.74330  Biso   1.000  H
  H22      1.0000 0.93520  0.92110  0.24330  Biso   1.000  H
  H23      1.0000 0.43520  0.57890  0.75670  Biso   1.000  H
  H24      1.0000 0.06480  0.42110  0.25670  Biso   1.000  H
  C41      1.0000 0.38519  0.97390  0.40736  Biso   1.000  C
  C42      1.0000 0.11481  0.02610  0.90736  Biso   1.000  C
  C43      1.0000 0.61481  0.47390  0.09264  Biso   1.000  C
  C44      1.0000 0.88519  0.52610  0.59264  Biso   1.000  C
  C45      1.0000 0.61481  0.02610  0.59264  Biso   1.000  C
  C46      1.0000 0.88519  0.97390  0.09264  Biso   1.000  C
  C47      1.0000 0.38519  0.52610  0.90736  Biso   1.000  C
  C48      1.0000 0.11481  0.47390  0.40736  Biso   1.000  C
  C49      1.0000 0.34105  0.98720  0.36965  Biso   1.000  C
  C50      1.0000 0.15895  0.01280  0.86965  Biso   1.000  C
  C51      1.0000 0.65895  0.48720  0.13035  Biso   1.000  C
  C52      1.0000 0.84105  0.51280  0.63035  Biso   1.000  C
  C53      1.0000 0.65895  0.01280  0.63035  Biso   1.000  C
  C54      1.0000 0.84105  0.98720  0.13035  Biso   1.000  C
  C55      1.0000 0.34105  0.51280  0.86965  Biso   1.000  C
  C56      1.0000 0.15895  0.48720  0.36965  Biso   1.000  C
  C57      1.0000 0.53262  0.61070  0.41664  Biso   1.000  C
  C58      1.0000 0.96738  0.38930  0.91664  Biso   1.000  C
  C59      1.0000 0.46738  0.11070  0.08336  Biso   1.000  C
  C60      1.0000 0.03262  0.88930  0.58336  Biso   1.000  C
  C61      1.0000 0.46738  0.38930  0.58336  Biso   1.000  C
  C62      1.0000 0.03262  0.61070  0.08336  Biso   1.000  C
  C63      1.0000 0.53262  0.88930  0.91664  Biso   1.000  C
  C64      1.0000 0.96738  0.11070  0.41664  Biso   1.000  C
  C65      1.0000 0.39450  0.10910  0.44473  Biso   1.000  C
  C66      1.0000 0.10550  0.89090  0.94473  Biso   1.000  C
  C67      1.0000 0.60550  0.60910  0.05527  Biso   1.000  C
  C68      1.0000 0.89450  0.39090  0.55527  Biso   1.000  C
  C69      1.0000 0.60550  0.89090  0.55527  Biso   1.000  C
  C70      1.0000 0.89450  0.10910  0.05527  Biso   1.000  C
  C71      1.0000 0.39450  0.39090  0.94473  Biso   1.000  C
  C72      1.0000 0.10550  0.60910  0.44473  Biso   1.000  C
  H25      1.0000 0.42320  0.10030  0.47010  Biso   1.000  H
  H26      1.0000 0.07680  0.89970  0.97010  Biso   1.000  H
  H27      1.0000 0.57680  0.60030  0.02990  Biso   1.000  H
  H28      1.0000 0.92320  0.39970  0.52990  Biso   1.000  H
  H29      1.0000 0.57680  0.89970  0.52990  Biso   1.000  H
  H30      1.0000 0.92320  0.10030  0.02990  Biso   1.000  H
  H31      1.0000 0.42320  0.39970  0.97010  Biso   1.000  H
  H32      1.0000 0.07680  0.60030  0.47010  Biso   1.000  H
  C73      1.0000 0.30719  0.13670  0.37067  Biso   1.000  C
  C74      1.0000 0.19281  0.86330  0.87067  Biso   1.000  C
  C75      1.0000 0.69281  0.63670  0.12933  Biso   1.000  C
  C76      1.0000 0.80719  0.36330  0.62933  Biso   1.000  C
  C77      1.0000 0.69281  0.86330  0.62933  Biso   1.000  C
  C78      1.0000 0.80719  0.13670  0.12933  Biso   1.000  C
  C79      1.0000 0.30719  0.36330  0.87067  Biso   1.000  C
  C80      1.0000 0.19281  0.63670  0.37067  Biso   1.000  C
  H33      1.0000 0.27730  0.14670  0.34670  Biso   1.000  H
  H34      1.0000 0.22270  0.85330  0.84670  Biso   1.000  H
  H35      1.0000 0.72270  0.64670  0.15330  Biso   1.000  H
  H36      1.0000 0.77730  0.35330  0.65330  Biso   1.000  H
  H37      1.0000 0.72270  0.85330  0.65330  Biso   1.000  H
  H38      1.0000 0.77730  0.14670  0.15330  Biso   1.000  H
  H39      1.0000 0.27730  0.35330  0.84670  Biso   1.000  H
  H40      1.0000 0.22270  0.64670  0.34670  Biso   1.000  H
  C81      1.0000 0.34685  0.84260  0.03701  Biso   1.000  C
  C82      1.0000 0.15315  0.15740  0.53701  Biso   1.000  C
  C83      1.0000 0.65315  0.34260  0.46299  Biso   1.000  C
  C84      1.0000 0.84685  0.65740  0.96299  Biso   1.000  C
  C85      1.0000 0.65315  0.15740  0.96299  Biso   1.000  C
  C86      1.0000 0.84685  0.84260  0.46299  Biso   1.000  C
  C87      1.0000 0.34685  0.65740  0.53701  Biso   1.000  C
  C88      1.0000 0.15315  0.34260  0.03701  Biso   1.000  C
  H41      1.0000 0.37980  0.78830  0.02640  Biso   1.000  H
  H42      1.0000 0.12020  0.21170  0.52640  Biso   1.000  H
  H43      1.0000 0.62020  0.28830  0.47360  Biso   1.000  H
  H44      1.0000 0.87980  0.71170  0.97360  Biso   1.000  H
  H45      1.0000 0.62020  0.21170  0.97360  Biso   1.000  H
  H46      1.0000 0.87980  0.78830  0.47360  Biso   1.000  H
  H47      1.0000 0.37980  0.71170  0.52640  Biso   1.000  H
  H48      1.0000 0.12020  0.28830  0.02640  Biso   1.000  H
  C89      1.0000 0.51406  0.87880  0.27765  Biso   1.000  C
  C90      1.0000 0.98594  0.12120  0.77765  Biso   1.000  C
  C91      1.0000 0.48594  0.37880  0.22235  Biso   1.000  C
  C92      1.0000 0.01406  0.62120  0.72235  Biso   1.000  C
  C93      1.0000 0.48594  0.12120  0.72235  Biso   1.000  C
  C94      1.0000 0.01406  0.87880  0.22235  Biso   1.000  C
  C95      1.0000 0.51406  0.62120  0.77765  Biso   1.000  C
  C96      1.0000 0.98594  0.37880  0.27765  Biso   1.000  C
  H49      1.0000 0.50980  0.90930  0.31390  Biso   1.000  H
  H50      1.0000 0.99020  0.09070  0.81390  Biso   1.000  H
  H51      1.0000 0.49020  0.40930  0.18610  Biso   1.000  H
  H52      1.0000 0.00980  0.59070  0.68610  Biso   1.000  H
  H53      1.0000 0.49020  0.09070  0.68610  Biso   1.000  H
  H54      1.0000 0.00980  0.90930  0.18610  Biso   1.000  H
  H55      1.0000 0.50980  0.59070  0.81390  Biso   1.000  H
  H56      1.0000 0.99020  0.40930  0.31390  Biso   1.000  H
  C97      1.0000 0.48782  0.66640  0.45711  Biso   1.000  C
  C98      1.0000 0.01218  0.33360  0.95711  Biso   1.000  C
  C99      1.0000 0.51218  0.16640  0.04289  Biso   1.000  C
  C100     1.0000 0.98782  0.83360  0.54289  Biso   1.000  C
  C101     1.0000 0.51218  0.33360  0.54289  Biso   1.000  C
  C102     1.0000 0.98782  0.66640  0.04289  Biso   1.000  C
  C103     1.0000 0.48782  0.83360  0.95711  Biso   1.000  C
  C104     1.0000 0.01218  0.16640  0.45711  Biso   1.000  C
  H57      1.0000 0.45910  0.57830  0.45860  Biso   1.000  H
  H58      1.0000 0.04090  0.42170  0.95860  Biso   1.000  H
  H59      1.0000 0.54090  0.07830  0.04140  Biso   1.000  H
  H60      1.0000 0.95910  0.92170  0.54140  Biso   1.000  H
  H61      1.0000 0.54090  0.42170  0.54140  Biso   1.000  H
  H62      1.0000 0.95910  0.57830  0.04140  Biso   1.000  H
  H63      1.0000 0.45910  0.92170  0.95860  Biso   1.000  H
  H64      1.0000 0.04090  0.07830  0.45860  Biso   1.000  H
  H65      1.0000 0.50480  0.67370  0.49280  Biso   1.000  H
  H66      1.0000 0.99520  0.32630  0.99280  Biso   1.000  H
  H67      1.0000 0.49520  0.17370  0.00720  Biso   1.000  H
  H68      1.0000 0.00480  0.82630  0.50720  Biso   1.000  H
  H69      1.0000 0.49520  0.32630  0.50720  Biso   1.000  H
  H70      1.0000 0.00480  0.67370  0.00720  Biso   1.000  H
  H71      1.0000 0.50480  0.82630  0.99280  Biso   1.000  H
  H72      1.0000 0.99520  0.17370  0.49280  Biso   1.000  H
  C105     1.0000 0.32320  0.73120  0.20989  Biso   1.000  C
  C106     1.0000 0.17680  0.26880  0.70989  Biso   1.000  C
  C107     1.0000 0.67680  0.23120  0.29011  Biso   1.000  C
  C108     1.0000 0.82320  0.76880  0.79011  Biso   1.000  C
  C109     1.0000 0.67680  0.26880  0.79011  Biso   1.000  C
  C110     1.0000 0.82320  0.73120  0.29011  Biso   1.000  C
  C111     1.0000 0.32320  0.76880  0.70989  Biso   1.000  C
  C112     1.0000 0.17680  0.23120  0.20989  Biso   1.000  C
  C113     1.0000 0.36561  0.70970  0.33318  Biso   1.000  C
  C114     1.0000 0.13439  0.29030  0.83318  Biso   1.000  C
  C115     1.0000 0.63439  0.20970  0.16682  Biso   1.000  C
  C116     1.0000 0.86561  0.79030  0.66682  Biso   1.000  C
  C117     1.0000 0.63439  0.29030  0.66682  Biso   1.000  C
  C118     1.0000 0.86561  0.70970  0.16682  Biso   1.000  C
  C119     1.0000 0.36561  0.79030  0.83318  Biso   1.000  C
  C120     1.0000 0.13439  0.20970  0.33318  Biso   1.000  C
  H73      1.0000 0.35930  0.62020  0.30900  Biso   1.000  H
  H74      1.0000 0.14070  0.37980  0.80900  Biso   1.000  H
  H75      1.0000 0.64070  0.12020  0.19100  Biso   1.000  H
  H76      1.0000 0.85930  0.87980  0.69100  Biso   1.000  H
  H77      1.0000 0.64070  0.37980  0.69100  Biso   1.000  H
  H78      1.0000 0.85930  0.62020  0.19100  Biso   1.000  H
  H79      1.0000 0.35930  0.87980  0.80900  Biso   1.000  H
  H80      1.0000 0.14070  0.12020  0.30900  Biso   1.000  H
  C121     1.0000 0.29509  0.97790  0.10212  Biso   1.000  C
  C122     1.0000 0.20491  0.02210  0.60212  Biso   1.000  C
  C123     1.0000 0.70491  0.47790  0.39788  Biso   1.000  C
  C124     1.0000 0.79509  0.52210  0.89788  Biso   1.000  C
  C125     1.0000 0.70491  0.02210  0.89788  Biso   1.000  C
  C126     1.0000 0.79509  0.97790  0.39788  Biso   1.000  C
  C127     1.0000 0.29509  0.52210  0.60212  Biso   1.000  C
  C128     1.0000 0.20491  0.47790  0.10212  Biso   1.000  C
  H81      1.0000 0.29170  0.02030  0.13720  Biso   1.000  H
  H82      1.0000 0.20830  0.97970  0.63720  Biso   1.000  H
  H83      1.0000 0.70830  0.52030  0.36280  Biso   1.000  H
  H84      1.0000 0.79170  0.47970  0.86280  Biso   1.000  H
  H85      1.0000 0.70830  0.97970  0.86280  Biso   1.000  H
  H86      1.0000 0.79170  0.02030  0.36280  Biso   1.000  H
  H87      1.0000 0.29170  0.47970  0.63720  Biso   1.000  H
  H88      1.0000 0.20830  0.52030  0.13720  Biso   1.000  H
  C129     1.0000 0.31793  0.26610  0.40639  Biso   1.000  C
  C130     1.0000 0.18207  0.73390  0.90639  Biso   1.000  C
  C131     1.0000 0.68207  0.76610  0.09361  Biso   1.000  C
  C132     1.0000 0.81793  0.23390  0.59361  Biso   1.000  C
  C133     1.0000 0.68207  0.73390  0.59361  Biso   1.000  C
  C134     1.0000 0.81793  0.26610  0.09361  Biso   1.000  C
  C135     1.0000 0.31793  0.23390  0.90639  Biso   1.000  C
  C136     1.0000 0.18207  0.76610  0.40639  Biso   1.000  C
  H89      1.0000 0.29590  0.36470  0.40580  Biso   1.000  H
  H90      1.0000 0.20410  0.63530  0.90580  Biso   1.000  H
  H91      1.0000 0.70410  0.86470  0.09420  Biso   1.000  H
  H92      1.0000 0.79590  0.13530  0.59420  Biso   1.000  H
  H93      1.0000 0.70410  0.63530  0.59420  Biso   1.000  H
  H94      1.0000 0.79590  0.36470  0.09420  Biso   1.000  H
  H95      1.0000 0.29590  0.13530  0.90580  Biso   1.000  H
  H96      1.0000 0.20410  0.86470  0.40580  Biso   1.000  H
  C137     1.0000 0.27989  0.75170  0.25457  Biso   1.000  C
  C138     1.0000 0.22011  0.24830  0.75457  Biso   1.000  C
  C139     1.0000 0.72011  0.25170  0.24543  Biso   1.000  C
  C140     1.0000 0.77989  0.74830  0.74543  Biso   1.000  C
  C141     1.0000 0.72011  0.24830  0.74543  Biso   1.000  C
  C142     1.0000 0.77989  0.75170  0.24543  Biso   1.000  C
  C143     1.0000 0.27989  0.74830  0.75457  Biso   1.000  C
  C144     1.0000 0.22011  0.25170  0.25457  Biso   1.000  C
  H97      1.0000 0.24400  0.77680  0.23780  Biso   1.000  H
  H98      1.0000 0.25600  0.22320  0.73780  Biso   1.000  H
  H99      1.0000 0.75600  0.27680  0.26220  Biso   1.000  H
  H100     1.0000 0.74400  0.72320  0.76220  Biso   1.000  H
  H101     1.0000 0.75600  0.22320  0.76220  Biso   1.000  H
  H102     1.0000 0.74400  0.77680  0.26220  Biso   1.000  H
  H103     1.0000 0.24400  0.72320  0.73780  Biso   1.000  H
  H104     1.0000 0.25600  0.27680  0.23780  Biso   1.000  H
  H105     1.0000 0.27620  0.64230  0.27310  Biso   1.000  H
  H106     1.0000 0.22380  0.35770  0.77310  Biso   1.000  H
  H107     1.0000 0.72380  0.14230  0.22690  Biso   1.000  H
  H108     1.0000 0.77620  0.85770  0.72690  Biso   1.000  H
  H109     1.0000 0.72380  0.35770  0.72690  Biso   1.000  H
  H110     1.0000 0.77620  0.64230  0.22690  Biso   1.000  H
  H111     1.0000 0.27620  0.85770  0.77310  Biso   1.000  H
  H112     1.0000 0.22380  0.14230  0.27310  Biso   1.000  H
  C145     1.0000 0.36136  0.25270  0.44366  Biso   1.000  C
  C146     1.0000 0.13864  0.74730  0.94366  Biso   1.000  C
  C147     1.0000 0.63864  0.75270  0.05634  Biso   1.000  C
  C148     1.0000 0.86136  0.24730  0.55634  Biso   1.000  C
  C149     1.0000 0.63864  0.74730  0.55634  Biso   1.000  C
  C150     1.0000 0.86136  0.25270  0.05634  Biso   1.000  C
  C151     1.0000 0.36136  0.24730  0.94366  Biso   1.000  C
  C152     1.0000 0.13864  0.75270  0.44366  Biso   1.000  C
  H113     1.0000 0.36800  0.34160  0.46800  Biso   1.000  H
  H114     1.0000 0.13200  0.65840  0.96800  Biso   1.000  H
  H115     1.0000 0.63200  0.84160  0.03200  Biso   1.000  H
  H116     1.0000 0.86800  0.15840  0.53200  Biso   1.000  H
  H117     1.0000 0.63200  0.65840  0.53200  Biso   1.000  H
  H118     1.0000 0.86800  0.34160  0.03200  Biso   1.000  H
  H119     1.0000 0.36800  0.15840  0.96800  Biso   1.000  H
  H120     1.0000 0.13200  0.84160  0.46800  Biso   1.000  H
  C153     1.0000 0.56527  0.82640  0.25816  Biso   1.000  C
  C154     1.0000 0.93473  0.17360  0.75816  Biso   1.000  C
  C155     1.0000 0.43473  0.32640  0.24184  Biso   1.000  C
  C156     1.0000 0.06527  0.67360  0.74184  Biso   1.000  C
  C157     1.0000 0.43473  0.17360  0.74184  Biso   1.000  C
  C158     1.0000 0.06527  0.82640  0.24184  Biso   1.000  C
  C159     1.0000 0.56527  0.67360  0.75816  Biso   1.000  C
  C160     1.0000 0.93473  0.32640  0.25816  Biso   1.000  C
  H121     1.0000 0.59650  0.82100  0.28070  Biso   1.000  H
  H122     1.0000 0.90350  0.17900  0.78070  Biso   1.000  H
  H123     1.0000 0.40350  0.32100  0.21930  Biso   1.000  H
  H124     1.0000 0.09650  0.67900  0.71930  Biso   1.000  H
  H125     1.0000 0.40350  0.17900  0.71930  Biso   1.000  H
  H126     1.0000 0.09650  0.82100  0.21930  Biso   1.000  H
  H127     1.0000 0.59650  0.67900  0.78070  Biso   1.000  H
  H128     1.0000 0.90350  0.32100  0.28070  Biso   1.000  H
  C161     1.0000 0.56905  0.78210  0.20438  Biso   1.000  C
  C162     1.0000 0.93095  0.21790  0.70438  Biso   1.000  C
  C163     1.0000 0.43095  0.28210  0.29562  Biso   1.000  C
  C164     1.0000 0.06905  0.71790  0.79562  Biso   1.000  C
  C165     1.0000 0.43095  0.21790  0.79562  Biso   1.000  C
  C166     1.0000 0.06905  0.78210  0.29562  Biso   1.000  C
  C167     1.0000 0.56905  0.71790  0.70438  Biso   1.000  C
  C168     1.0000 0.93095  0.28210  0.20438  Biso   1.000  C
  H129     1.0000 0.60310  0.74630  0.18990  Biso   1.000  H
  H130     1.0000 0.89690  0.25370  0.68990  Biso   1.000  H
  H131     1.0000 0.39690  0.24630  0.31010  Biso   1.000  H
  H132     1.0000 0.10310  0.75370  0.81010  Biso   1.000  H
  H133     1.0000 0.39690  0.25370  0.81010  Biso   1.000  H
  H134     1.0000 0.10310  0.74630  0.31010  Biso   1.000  H
  H135     1.0000 0.60310  0.75370  0.68990  Biso   1.000  H
  H136     1.0000 0.89690  0.24630  0.18990  Biso   1.000  H
  C169     1.0000 0.25552  0.93920  0.01555  Biso   1.000  C
  C170     1.0000 0.24448  0.06080  0.51555  Biso   1.000  C
  C171     1.0000 0.74448  0.43920  0.48445  Biso   1.000  C
  C172     1.0000 0.75552  0.56080  0.98445  Biso   1.000  C
  C173     1.0000 0.74448  0.06080  0.98445  Biso   1.000  C
  C174     1.0000 0.75552  0.93920  0.48445  Biso   1.000  C
  C175     1.0000 0.25552  0.56080  0.51555  Biso   1.000  C
  C176     1.0000 0.24448  0.43920  0.01555  Biso   1.000  C
  H137     1.0000 0.22610  0.95250  0.99110  Biso   1.000  H
  H138     1.0000 0.27390  0.04750  0.49110  Biso   1.000  H
  H139     1.0000 0.77390  0.45250  0.50890  Biso   1.000  H
  H140     1.0000 0.72610  0.54750  0.00890  Biso   1.000  H
  H141     1.0000 0.77390  0.04750  0.00890  Biso   1.000  H
  H142     1.0000 0.72610  0.95250  0.50890  Biso   1.000  H
  H143     1.0000 0.22610  0.54750  0.49110  Biso   1.000  H
  H144     1.0000 0.27390  0.45250  0.99110  Biso   1.000  H
  C177     1.0000 0.52242  0.79080  0.17220  Biso   1.000  C
  C178     1.0000 0.97758  0.20920  0.67220  Biso   1.000  C
  C179     1.0000 0.47758  0.29080  0.32780  Biso   1.000  C
  C180     1.0000 0.02242  0.70920  0.82780  Biso   1.000  C
  C181     1.0000 0.47758  0.20920  0.82780  Biso   1.000  C
  C182     1.0000 0.02242  0.79080  0.32780  Biso   1.000  C
  C183     1.0000 0.52242  0.70920  0.67220  Biso   1.000  C
  C184     1.0000 0.97758  0.29080  0.17220  Biso   1.000  C
  H145     1.0000 0.52560  0.75890  0.13600  Biso   1.000  H
  H146     1.0000 0.97440  0.24110  0.63600  Biso   1.000  H
  H147     1.0000 0.47440  0.25890  0.36400  Biso   1.000  H
  H148     1.0000 0.02560  0.74110  0.86400  Biso   1.000  H
  H149     1.0000 0.47440  0.24110  0.86400  Biso   1.000  H
  H150     1.0000 0.02560  0.75890  0.36400  Biso   1.000  H
  H151     1.0000 0.52560  0.74110  0.63600  Biso   1.000  H
  H152     1.0000 0.97440  0.25890  0.13600  Biso   1.000  H
  C185     1.0000 0.25071  0.99780  0.06729  Biso   1.000  C
  C186     1.0000 0.24929  0.00220  0.56729  Biso   1.000  C
  C187     1.0000 0.74929  0.49780  0.43271  Biso   1.000  C
  C188     1.0000 0.75071  0.50220  0.93271  Biso   1.000  C
  C189     1.0000 0.74929  0.00220  0.93271  Biso   1.000  C
  C190     1.0000 0.75071  0.99780  0.43271  Biso   1.000  C
  C191     1.0000 0.25071  0.50220  0.56729  Biso   1.000  C
  C192     1.0000 0.24929  0.49780  0.06729  Biso   1.000  C
  H153     1.0000 0.21780  0.05060  0.07890  Biso   1.000  H
  H154     1.0000 0.28220  0.94940  0.57890  Biso   1.000  H
  H155     1.0000 0.78220  0.55060  0.42110  Biso   1.000  H
  H156     1.0000 0.71780  0.44940  0.92110  Biso   1.000  H
  H157     1.0000 0.78220  0.94940  0.92110  Biso   1.000  H
  H158     1.0000 0.71780  0.05060  0.42110  Biso   1.000  H
  H159     1.0000 0.21780  0.44940  0.57890  Biso   1.000  H
  H160     1.0000 0.28220  0.55060  0.07890  Biso   1.000  H
  O1       1.0000 0.35562  0.85540  0.20106  Biso   1.000  O
  O2       1.0000 0.14438  0.14460  0.70106  Biso   1.000  O
  O3       1.0000 0.64438  0.35540  0.29894  Biso   1.000  O
  O4       1.0000 0.85562  0.64460  0.79894  Biso   1.000  O
  O5       1.0000 0.64438  0.14460  0.79894  Biso   1.000  O
  O6       1.0000 0.85562  0.85540  0.29894  Biso   1.000  O
  O7       1.0000 0.35562  0.64460  0.70106  Biso   1.000  O
  O8       1.0000 0.14438  0.35540  0.20106  Biso   1.000  O
  O9       1.0000 0.29082  0.88110  0.29437  Biso   1.000  O
  O10      1.0000 0.20918  0.11890  0.79437  Biso   1.000  O
  O11      1.0000 0.70918  0.38110  0.20563  Biso   1.000  O
  O12      1.0000 0.79082  0.61890  0.70563  Biso   1.000  O
  O13      1.0000 0.70918  0.11890  0.70563  Biso   1.000  O
  O14      1.0000 0.79082  0.88110  0.20563  Biso   1.000  O
  O15      1.0000 0.29082  0.61890  0.79437  Biso   1.000  O
  O16      1.0000 0.20918  0.38110  0.29437  Biso   1.000  O
  O17      1.0000 0.54057  0.44840  0.41644  Biso   1.000  O
  O18      1.0000 0.95943  0.55160  0.91644  Biso   1.000  O
  O19      1.0000 0.45943  0.94840  0.08356  Biso   1.000  O
  O20      1.0000 0.04057  0.05160  0.58356  Biso   1.000  O
  O21      1.0000 0.45943  0.55160  0.58356  Biso   1.000  O
  O22      1.0000 0.04057  0.44840  0.08356  Biso   1.000  O
  O23      1.0000 0.54057  0.05160  0.91644  Biso   1.000  O
  O24      1.0000 0.95943  0.94840  0.41644  Biso   1.000  O
  O25      1.0000 0.46184  0.82610  0.44512  Biso   1.000  O
  O26      1.0000 0.03816  0.17390  0.94512  Biso   1.000  O
  O27      1.0000 0.53816  0.32610  0.05488  Biso   1.000  O
  O28      1.0000 0.96184  0.67390  0.55488  Biso   1.000  O
  O29      1.0000 0.53816  0.17390  0.55488  Biso   1.000  O
  O30      1.0000 0.96184  0.82610  0.05488  Biso   1.000  O
  O31      1.0000 0.46184  0.67390  0.94512  Biso   1.000  O
  O32      1.0000 0.03816  0.32610  0.44512  Biso   1.000  O
  O33      1.0000 0.55764  0.71520  0.38854  Biso   1.000  O
  O34      1.0000 0.94236  0.28480  0.88854  Biso   1.000  O
  O35      1.0000 0.44236  0.21520  0.11146  Biso   1.000  O
  O36      1.0000 0.05764  0.78480  0.61146  Biso   1.000  O
  O37      1.0000 0.44236  0.28480  0.61146  Biso   1.000  O
  O38      1.0000 0.05764  0.71520  0.11146  Biso   1.000  O
  O39      1.0000 0.55764  0.78480  0.88854  Biso   1.000  O
  O40      1.0000 0.94236  0.21520  0.38854  Biso   1.000  O
  O41      1.0000 0.32107  0.59430  0.18483  Biso   1.000  O
  O42      1.0000 0.17893  0.40570  0.68483  Biso   1.000  O
  O43      1.0000 0.67893  0.09430  0.31517  Biso   1.000  O
  O44      1.0000 0.82107  0.90570  0.81517  Biso   1.000  O
  O45      1.0000 0.67893  0.40570  0.81517  Biso   1.000  O
  O46      1.0000 0.82107  0.59430  0.31517  Biso   1.000  O
  O47      1.0000 0.32107  0.90570  0.68483  Biso   1.000  O
  O48      1.0000 0.17893  0.09430  0.18483  Biso   1.000  O
  N1       1.0000 0.34310  0.90030  0.08801  Biso   1.000  N
  N2       1.0000 0.15690  0.09970  0.58801  Biso   1.000  N
  N3       1.0000 0.65690  0.40030  0.41199  Biso   1.000  N
  N4       1.0000 0.84310  0.59970  0.91199  Biso   1.000  N
  N5       1.0000 0.65690  0.09970  0.91199  Biso   1.000  N
  N6       1.0000 0.84310  0.90030  0.41199  Biso   1.000  N
  N7       1.0000 0.34310  0.59970  0.58801  Biso   1.000  N
  N8       1.0000 0.15690  0.40030  0.08801  Biso   1.000  N
  N9       1.0000 0.47255  0.84320  0.19057  Biso   1.000  N
  N10      1.0000 0.02745  0.15680  0.69057  Biso   1.000  N
  N11      1.0000 0.52745  0.34320  0.30943  Biso   1.000  N
  N12      1.0000 0.97255  0.65680  0.80943  Biso   1.000  N
  N13      1.0000 0.52745  0.15680  0.80943  Biso   1.000  N
  N14      1.0000 0.97255  0.84320  0.30943  Biso   1.000  N
  N15      1.0000 0.47255  0.65680  0.69057  Biso   1.000  N
  N16      1.0000 0.02745  0.34320  0.19057  Biso   1.000  N
  O49      1.0000 0.40746  0.57050  0.11095  Biso   1.000  O
  O50      1.0000 0.09254  0.42950  0.61095  Biso   1.000  O
  O51      1.0000 0.59254  0.07050  0.38905  Biso   1.000  O
  O52      1.0000 0.90746  0.92950  0.88905  Biso   1.000  O
  O53      1.0000 0.59254  0.42950  0.88905  Biso   1.000  O
  O54      1.0000 0.90746  0.57050  0.38905  Biso   1.000  O
  O55      1.0000 0.40746  0.92950  0.61095  Biso   1.000  O
  O56      1.0000 0.09254  0.07050  0.11095  Biso   1.000  O
  H161     1.0000 0.42330  0.50100  0.10010  Biso   1.000  H
  H162     1.0000 0.07670  0.49900  0.60010  Biso   1.000  H
  H163     1.0000 0.57670  0.00100  0.39990  Biso   1.000  H
  H164     1.0000 0.92330  0.99900  0.89990  Biso   1.000  H
  H165     1.0000 0.57670  0.49900  0.89990  Biso   1.000  H
  H166     1.0000 0.92330  0.50100  0.39990  Biso   1.000  H
  H167     1.0000 0.42330  0.99900  0.60010  Biso   1.000  H
  H168     1.0000 0.07670  0.00100  0.10010  Biso   1.000  H
  H169     1.0000 0.37600  0.55400  0.13700  Biso   1.000  H
  H170     1.0000 0.12400  0.44600  0.63700  Biso   1.000  H
  H171     1.0000 0.62400  0.05400  0.36300  Biso   1.000  H
  H172     1.0000 0.87600  0.94600  0.86300  Biso   1.000  H
  H173     1.0000 0.62400  0.44600  0.86300  Biso   1.000  H
  H174     1.0000 0.87600  0.55400  0.36300  Biso   1.000  H
  H175     1.0000 0.37600  0.94600  0.63700  Biso   1.000  H
  H176     1.0000 0.12400  0.05400  0.13700  Biso   1.000  H
