data_image0
_cell_length_a       7.6997
_cell_length_b       7.9179
_cell_length_c       19.6581
_cell_angle_alpha    90
_cell_angle_beta     90
_cell_angle_gamma    90

_symmetry_space_group_name_H-M    "P 1"
_symmetry_int_tables_number       1

loop_
  _symmetry_equiv_pos_as_xyz
  'x, y, z'

loop_
  _atom_site_label
  _atom_site_occupancy
  _atom_site_fract_x
  _atom_site_fract_y
  _atom_site_fract_z
  _atom_site_thermal_displace_type
  _atom_site_B_iso_or_equiv
  _atom_site_type_symbol
  C1       1.0000 0.40800  0.65240  0.86188  Biso   1.000  C
  C2       1.0000 0.90800  0.84760  0.13812  Biso   1.000  C
  C3       1.0000 0.59200  0.15240  0.63812  Biso   1.000  C
  C4       1.0000 0.09200  0.34760  0.36188  Biso   1.000  C
  C5       1.0000 0.57300  0.62520  0.83607  Biso   1.000  C
  C6       1.0000 0.07300  0.87480  0.16393  Biso   1.000  C
  C7       1.0000 0.42700  0.12520  0.66393  Biso   1.000  C
  C8       1.0000 0.92700  0.37480  0.33607  Biso   1.000  C
  H1       1.0000 0.62300  0.51560  0.83690  Biso   1.000  H
  H2       1.0000 0.12300  0.98440  0.16310  Biso   1.000  H
  H3       1.0000 0.37700  0.01560  0.66310  Biso   1.000  H
  H4       1.0000 0.87700  0.48440  0.33690  Biso   1.000  H
  C9       1.0000 0.66390  0.76030  0.80899  Biso   1.000  C
  C10      1.0000 0.16390  0.73970  0.19101  Biso   1.000  C
  C11      1.0000 0.33610  0.26030  0.69101  Biso   1.000  C
  C12      1.0000 0.83610  0.23970  0.30899  Biso   1.000  C
  H5       1.0000 0.77740  0.74450  0.79110  Biso   1.000  H
  H6       1.0000 0.27740  0.75550  0.20890  Biso   1.000  H
  H7       1.0000 0.22260  0.24450  0.70890  Biso   1.000  H
  H8       1.0000 0.72260  0.25550  0.29110  Biso   1.000  H
  C13      1.0000 0.58810  0.91780  0.80833  Biso   1.000  C
  C14      1.0000 0.08810  0.58220  0.19167  Biso   1.000  C
  C15      1.0000 0.41190  0.41780  0.69167  Biso   1.000  C
  C16      1.0000 0.91190  0.08220  0.30833  Biso   1.000  C
  H9       1.0000 0.64790  0.01160  0.78940  Biso   1.000  H
  H10      1.0000 0.14790  0.48840  0.21060  Biso   1.000  H
  H11      1.0000 0.35210  0.51160  0.71060  Biso   1.000  H
  H12      1.0000 0.85210  0.98840  0.28940  Biso   1.000  H
  C17      1.0000 0.42390  0.93780  0.83558  Biso   1.000  C
  C18      1.0000 0.92390  0.56220  0.16442  Biso   1.000  C
  C19      1.0000 0.57610  0.43780  0.66442  Biso   1.000  C
  C20      1.0000 0.07610  0.06220  0.33558  Biso   1.000  C
  H13      1.0000 0.37180  0.04650  0.83530  Biso   1.000  H
  H14      1.0000 0.87180  0.45350  0.16470  Biso   1.000  H
  H15      1.0000 0.62820  0.54650  0.66470  Biso   1.000  H
  H16      1.0000 0.12820  0.95350  0.33530  Biso   1.000  H
  C21      1.0000 0.29490  0.51450  0.88969  Biso   1.000  C
  C22      1.0000 0.79490  0.98550  0.11031  Biso   1.000  C
  C23      1.0000 0.70510  0.01450  0.61031  Biso   1.000  C
  C24      1.0000 0.20510  0.48550  0.38969  Biso   1.000  C
  H17      1.0000 0.23120  0.45900  0.85210  Biso   1.000  H
  H18      1.0000 0.73120  0.04100  0.14790  Biso   1.000  H
  H19      1.0000 0.76880  0.95900  0.64790  Biso   1.000  H
  H20      1.0000 0.26880  0.54100  0.35210  Biso   1.000  H
  H21      1.0000 0.36770  0.42830  0.91250  Biso   1.000  H
  H22      1.0000 0.86770  0.07170  0.08750  Biso   1.000  H
  H23      1.0000 0.63230  0.92830  0.58750  Biso   1.000  H
  H24      1.0000 0.13230  0.57170  0.41250  Biso   1.000  H
  C25      1.0000 0.01160  0.48680  0.95091  Biso   1.000  C
  C26      1.0000 0.51160  0.01320  0.04909  Biso   1.000  C
  C27      1.0000 0.98840  0.98680  0.54909  Biso   1.000  C
  C28      1.0000 0.48840  0.51320  0.45091  Biso   1.000  C
  H25      1.0000 0.97700  0.43470  0.90660  Biso   1.000  H
  H26      1.0000 0.47700  0.06530  0.09340  Biso   1.000  H
  H27      1.0000 0.02300  0.93470  0.59340  Biso   1.000  H
  H28      1.0000 0.52300  0.56530  0.40660  Biso   1.000  H
  C29      1.0000 0.03990  0.34340  0.00138  Biso   1.000  C
  C30      1.0000 0.53990  0.15660  0.99862  Biso   1.000  C
  C31      1.0000 0.96010  0.84340  0.49862  Biso   1.000  C
  C32      1.0000 0.46010  0.65660  0.50138  Biso   1.000  C
  H29      1.0000 0.12070  0.26080  0.98190  Biso   1.000  H
  H30      1.0000 0.62070  0.23920  0.01810  Biso   1.000  H
  H31      1.0000 0.87930  0.76080  0.51810  Biso   1.000  H
  H32      1.0000 0.37930  0.73920  0.48190  Biso   1.000  H
  H33      1.0000 0.92860  0.28830  0.01100  Biso   1.000  H
  H34      1.0000 0.42860  0.21170  0.98900  Biso   1.000  H
  H35      1.0000 0.07140  0.78830  0.48900  Biso   1.000  H
  H36      1.0000 0.57140  0.71170  0.51100  Biso   1.000  H
  H37      1.0000 0.08850  0.38880  0.04370  Biso   1.000  H
  H38      1.0000 0.58850  0.11120  0.95630  Biso   1.000  H
  H39      1.0000 0.91150  0.88880  0.45630  Biso   1.000  H
  H40      1.0000 0.41150  0.61120  0.54370  Biso   1.000  H
  C33      1.0000 0.86620  0.60770  0.97198  Biso   1.000  C
  C34      1.0000 0.36620  0.89230  0.02802  Biso   1.000  C
  C35      1.0000 0.13380  0.10770  0.52802  Biso   1.000  C
  C36      1.0000 0.63380  0.39230  0.47198  Biso   1.000  C
  C37      1.0000 0.97480  0.13180  0.83210  Biso   1.000  C
  C38      1.0000 0.47480  0.36820  0.16790  Biso   1.000  C
  C39      1.0000 0.02520  0.63180  0.66790  Biso   1.000  C
  C40      1.0000 0.52520  0.86820  0.33210  Biso   1.000  C
  Cu1      1.0000 0.10704  0.82117  0.91125  Biso   1.000  Cu
  Cu2      1.0000 0.60704  0.67883  0.08875  Biso   1.000  Cu
  Cu3      1.0000 0.89296  0.32117  0.58875  Biso   1.000  Cu
  Cu4      1.0000 0.39296  0.17883  0.41125  Biso   1.000  Cu
  N1       1.0000 0.33620  0.80760  0.86238  Biso   1.000  N
  N2       1.0000 0.83620  0.69240  0.13762  Biso   1.000  N
  N3       1.0000 0.66380  0.30760  0.63762  Biso   1.000  N
  N4       1.0000 0.16380  0.19240  0.36238  Biso   1.000  N
  N5       1.0000 0.17110  0.58660  0.93853  Biso   1.000  N
  N6       1.0000 0.67110  0.91340  0.06147  Biso   1.000  N
  N7       1.0000 0.82890  0.08660  0.56147  Biso   1.000  N
  N8       1.0000 0.32890  0.41340  0.43853  Biso   1.000  N
  N9       1.0000 0.02460  0.02700  0.86874  Biso   1.000  N
  N10      1.0000 0.52460  0.47300  0.13126  Biso   1.000  N
  N11      1.0000 0.97540  0.52700  0.63126  Biso   1.000  N
  N12      1.0000 0.47540  0.97300  0.36874  Biso   1.000  N
  O1       1.0000 0.73670  0.55000  0.00051  Biso   1.000  O
  O2       1.0000 0.23670  0.95000  0.99949  Biso   1.000  O
  O3       1.0000 0.26330  0.05000  0.49949  Biso   1.000  O
  O4       1.0000 0.76330  0.45000  0.50051  Biso   1.000  O
  O5       1.0000 0.88700  0.76480  0.95667  Biso   1.000  O
  O6       1.0000 0.38700  0.73520  0.04333  Biso   1.000  O
  O7       1.0000 0.11300  0.26480  0.54333  Biso   1.000  O
  O8       1.0000 0.61300  0.23520  0.45667  Biso   1.000  O
  S1       1.0000 0.90519  0.27925  0.78088  Biso   1.000  S
  S2       1.0000 0.40519  0.22075  0.21912  Biso   1.000  S
  S3       1.0000 0.09481  0.77925  0.71912  Biso   1.000  S
  S4       1.0000 0.59481  0.72075  0.28088  Biso   1.000  S
  H41      1.0000 0.22300  0.60700  0.97770  Biso   1.000  H
  H42      1.0000 0.72300  0.89300  0.02230  Biso   1.000  H
  H43      1.0000 0.77700  0.10700  0.52230  Biso   1.000  H
  H44      1.0000 0.27700  0.39300  0.47770  Biso   1.000  H
