data_image0
_cell_length_a       11.8032
_cell_length_b       12.7939
_cell_length_c       18.4057
_cell_angle_alpha    88.192
_cell_angle_beta     89.672
_cell_angle_gamma    64.551

_symmetry_space_group_name_H-M    "P 1"
_symmetry_int_tables_number       1

loop_
  _symmetry_equiv_pos_as_xyz
  'x, y, z'

loop_
  _atom_site_label
  _atom_site_occupancy
  _atom_site_fract_x
  _atom_site_fract_y
  _atom_site_fract_z
  _atom_site_thermal_displace_type
  _atom_site_B_iso_or_equiv
  _atom_site_type_symbol
  Cu1      1.0000 0.18022  0.33268  0.71869  Biso   1.000  Cu
  Cu2      1.0000 0.81978  0.66732  0.28131  Biso   1.000  Cu
  Mo1      1.0000 0.48227  0.63953  0.82704  Biso   1.000  Mo
  Mo2      1.0000 0.51773  0.36047  0.17296  Biso   1.000  Mo
  Mo3      1.0000 0.25002  0.77407  0.96079  Biso   1.000  Mo
  Mo4      1.0000 0.74998  0.22593  0.03921  Biso   1.000  Mo
  Mo5      1.0000 0.19550  0.52333  0.96537  Biso   1.000  Mo
  Mo6      1.0000 0.80450  0.47667  0.03463  Biso   1.000  Mo
  Mo7      1.0000 0.43936  0.38147  0.84054  Biso   1.000  Mo
  Mo8      1.0000 0.56064  0.61853  0.15946  Biso   1.000  Mo
  Mo9      1.0000 0.55857  0.75036  0.98556  Biso   1.000  Mo
  Mo10     1.0000 0.44143  0.24964  0.01444  Biso   1.000  Mo
  Mo11     1.0000 0.25845  0.62786  0.12863  Biso   1.000  Mo
  Mo12     1.0000 0.74155  0.37214  0.87137  Biso   1.000  Mo
  P1       1.0000 0.50000  0.50000  0.00000  Biso   1.000  P
  O1       1.0000 0.46870  0.51890  0.08230  Biso   1.000  O
  O2       1.0000 0.53130  0.48110  0.91770  Biso   1.000  O
  O3       1.0000 0.53860  0.38270  0.03860  Biso   1.000  O
  O4       1.0000 0.46140  0.61730  0.96140  Biso   1.000  O
  O5       1.0000 0.36190  0.57430  0.00930  Biso   1.000  O
  O6       1.0000 0.63810  0.42570  0.99070  Biso   1.000  O
  O7       1.0000 0.57620  0.56140  0.03100  Biso   1.000  O
  O8       1.0000 0.42380  0.43860  0.96900  Biso   1.000  O
  O9       1.0000 0.45870  0.26490  0.90850  Biso   1.000  O
  O10      1.0000 0.54130  0.73510  0.09150  Biso   1.000  O
  O11      1.0000 0.47870  0.70630  0.74860  Biso   1.000  O
  O12      1.0000 0.52130  0.29370  0.25140  Biso   1.000  O
  O13      1.0000 0.58020  0.86870  0.98160  Biso   1.000  O
  O14      1.0000 0.41980  0.13130  0.01840  Biso   1.000  O
  O15      1.0000 0.71970  0.63370  0.99670  Biso   1.000  O
  O16      1.0000 0.28030  0.36630  0.00330  Biso   1.000  O
  O17      1.0000 0.17370  0.67470  0.94150  Biso   1.000  O
  O18      1.0000 0.82630  0.32530  0.05850  Biso   1.000  O
  O19      1.0000 0.13210  0.90260  0.94330  Biso   1.000  O
  O20      1.0000 0.86790  0.09740  0.05670  Biso   1.000  O
  O21      1.0000 0.34960  0.48060  0.17430  Biso   1.000  O
  O22      1.0000 0.65040  0.51940  0.82570  Biso   1.000  O
  O23      1.0000 0.42440  0.53340  0.80380  Biso   1.000  O
  O24      1.0000 0.57560  0.46660  0.19620  Biso   1.000  O
  O25      1.0000 0.38960  0.66660  0.16650  Biso   1.000  O
  O26      1.0000 0.61040  0.33340  0.83350  Biso   1.000  O
  O27      1.0000 0.05480  0.53690  0.94650  Biso   1.000  O
  O28      1.0000 0.94520  0.46310  0.05350  Biso   1.000  O
  O29      1.0000 0.55220  0.72000  0.88870  Biso   1.000  O
  O30      1.0000 0.44780  0.28000  0.11130  Biso   1.000  O
  O31      1.0000 0.37710  0.81660  0.98750  Biso   1.000  O
  O32      1.0000 0.62290  0.18340  0.01250  Biso   1.000  O
  O33      1.0000 0.27650  0.47000  0.87860  Biso   1.000  O
  O34      1.0000 0.72350  0.53000  0.12140  Biso   1.000  O
  O35      1.0000 0.18220  0.56660  0.06650  Biso   1.000  O
  O36      1.0000 0.81780  0.43340  0.93350  Biso   1.000  O
  O37      1.0000 0.32730  0.73610  0.86880  Biso   1.000  O
  O38      1.0000 0.67270  0.26390  0.13120  Biso   1.000  O
  O39      1.0000 0.22450  0.75300  0.06080  Biso   1.000  O
  O40      1.0000 0.77550  0.24700  0.93920  Biso   1.000  O
  O41      1.0000 0.19390  0.39030  0.61780  Biso   1.000  O
  O42      1.0000 0.80610  0.60970  0.38220  Biso   1.000  O
  O43      1.0000 0.14890  0.68890  0.18970  Biso   1.000  O
  O44      1.0000 0.85110  0.31110  0.81030  Biso   1.000  O
  O45      1.0000 0.40090  0.33690  0.76510  Biso   1.000  O
  O46      1.0000 0.59910  0.66310  0.23490  Biso   1.000  O
  N1       1.0000 0.31060  0.17630  0.69630  Biso   1.000  N
  N2       1.0000 0.68940  0.82370  0.30370  Biso   1.000  N
  N3       1.0000 0.17630  0.25310  0.81310  Biso   1.000  N
  N4       1.0000 0.82370  0.74690  0.18690  Biso   1.000  N
  N5       1.0000 0.06690  0.49460  0.74760  Biso   1.000  N
  N6       1.0000 0.93310  0.50540  0.25240  Biso   1.000  N
  N7       1.0000 0.72580  0.05390  0.88060  Biso   1.000  N
  N8       1.0000 0.27420  0.94610  0.11940  Biso   1.000  N
  C1       1.0000 0.10680  0.29800  0.87230  Biso   1.000  C
  C2       1.0000 0.89320  0.70200  0.12770  Biso   1.000  C
  H1       1.0000 0.05230  0.37650  0.87110  Biso   1.000  H
  H2       1.0000 0.94770  0.62350  0.12890  Biso   1.000  H
  C3       1.0000 0.11270  0.23340  0.93430  Biso   1.000  C
  C4       1.0000 0.88730  0.76660  0.06570  Biso   1.000  C
  H3       1.0000 0.06400  0.26770  0.97430  Biso   1.000  H
  H4       1.0000 0.93600  0.73230  0.02570  Biso   1.000  H
  C5       1.0000 0.19120  0.11810  0.93630  Biso   1.000  C
  C6       1.0000 0.80880  0.88190  0.06370  Biso   1.000  C
  H5       1.0000 0.19670  0.07250  0.97770  Biso   1.000  H
  H6       1.0000 0.80330  0.92750  0.02230  Biso   1.000  H
  C7       1.0000 0.26270  0.07000  0.87550  Biso   1.000  C
  C8       1.0000 0.73730  0.93000  0.12450  Biso   1.000  C
  H7       1.0000 0.31460  0.99100  0.87550  Biso   1.000  H
  H8       1.0000 0.68540  0.00900  0.12450  Biso   1.000  H
  C9       1.0000 0.25690  0.13800  0.81600  Biso   1.000  C
  C10      1.0000 0.74310  0.86200  0.18400  Biso   1.000  C
  C11      1.0000 0.33320  0.09750  0.75100  Biso   1.000  C
  C12      1.0000 0.66680  0.90250  0.24900  Biso   1.000  C
  C13      1.0000 0.42550  0.98440  0.74490  Biso   1.000  C
  C14      1.0000 0.57450  0.01560  0.25510  Biso   1.000  C
  H9       1.0000 0.43800  0.92960  0.78220  Biso   1.000  H
  H10      1.0000 0.56200  0.07040  0.21780  Biso   1.000  H
  C15      1.0000 0.49810  0.95450  0.68350  Biso   1.000  C
  C16      1.0000 0.50190  0.04550  0.31650  Biso   1.000  C
  H11      1.0000 0.56110  0.87980  0.67930  Biso   1.000  H
  H12      1.0000 0.43890  0.12020  0.32070  Biso   1.000  H
  C17      1.0000 0.47670  0.03490  0.62900  Biso   1.000  C
  C18      1.0000 0.52330  0.96510  0.37100  Biso   1.000  C
  H13      1.0000 0.52510  0.01610  0.58720  Biso   1.000  H
  H14      1.0000 0.47490  0.98390  0.41280  Biso   1.000  H
  C19      1.0000 0.38220  0.14490  0.63650  Biso   1.000  C
  C20      1.0000 0.61780  0.85510  0.36350  Biso   1.000  C
  H15      1.0000 0.36750  0.19950  0.59880  Biso   1.000  H
  H16      1.0000 0.63250  0.80050  0.40120  Biso   1.000  H
  C21      1.0000 0.94770  0.52790  0.76810  Biso   1.000  C
  C22      1.0000 0.05230  0.47210  0.23190  Biso   1.000  C
  H17      1.0000 0.91210  0.47600  0.76450  Biso   1.000  H
  H18      1.0000 0.08790  0.52400  0.23550  Biso   1.000  H
  C23      1.0000 0.87440  0.63810  0.79460  Biso   1.000  C
  C24      1.0000 0.12560  0.36190  0.20540  Biso   1.000  C
  H19      1.0000 0.79250  0.65790  0.80950  Biso   1.000  H
  H20      1.0000 0.20750  0.34210  0.19050  Biso   1.000  H
  C25      1.0000 0.92600  0.71760  0.79860  Biso   1.000  C
  C26      1.0000 0.07400  0.28240  0.20140  Biso   1.000  C
  C27      1.0000 0.04670  0.68290  0.77450  Biso   1.000  C
  C28      1.0000 0.95330  0.31710  0.22550  Biso   1.000  C
  H21      1.0000 0.08310  0.73450  0.77480  Biso   1.000  H
  H22      1.0000 0.91690  0.26550  0.22520  Biso   1.000  H
  C29      1.0000 0.11480  0.57270  0.75000  Biso   1.000  C
  C30      1.0000 0.88520  0.42730  0.25000  Biso   1.000  C
  H23      1.0000 0.19660  0.55160  0.73460  Biso   1.000  H
  H24      1.0000 0.80340  0.44840  0.26540  Biso   1.000  H
  C31      1.0000 0.66380  0.99330  0.86180  Biso   1.000  C
  C32      1.0000 0.33620  0.00670  0.13820  Biso   1.000  C
  H25      1.0000 0.57690  0.02610  0.86630  Biso   1.000  H
  H26      1.0000 0.42310  0.97390  0.13370  Biso   1.000  H
  C33      1.0000 0.72410  0.88380  0.83600  Biso   1.000  C
  C34      1.0000 0.27590  0.11620  0.16400  Biso   1.000  C
  H27      1.0000 0.67930  0.84220  0.82400  Biso   1.000  H
  H28      1.0000 0.32070  0.15780  0.17600  Biso   1.000  H
  C35      1.0000 0.85390  0.83600  0.82830  Biso   1.000  C
  C36      1.0000 0.14610  0.16400  0.17170  Biso   1.000  C
  C37      1.0000 0.91610  0.90060  0.84790  Biso   1.000  C
  C38      1.0000 0.08390  0.09940  0.15210  Biso   1.000  C
  H29      1.0000 0.00290  0.87030  0.84410  Biso   1.000  H
  H30      1.0000 0.99710  0.12970  0.15590  Biso   1.000  H
  C39      1.0000 0.84970  0.00980  0.87310  Biso   1.000  C
  C40      1.0000 0.15030  0.99020  0.12690  Biso   1.000  C
  H31      1.0000 0.89190  0.05380  0.88520  Biso   1.000  H
  H32      1.0000 0.10810  0.94620  0.11480  Biso   1.000  H
  Mo13     1.0000 0.87032  0.05906  0.32196  Biso   1.000  Mo
  Mo14     1.0000 0.12968  0.94094  0.67804  Biso   1.000  Mo
  Mo15     1.0000 0.98341  0.22925  0.60852  Biso   1.000  Mo
  Mo16     1.0000 0.01659  0.77075  0.39148  Biso   1.000  Mo
  Mo17     1.0000 0.82888  0.28948  0.43662  Biso   1.000  Mo
  Mo18     1.0000 0.17112  0.71052  0.56338  Biso   1.000  Mo
  Mo19     1.0000 0.32758  0.88784  0.52503  Biso   1.000  Mo
  Mo20     1.0000 0.67242  0.11216  0.47497  Biso   1.000  Mo
  Mo21     1.0000 0.16105  0.17033  0.44498  Biso   1.000  Mo
  Mo22     1.0000 0.83895  0.82967  0.55502  Biso   1.000  Mo
  Mo23     1.0000 0.20053  0.92189  0.34707  Biso   1.000  Mo
  Mo24     1.0000 0.79947  0.07811  0.65293  Biso   1.000  Mo
  P2       1.0000 0.00000  0.00000  0.50000  Biso   1.000  P
  O47      1.0000 0.01820  0.95530  0.41980  Biso   1.000  O
  O48      1.0000 0.98180  0.04470  0.58020  Biso   1.000  O
  O49      1.0000 0.00030  0.88000  0.50330  Biso   1.000  O
  O50      1.0000 0.99970  0.12000  0.49670  Biso   1.000  O
  O51      1.0000 0.09130  0.10400  0.66270  Biso   1.000  O
  O52      1.0000 0.90870  0.89600  0.33730  Biso   1.000  O
  O53      1.0000 0.88450  0.08310  0.45470  Biso   1.000  O
  O54      1.0000 0.11550  0.91690  0.54530  Biso   1.000  O
  O55      1.0000 0.11850  0.99700  0.47020  Biso   1.000  O
  O56      1.0000 0.88150  0.00300  0.52980  Biso   1.000  O
  O57      1.0000 0.86280  0.31270  0.53110  Biso   1.000  O
  O58      1.0000 0.13720  0.68730  0.46890  Biso   1.000  O
  O59      1.0000 0.15210  0.80090  0.35380  Biso   1.000  O
  O60      1.0000 0.84790  0.19910  0.64620  Biso   1.000  O
  O61      1.0000 0.10820  0.22190  0.54370  Biso   1.000  O
  O62      1.0000 0.89180  0.77810  0.45630  Biso   1.000  O
  O63      1.0000 0.81010  0.08250  0.23970  Biso   1.000  O
  O64      1.0000 0.18990  0.91750  0.76030  Biso   1.000  O
  O65      1.0000 0.23730  0.24800  0.42280  Biso   1.000  O
  O66      1.0000 0.76270  0.75200  0.57720  Biso   1.000  O
  O67      1.0000 0.00060  0.26400  0.41450  Biso   1.000  O
  O68      1.0000 0.99940  0.73600  0.58550  Biso   1.000  O
  O69      1.0000 0.97500  0.33800  0.65930  Biso   1.000  O
  O70      1.0000 0.02500  0.66200  0.34070  Biso   1.000  O
  O71      1.0000 0.29830  0.74760  0.53650  Biso   1.000  O
  O72      1.0000 0.70170  0.25240  0.46350  Biso   1.000  O
  O73      1.0000 0.29340  0.88660  0.27610  Biso   1.000  O
  O74      1.0000 0.70660  0.11340  0.72390  Biso   1.000  O
  O75      1.0000 0.84690  0.20480  0.34880  Biso   1.000  O
  O76      1.0000 0.15310  0.79520  0.65120  Biso   1.000  O
  O77      1.0000 0.75270  0.42500  0.40460  Biso   1.000  O
  O78      1.0000 0.24730  0.57500  0.59540  Biso   1.000  O
  O79      1.0000 0.27420  0.92020  0.61840  Biso   1.000  O
  O80      1.0000 0.72580  0.07980  0.38160  Biso   1.000  O
  O81      1.0000 0.48180  0.82890  0.53190  Biso   1.000  O
  O82      1.0000 0.51820  0.17110  0.46810  Biso   1.000  O
  O83      1.0000 0.03710  0.01450  0.30300  Biso   1.000  O
  O84      1.0000 0.96290  0.98550  0.69700  Biso   1.000  O
  O85      1.0000 0.29050  0.03920  0.49790  Biso   1.000  O
  O86      1.0000 0.70950  0.96080  0.50210  Biso   1.000  O
  O87      1.0000 0.19260  0.07370  0.36730  Biso   1.000  O
  O88      1.0000 0.80740  0.92630  0.63270  Biso   1.000  O
  O89      1.0000 0.31350  0.86130  0.42190  Biso   1.000  O
  O90      1.0000 0.68650  0.13870  0.57810  Biso   1.000  O
  O91      1.0000 0.00000  0.50000  0.50000  Biso   1.000  O
  N9       1.0000 0.34340  0.52920  0.33310  Biso   1.000  N
  N10      1.0000 0.65660  0.47080  0.66690  Biso   1.000  N
  C41      1.0000 0.46590  0.50650  0.46390  Biso   1.000  C
  C42      1.0000 0.53410  0.49350  0.53610  Biso   1.000  C
  C43      1.0000 0.40340  0.59560  0.34580  Biso   1.000  C
  C44      1.0000 0.59660  0.40440  0.65420  Biso   1.000  C
  H33      1.0000 0.40210  0.64970  0.31040  Biso   1.000  H
  H34      1.0000 0.59790  0.35030  0.68960  Biso   1.000  H
  C45      1.0000 0.34510  0.45370  0.38500  Biso   1.000  C
  C46      1.0000 0.65490  0.54630  0.61500  Biso   1.000  C
  H35      1.0000 0.30570  0.40640  0.37550  Biso   1.000  H
  H36      1.0000 0.69430  0.59360  0.62450  Biso   1.000  H
  C47      1.0000 0.46730  0.58470  0.41080  Biso   1.000  C
  C48      1.0000 0.53270  0.41530  0.58920  Biso   1.000  C
  H37      1.0000 0.51050  0.62950  0.41850  Biso   1.000  H
  H38      1.0000 0.48950  0.37050  0.58150  Biso   1.000  H
  C49      1.0000 0.40050  0.44180  0.45030  Biso   1.000  C
  C50      1.0000 0.59950  0.55820  0.54970  Biso   1.000  C
  H39      1.0000 0.39500  0.39070  0.48570  Biso   1.000  H
  H40      1.0000 0.60500  0.60930  0.51430  Biso   1.000  H
