data_image0
_cell_length_a       13.132
_cell_length_b       14.429
_cell_length_c       14.975
_cell_angle_alpha    91.54
_cell_angle_beta     115.019
_cell_angle_gamma    111.356

_symmetry_space_group_name_H-M    "P 1"
_symmetry_int_tables_number       1

loop_
  _symmetry_equiv_pos_as_xyz
  'x, y, z'

loop_
  _atom_site_label
  _atom_site_occupancy
  _atom_site_fract_x
  _atom_site_fract_y
  _atom_site_fract_z
  _atom_site_thermal_displace_type
  _atom_site_B_iso_or_equiv
  _atom_site_type_symbol
  Si1      1.0000 1.00000  0.50000  0.50000  Biso   1.000  Si
  W1       1.0000 0.06244  0.28250  0.53818  Biso   1.000  W
  W2       1.0000 0.93756  0.71750  0.46182  Biso   1.000  W
  W3       1.0000 0.22755  0.49988  0.73616  Biso   1.000  W
  W4       1.0000 0.77245  0.50012  0.26384  Biso   1.000  W
  W5       1.0000 0.94654  0.49406  0.71178  Biso   1.000  W
  W6       1.0000 0.05346  0.50594  0.28822  Biso   1.000  W
  W7       1.0000 0.28031  0.50398  0.52359  Biso   1.000  W
  W8       1.0000 0.71969  0.49602  0.47641  Biso   1.000  W
  W9       1.0000 0.16465  0.71694  0.69750  Biso   1.000  W
  W10      1.0000 0.83535  0.28306  0.30250  Biso   1.000  W
  W11      1.0000 0.22127  0.72296  0.48704  Biso   1.000  W
  W12      1.0000 0.77873  0.27704  0.51296  Biso   1.000  W
  Cu1      1.0000 0.17980  0.12426  0.17800  Biso   1.000  Cu
  Cu2      1.0000 0.82020  0.87574  0.82200  Biso   1.000  Cu
  Cu3      1.0000 0.50000  0.00000  0.50000  Biso   1.000  Cu
  Cu4      1.0000 0.28740  0.99790  0.87688  Biso   1.000  Cu
  Cu5      1.0000 0.71260  0.00210  0.12312  Biso   1.000  Cu
  Cu6      1.0000 0.00000  0.50000  0.00000  Biso   1.000  Cu
  N1       1.0000 0.21500  0.26760  0.22490  Biso   1.000  N
  N2       1.0000 0.78500  0.73240  0.77510  Biso   1.000  N
  N3       1.0000 0.24800  0.06240  0.75970  Biso   1.000  N
  N4       1.0000 0.75200  0.93760  0.24030  Biso   1.000  N
  O1       1.0000 0.29300  0.74480  0.22420  Biso   1.000  O
  O2       1.0000 0.70700  0.25520  0.77580  Biso   1.000  O
  O3       1.0000 0.10300  0.45710  0.55550  Biso   1.000  O
  O4       1.0000 0.89700  0.54290  0.44450  Biso   1.000  O
  O5       1.0000 0.41310  0.63480  0.35260  Biso   1.000  O
  O6       1.0000 0.58690  0.36520  0.64740  Biso   1.000  O
  O7       1.0000 0.05400  0.62180  0.52710  Biso   1.000  O
  O8       1.0000 0.94600  0.37820  0.47290  Biso   1.000  O
  O9       1.0000 0.91800  0.70900  0.12700  Biso   1.000  O
  O10      1.0000 0.08200  0.29100  0.87300  Biso   1.000  O
  O11      1.0000 0.88900  0.45490  0.53690  Biso   1.000  O
  O12      1.0000 0.11100  0.54510  0.46310  Biso   1.000  O
  O13      1.0000 0.84900  0.15050  0.75750  Biso   1.000  O
  O14      1.0000 0.15100  0.84950  0.24250  Biso   1.000  O
  O15      1.0000 0.95980  0.24700  0.39640  Biso   1.000  O
  O16      1.0000 0.04020  0.75300  0.60360  Biso   1.000  O
  O17      1.0000 0.53000  0.61300  0.24100  Biso   1.000  O
  O18      1.0000 0.47000  0.38700  0.75900  Biso   1.000  O
  O19      1.0000 0.25800  0.63820  0.75700  Biso   1.000  O
  O20      1.0000 0.74200  0.36180  0.24300  Biso   1.000  O
  O21      1.0000 0.82680  0.02800  0.57400  Biso   1.000  O
  O22      1.0000 0.17320  0.97200  0.42600  Biso   1.000  O
  O23      1.0000 0.09300  0.47260  0.76400  Biso   1.000  O
  O24      1.0000 0.90700  0.52740  0.23600  Biso   1.000  O
  O25      1.0000 0.65200  0.47000  0.95200  Biso   1.000  O
  O26      1.0000 0.34800  0.53000  0.04800  Biso   1.000  O
  O27      1.0000 0.13040  0.63510  0.03350  Biso   1.000  O
  O28      1.0000 0.86960  0.36490  0.96650  Biso   1.000  O
  O29      1.0000 0.19400  0.48360  0.38220  Biso   1.000  O
  O30      1.0000 0.80600  0.51640  0.61780  Biso   1.000  O
  O31      1.0000 0.88710  0.56180  0.99310  Biso   1.000  O
  O32      1.0000 0.11290  0.43820  0.00690  Biso   1.000  O
  O33      1.0000 0.06380  0.06680  0.29030  Biso   1.000  O
  O34      1.0000 0.93620  0.93320  0.70970  Biso   1.000  O
  O35      1.0000 0.24840  0.74940  0.62020  Biso   1.000  O
  O36      1.0000 0.75160  0.25060  0.37980  Biso   1.000  O
  O37      1.0000 0.57730  0.98940  0.63940  Biso   1.000  O
  O38      1.0000 0.42270  0.01060  0.36060  Biso   1.000  O
  O39      1.0000 0.58530  0.93140  0.46670  Biso   1.000  O
  O40      1.0000 0.41470  0.06860  0.53330  Biso   1.000  O
  O41      1.0000 0.36770  0.17080  0.96530  Biso   1.000  O
  O42      1.0000 0.63230  0.82920  0.03470  Biso   1.000  O
  O43      1.0000 0.06800  0.54240  0.62380  Biso   1.000  O
  O44      1.0000 0.93200  0.45760  0.37620  Biso   1.000  O
  O45      1.0000 0.31710  0.93830  0.99420  Biso   1.000  O
  O46      1.0000 0.68290  0.06170  0.00580  Biso   1.000  O
  O47      1.0000 0.41200  0.23450  0.46850  Biso   1.000  O
  O48      1.0000 0.58800  0.76550  0.53150  Biso   1.000  O
  O49      1.0000 0.14910  0.98680  0.12510  Biso   1.000  O
  O50      1.0000 0.85090  0.01320  0.87490  Biso   1.000  O
  O51      1.0000 0.54180  0.07100  0.78270  Biso   1.000  O
  O52      1.0000 0.45820  0.92900  0.21730  Biso   1.000  O
  O53      1.0000 0.31620  0.52680  0.66120  Biso   1.000  O
  O54      1.0000 0.68380  0.47320  0.33880  Biso   1.000  O
  O55      1.0000 0.24460  0.82390  0.78680  Biso   1.000  O
  O56      1.0000 0.75540  0.17610  0.21320  Biso   1.000  O
  O57      1.0000 0.15320  0.36040  0.67020  Biso   1.000  O
  O58      1.0000 0.84680  0.63960  0.32980  Biso   1.000  O
  O59      1.0000 0.32340  0.82960  0.47860  Biso   1.000  O
  O60      1.0000 0.67660  0.17040  0.52140  Biso   1.000  O
  O61      1.0000 0.11420  0.95160  0.83760  Biso   1.000  O
  O62      1.0000 0.88580  0.04840  0.16240  Biso   1.000  O
  O63      1.0000 0.41250  0.50580  0.53740  Biso   1.000  O
  O64      1.0000 0.58750  0.49420  0.46260  Biso   1.000  O
  O65      1.0000 0.08800  0.17610  0.55280  Biso   1.000  O
  O66      1.0000 0.91200  0.82390  0.44720  Biso   1.000  O
  O67      1.0000 0.92330  0.49220  0.81470  Biso   1.000  O
  O68      1.0000 0.07670  0.50780  0.18530  Biso   1.000  O
  O69      1.0000 0.34100  0.50200  0.84860  Biso   1.000  O
  O70      1.0000 0.65900  0.49800  0.15140  Biso   1.000  O
  O71      1.0000 0.31170  0.13970  0.31220  Biso   1.000  O
  O72      1.0000 0.68830  0.86030  0.68780  Biso   1.000  O
  O73      1.0000 0.19200  0.36350  0.51260  Biso   1.000  O
  O74      1.0000 0.80800  0.63650  0.48740  Biso   1.000  O
  O75      1.0000 0.91270  0.20430  0.02330  Biso   1.000  O
  O76      1.0000 0.08730  0.79570  0.97670  Biso   1.000  O
  O77      1.0000 0.91970  0.24700  0.55490  Biso   1.000  O
  O78      1.0000 0.08030  0.75300  0.44510  Biso   1.000  O
  O79      1.0000 0.04400  0.63290  0.73200  Biso   1.000  O
  O80      1.0000 0.95600  0.36710  0.26800  Biso   1.000  O
  O81      1.0000 0.14200  0.64430  0.35550  Biso   1.000  O
  O82      1.0000 0.85800  0.35570  0.64450  Biso   1.000  O
  O83      1.0000 0.34520  0.21210  0.14010  Biso   1.000  O
  O84      1.0000 0.65480  0.78790  0.85990  Biso   1.000  O
  O85      1.0000 0.31400  0.64280  0.53180  Biso   1.000  O
  O86      1.0000 0.68600  0.35720  0.46820  Biso   1.000  O
  O87      1.0000 0.44890  0.03380  0.87920  Biso   1.000  O
  O88      1.0000 0.55110  0.96620  0.12080  Biso   1.000  O
  O89      1.0000 0.03970  0.12930  0.06080  Biso   1.000  O
  O90      1.0000 0.96030  0.87070  0.93920  Biso   1.000  O
  C1       1.0000 0.43400  0.17690  0.13940  Biso   1.000  C
  C2       1.0000 0.56600  0.82310  0.86060  Biso   1.000  C
  H1       1.0000 0.50570  0.20170  0.20560  Biso   1.000  H
  H2       1.0000 0.49430  0.79830  0.79440  Biso   1.000  H
  H3       1.0000 0.39850  0.10300  0.12620  Biso   1.000  H
  H4       1.0000 0.60150  0.89700  0.87380  Biso   1.000  H
  C3       1.0000 0.47500  0.21100  0.06240  Biso   1.000  C
  C4       1.0000 0.52500  0.78900  0.93760  Biso   1.000  C
  H5       1.0000 0.53530  0.18570  0.06480  Biso   1.000  H
  H6       1.0000 0.46470  0.81430  0.93520  Biso   1.000  H
  H7       1.0000 0.51330  0.28470  0.07540  Biso   1.000  H
  H8       1.0000 0.48670  0.71530  0.92460  Biso   1.000  H
  C5       1.0000 0.38500  0.22210  0.89000  Biso   1.000  C
  C6       1.0000 0.61500  0.77790  0.11000  Biso   1.000  C
  H9       1.0000 0.40240  0.29330  0.90790  Biso   1.000  H
  H10      1.0000 0.59760  0.70670  0.09210  Biso   1.000  H
  H11      1.0000 0.45400  0.21830  0.88380  Biso   1.000  H
  H12      1.0000 0.54600  0.78170  0.11620  Biso   1.000  H
  C7       1.0000 0.26800  0.17000  0.79400  Biso   1.000  C
  C8       1.0000 0.73200  0.83000  0.20600  Biso   1.000  C
  H13      1.0000 0.19910  0.16830  0.80410  Biso   1.000  H
  H14      1.0000 0.80090  0.83170  0.19590  Biso   1.000  H
  H15      1.0000 0.27160  0.20820  0.74240  Biso   1.000  H
  H16      1.0000 0.72840  0.79180  0.25760  Biso   1.000  H
  C9       1.0000 0.11800  0.99780  0.68540  Biso   1.000  C
  C10      1.0000 0.88200  0.00220  0.31460  Biso   1.000  C
  H17      1.0000 0.08260  0.03710  0.64060  Biso   1.000  H
  H18      1.0000 0.91740  0.96290  0.35940  Biso   1.000  H
  H19      1.0000 0.11380  0.94110  0.64530  Biso   1.000  H
  H20      1.0000 0.88620  0.05890  0.35470  Biso   1.000  H
  C11      1.0000 0.04910  0.95880  0.74790  Biso   1.000  C
  C12      1.0000 0.95090  0.04120  0.25210  Biso   1.000  C
  C13      1.0000 0.33960  0.21610  0.37660  Biso   1.000  C
  C14      1.0000 0.66040  0.78390  0.62340  Biso   1.000  C
  C15      1.0000 0.28100  0.28740  0.33970  Biso   1.000  C
  C16      1.0000 0.71900  0.71260  0.66030  Biso   1.000  C
  H21      1.0000 0.22200  0.28020  0.36480  Biso   1.000  H
  H22      1.0000 0.77800  0.71980  0.63520  Biso   1.000  H
  H23      1.0000 0.34370  0.35680  0.36620  Biso   1.000  H
  H24      1.0000 0.65630  0.64320  0.63380  Biso   1.000  H
  C17      1.0000 0.29400  0.33910  0.18560  Biso   1.000  C
  C18      1.0000 0.70600  0.66090  0.81440  Biso   1.000  C
  H25      1.0000 0.32640  0.40830  0.22230  Biso   1.000  H
  H26      1.0000 0.67360  0.59170  0.77770  Biso   1.000  H
  H27      1.0000 0.24350  0.33580  0.11510  Biso   1.000  H
  H28      1.0000 0.75650  0.66420  0.88490  Biso   1.000  H
  C19      1.0000 0.33500  0.06200  0.71950  Biso   1.000  C
  C20      1.0000 0.66500  0.93800  0.28050  Biso   1.000  C
  H29      1.0000 0.29210  0.00390  0.66320  Biso   1.000  H
  H30      1.0000 0.70790  0.99610  0.33680  Biso   1.000  H
  H31      1.0000 0.35790  0.12310  0.69420  Biso   1.000  H
  H32      1.0000 0.64210  0.87690  0.30580  Biso   1.000  H
  C21      1.0000 0.39700  0.31500  0.19590  Biso   1.000  C
  C22      1.0000 0.60300  0.68500  0.80410  Biso   1.000  C
  H33      1.0000 0.45080  0.32050  0.26640  Biso   1.000  H
  H34      1.0000 0.54920  0.67950  0.73360  Biso   1.000  H
  H35      1.0000 0.44570  0.36190  0.16900  Biso   1.000  H
  H36      1.0000 0.55430  0.63810  0.83100  Biso   1.000  H
  C23      1.0000 0.44960  0.05600  0.79720  Biso   1.000  C
  C24      1.0000 0.55040  0.94400  0.20280  Biso   1.000  C
  C25      1.0000 0.01000  0.19880  0.08260  Biso   1.000  C
  C26      1.0000 0.99000  0.80120  0.91740  Biso   1.000  C
  C27      1.0000 0.09300  0.27100  0.18200  Biso   1.000  C
  C28      1.0000 0.90700  0.72900  0.81800  Biso   1.000  C
  H37      1.0000 0.05790  0.25300  0.22770  Biso   1.000  H
  H38      1.0000 0.94210  0.74700  0.77230  Biso   1.000  H
  H39      1.0000 0.10220  0.33960  0.17390  Biso   1.000  H
  H40      1.0000 0.89780  0.66040  0.82610  Biso   1.000  H
