data_image0
_cell_length_a       7.2556
_cell_length_b       11.1091
_cell_length_c       11.4141
_cell_angle_alpha    90
_cell_angle_beta     92.712
_cell_angle_gamma    90

_symmetry_space_group_name_H-M    "P 1"
_symmetry_int_tables_number       1

loop_
  _symmetry_equiv_pos_as_xyz
  'x, y, z'

loop_
  _atom_site_label
  _atom_site_occupancy
  _atom_site_fract_x
  _atom_site_fract_y
  _atom_site_fract_z
  _atom_site_thermal_displace_type
  _atom_site_B_iso_or_equiv
  _atom_site_type_symbol
  Cu1      1.0000 0.00000  0.50000  0.00000  Biso   1.000  Cu
  Cu2      1.0000 0.50000  0.00000  0.50000  Biso   1.000  Cu
  N1       1.0000 0.01730  0.39820  0.86000  Biso   1.000  N
  N2       1.0000 0.48270  0.89820  0.64000  Biso   1.000  N
  N3       1.0000 0.98270  0.60180  0.14000  Biso   1.000  N
  N4       1.0000 0.51730  0.10180  0.36000  Biso   1.000  N
  N5       1.0000 0.01140  0.30450  0.69120  Biso   1.000  N
  N6       1.0000 0.48860  0.80450  0.80880  Biso   1.000  N
  N7       1.0000 0.98860  0.69550  0.30880  Biso   1.000  N
  N8       1.0000 0.51140  0.19550  0.19120  Biso   1.000  N
  C1       1.0000 0.87850  0.31420  0.85770  Biso   1.000  C
  C2       1.0000 0.62150  0.81420  0.64230  Biso   1.000  C
  C3       1.0000 0.12150  0.68580  0.14230  Biso   1.000  C
  C4       1.0000 0.37850  0.18580  0.35770  Biso   1.000  C
  C5       1.0000 0.09560  0.39060  0.75680  Biso   1.000  C
  C6       1.0000 0.40440  0.89060  0.74320  Biso   1.000  C
  C7       1.0000 0.90440  0.60940  0.24320  Biso   1.000  C
  C8       1.0000 0.59560  0.10940  0.25680  Biso   1.000  C
  C9       1.0000 0.87300  0.25480  0.75260  Biso   1.000  C
  C10      1.0000 0.62700  0.75480  0.74740  Biso   1.000  C
  C11      1.0000 0.12700  0.74520  0.24740  Biso   1.000  C
  C12      1.0000 0.37300  0.24520  0.25260  Biso   1.000  C
  C13      1.0000 0.75120  0.16020  0.70320  Biso   1.000  C
  C14      1.0000 0.74880  0.66020  0.79680  Biso   1.000  C
  C15      1.0000 0.24880  0.83980  0.29680  Biso   1.000  C
  C16      1.0000 0.25120  0.33980  0.20320  Biso   1.000  C
  C17      1.0000 0.77040  0.30590  0.96360  Biso   1.000  C
  C18      1.0000 0.72960  0.80590  0.53640  Biso   1.000  C
  C19      1.0000 0.22960  0.69410  0.03640  Biso   1.000  C
  C20      1.0000 0.27040  0.19410  0.46360  Biso   1.000  C
  O1       1.0000 0.80980  0.38220  0.04310  Biso   1.000  O
  O2       1.0000 0.69020  0.88220  0.45690  Biso   1.000  O
  O3       1.0000 0.19020  0.61780  0.95690  Biso   1.000  O
  O4       1.0000 0.30980  0.11780  0.54310  Biso   1.000  O
  O5       1.0000 0.64870  0.22580  0.97030  Biso   1.000  O
  O6       1.0000 0.85130  0.72580  0.52970  Biso   1.000  O
  O7       1.0000 0.35130  0.77420  0.02970  Biso   1.000  O
  O8       1.0000 0.14870  0.27420  0.47030  Biso   1.000  O
  O9       1.0000 0.75930  0.12530  0.60300  Biso   1.000  O
  O10      1.0000 0.74070  0.62530  0.89700  Biso   1.000  O
  O11      1.0000 0.24070  0.87470  0.39700  Biso   1.000  O
  O12      1.0000 0.25930  0.37470  0.10300  Biso   1.000  O
  O13      1.0000 0.63160  0.11470  0.77430  Biso   1.000  O
  O14      1.0000 0.86840  0.61470  0.72570  Biso   1.000  O
  O15      1.0000 0.36840  0.88530  0.22570  Biso   1.000  O
  O16      1.0000 0.13160  0.38530  0.27430  Biso   1.000  O
  H1       1.0000 0.64730  0.14520  0.83940  Biso   1.000  H
  H2       1.0000 0.85270  0.64520  0.66060  Biso   1.000  H
  H3       1.0000 0.35270  0.85480  0.16060  Biso   1.000  H
  H4       1.0000 0.14730  0.35480  0.33940  Biso   1.000  H
  C21      1.0000 0.25210  0.46580  0.71880  Biso   1.000  C
  C22      1.0000 0.24790  0.96580  0.78120  Biso   1.000  C
  C23      1.0000 0.74790  0.53420  0.28120  Biso   1.000  C
  C24      1.0000 0.75210  0.03420  0.21880  Biso   1.000  C
  H5       1.0000 0.23560  0.48240  0.63550  Biso   1.000  H
  H6       1.0000 0.26440  0.98240  0.86450  Biso   1.000  H
  H7       1.0000 0.76440  0.51760  0.36450  Biso   1.000  H
  H8       1.0000 0.73560  0.01760  0.13550  Biso   1.000  H
  H9       1.0000 0.25250  0.54200  0.76020  Biso   1.000  H
  H10      1.0000 0.24750  0.04200  0.73980  Biso   1.000  H
  H11      1.0000 0.74750  0.45800  0.23980  Biso   1.000  H
  H12      1.0000 0.75250  0.95800  0.26020  Biso   1.000  H
  C25      1.0000 0.42950  0.40470  0.74210  Biso   1.000  C
  C26      1.0000 0.07050  0.90470  0.75790  Biso   1.000  C
  C27      1.0000 0.57050  0.59530  0.25790  Biso   1.000  C
  C28      1.0000 0.92950  0.09530  0.24210  Biso   1.000  C
  H13      1.0000 0.41700  0.32090  0.72280  Biso   1.000  H
  H14      1.0000 0.08300  0.82090  0.77720  Biso   1.000  H
  H15      1.0000 0.58300  0.67910  0.27720  Biso   1.000  H
  H16      1.0000 0.91700  0.17910  0.22280  Biso   1.000  H
  H17      1.0000 0.46630  0.41290  0.82360  Biso   1.000  H
  H18      1.0000 0.03370  0.91290  0.67640  Biso   1.000  H
  H19      1.0000 0.53370  0.58710  0.17640  Biso   1.000  H
  H20      1.0000 0.96630  0.08710  0.32360  Biso   1.000  H
  H21      1.0000 0.52130  0.44040  0.69510  Biso   1.000  H
  H22      1.0000 0.97870  0.94040  0.80490  Biso   1.000  H
  H23      1.0000 0.47870  0.55960  0.30490  Biso   1.000  H
  H24      1.0000 0.02130  0.05960  0.19510  Biso   1.000  H
  H25      1.0000 0.05200  0.29100  0.61100  Biso   1.000  H
  H26      1.0000 0.44800  0.79100  0.88900  Biso   1.000  H
  H27      1.0000 0.94800  0.70900  0.38900  Biso   1.000  H
  H28      1.0000 0.55200  0.20900  0.11100  Biso   1.000  H
