data_image0
_cell_length_a       13.0789
_cell_length_b       15.7236
_cell_length_c       18.9356
_cell_angle_alpha    90
_cell_angle_beta     128.92
_cell_angle_gamma    90

_symmetry_space_group_name_H-M    "P 1"
_symmetry_int_tables_number       1

loop_
  _symmetry_equiv_pos_as_xyz
  'x, y, z'

loop_
  _atom_site_label
  _atom_site_occupancy
  _atom_site_fract_x
  _atom_site_fract_y
  _atom_site_fract_z
  _atom_site_thermal_displace_type
  _atom_site_B_iso_or_equiv
  _atom_site_type_symbol
  Mo1      1.0000 0.53751  0.58400  0.18946  Biso   1.000  Mo
  Mo2      1.0000 0.46249  0.08400  0.31054  Biso   1.000  Mo
  Mo3      1.0000 0.46249  0.41600  0.81054  Biso   1.000  Mo
  Mo4      1.0000 0.53751  0.91600  0.68946  Biso   1.000  Mo
  Mo5      1.0000 0.76244  0.64007  0.15096  Biso   1.000  Mo
  Mo6      1.0000 0.23756  0.14007  0.34904  Biso   1.000  Mo
  Mo7      1.0000 0.23756  0.35993  0.84904  Biso   1.000  Mo
  Mo8      1.0000 0.76244  0.85993  0.65096  Biso   1.000  Mo
  Mo9      1.0000 0.27749  0.44086  0.03909  Biso   1.000  Mo
  Mo10     1.0000 0.72251  0.94086  0.46091  Biso   1.000  Mo
  Mo11     1.0000 0.72251  0.55914  0.96091  Biso   1.000  Mo
  Mo12     1.0000 0.27749  0.05914  0.53909  Biso   1.000  Mo
  Mo13     1.0000 0.56233  0.28369  0.99448  Biso   1.000  Mo
  Mo14     1.0000 0.43767  0.78369  0.50552  Biso   1.000  Mo
  Mo15     1.0000 0.43767  0.71631  0.00552  Biso   1.000  Mo
  Mo16     1.0000 0.56233  0.21631  0.49448  Biso   1.000  Mo
  Mo17     1.0000 0.60874  0.36764  0.18642  Biso   1.000  Mo
  Mo18     1.0000 0.39126  0.86764  0.31358  Biso   1.000  Mo
  Mo19     1.0000 0.39126  0.63236  0.81358  Biso   1.000  Mo
  Mo20     1.0000 0.60874  0.13236  0.68642  Biso   1.000  Mo
  Mo21     1.0000 0.82645  0.42427  0.14194  Biso   1.000  Mo
  Mo22     1.0000 0.17355  0.92427  0.35806  Biso   1.000  Mo
  Mo23     1.0000 0.17355  0.57573  0.85806  Biso   1.000  Mo
  Mo24     1.0000 0.82645  0.07573  0.64194  Biso   1.000  Mo
  P1       1.0000 0.50000  0.50000  0.00000  Biso   1.000  P
  P2       1.0000 0.50000  0.00000  0.50000  Biso   1.000  P
  O1       1.0000 0.54230  0.57500  0.06230  Biso   1.000  O
  O2       1.0000 0.45770  0.07500  0.43770  Biso   1.000  O
  O3       1.0000 0.45770  0.42500  0.93770  Biso   1.000  O
  O4       1.0000 0.54230  0.92500  0.56230  Biso   1.000  O
  O5       1.0000 0.35800  0.47400  0.95750  Biso   1.000  O
  O6       1.0000 0.64200  0.97400  0.54250  Biso   1.000  O
  O7       1.0000 0.64200  0.52600  0.04250  Biso   1.000  O
  O8       1.0000 0.35800  0.02600  0.45750  Biso   1.000  O
  O9       1.0000 0.51490  0.51480  0.92980  Biso   1.000  O
  O10      1.0000 0.48510  0.01480  0.57020  Biso   1.000  O
  O11      1.0000 0.48510  0.48520  0.07020  Biso   1.000  O
  O12      1.0000 0.51490  0.98520  0.42980  Biso   1.000  O
  O13      1.0000 0.58900  0.41940  0.05930  Biso   1.000  O
  O14      1.0000 0.41100  0.91940  0.44070  Biso   1.000  O
  O15      1.0000 0.41100  0.58060  0.94070  Biso   1.000  O
  O16      1.0000 0.58900  0.08060  0.55930  Biso   1.000  O
  O17      1.0000 0.78700  0.37360  0.22260  Biso   1.000  O
  O18      1.0000 0.21300  0.87360  0.27740  Biso   1.000  O
  O19      1.0000 0.21300  0.62640  0.77740  Biso   1.000  O
  O20      1.0000 0.78700  0.12640  0.72260  Biso   1.000  O
  O21      1.0000 0.55500  0.60780  0.28430  Biso   1.000  O
  O22      1.0000 0.44500  0.10780  0.21570  Biso   1.000  O
  O23      1.0000 0.44500  0.39220  0.71570  Biso   1.000  O
  O24      1.0000 0.55500  0.89220  0.78430  Biso   1.000  O
  O25      1.0000 0.97880  0.38640  0.21070  Biso   1.000  O
  O26      1.0000 0.02120  0.88640  0.28930  Biso   1.000  O
  O27      1.0000 0.02120  0.61360  0.78930  Biso   1.000  O
  O28      1.0000 0.97880  0.11360  0.71070  Biso   1.000  O
  O29      1.0000 0.42570  0.37220  0.12490  Biso   1.000  O
  O30      1.0000 0.57430  0.87220  0.37510  Biso   1.000  O
  O31      1.0000 0.57430  0.62780  0.87510  Biso   1.000  O
  O32      1.0000 0.42570  0.12780  0.62490  Biso   1.000  O
  O33      1.0000 0.58560  0.17980  0.99200  Biso   1.000  O
  O34      1.0000 0.41440  0.67980  0.50800  Biso   1.000  O
  O35      1.0000 0.41440  0.82020  0.00800  Biso   1.000  O
  O36      1.0000 0.58560  0.32020  0.49200  Biso   1.000  O
  O37      1.0000 0.61880  0.47710  0.23320  Biso   1.000  O
  O38      1.0000 0.38120  0.97710  0.26680  Biso   1.000  O
  O39      1.0000 0.38120  0.52290  0.76680  Biso   1.000  O
  O40      1.0000 0.61880  0.02290  0.73320  Biso   1.000  O
  O41      1.0000 0.58700  0.26830  0.11280  Biso   1.000  O
  O42      1.0000 0.41300  0.76830  0.38720  Biso   1.000  O
  O43      1.0000 0.41300  0.73170  0.88720  Biso   1.000  O
  O44      1.0000 0.58700  0.23170  0.61280  Biso   1.000  O
  O45      1.0000 0.77560  0.63210  0.05500  Biso   1.000  O
  O46      1.0000 0.22440  0.13210  0.44500  Biso   1.000  O
  O47      1.0000 0.22440  0.36790  0.94500  Biso   1.000  O
  O48      1.0000 0.77560  0.86790  0.55500  Biso   1.000  O
  O49      1.0000 0.88360  0.70510  0.22220  Biso   1.000  O
  O50      1.0000 0.11640  0.20510  0.27780  Biso   1.000  O
  O51      1.0000 0.11640  0.29490  0.77780  Biso   1.000  O
  O52      1.0000 0.88360  0.79490  0.72220  Biso   1.000  O
  O53      1.0000 0.85050  0.53240  0.18890  Biso   1.000  O
  O54      1.0000 0.14950  0.03240  0.31110  Biso   1.000  O
  O55      1.0000 0.14950  0.46760  0.81110  Biso   1.000  O
  O56      1.0000 0.85050  0.96760  0.68890  Biso   1.000  O
  O57      1.0000 0.71300  0.34510  0.05350  Biso   1.000  O
  O58      1.0000 0.28700  0.84510  0.44650  Biso   1.000  O
  O59      1.0000 0.28700  0.65490  0.94650  Biso   1.000  O
  O60      1.0000 0.71300  0.15490  0.55350  Biso   1.000  O
  O61      1.0000 0.15800  0.52430  0.94800  Biso   1.000  O
  O62      1.0000 0.84200  0.02430  0.55200  Biso   1.000  O
  O63      1.0000 0.84200  0.47570  0.05200  Biso   1.000  O
  O64      1.0000 0.15800  0.97570  0.44800  Biso   1.000  O
  O65      1.0000 0.62360  0.71570  0.07450  Biso   1.000  O
  O66      1.0000 0.37640  0.21570  0.42550  Biso   1.000  O
  O67      1.0000 0.37640  0.28430  0.92550  Biso   1.000  O
  O68      1.0000 0.62360  0.78430  0.57450  Biso   1.000  O
  O69      1.0000 0.70480  0.61940  0.21620  Biso   1.000  O
  O70      1.0000 0.29520  0.11940  0.28380  Biso   1.000  O
  O71      1.0000 0.29520  0.38060  0.78380  Biso   1.000  O
  O72      1.0000 0.70480  0.88060  0.71620  Biso   1.000  O
  O73      1.0000 0.46300  0.68000  0.11000  Biso   1.000  O
  O74      1.0000 0.53700  0.18000  0.39000  Biso   1.000  O
  O75      1.0000 0.53700  0.32000  0.89000  Biso   1.000  O
  O76      1.0000 0.46300  0.82000  0.61000  Biso   1.000  O
  O77      1.0000 0.37550  0.53370  0.12440  Biso   1.000  O
  O78      1.0000 0.62450  0.03370  0.37560  Biso   1.000  O
  O79      1.0000 0.62450  0.46630  0.87560  Biso   1.000  O
  O80      1.0000 0.37550  0.96630  0.62440  Biso   1.000  O
  O81      1.0000 0.65840  0.30780  0.27400  Biso   1.000  O
  O82      1.0000 0.34160  0.80780  0.22600  Biso   1.000  O
  O83      1.0000 0.34160  0.69220  0.72600  Biso   1.000  O
  O84      1.0000 0.65840  0.19220  0.77400  Biso   1.000  O
  O85      1.0000 0.17980  0.41680  0.06290  Biso   1.000  O
  O86      1.0000 0.82020  0.91680  0.43710  Biso   1.000  O
  O87      1.0000 0.82020  0.58320  0.93710  Biso   1.000  O
  O88      1.0000 0.17980  0.08320  0.56290  Biso   1.000  O
  Cu1      1.0000 0.64390  0.03050  0.06422  Biso   1.000  Cu
  Cu2      1.0000 0.35610  0.53050  0.43578  Biso   1.000  Cu
  Cu3      1.0000 0.35610  0.96950  0.93578  Biso   1.000  Cu
  Cu4      1.0000 0.64390  0.46950  0.56422  Biso   1.000  Cu
  O89      1.0000 0.51130  0.97830  0.94100  Biso   1.000  O
  O90      1.0000 0.48870  0.47830  0.55900  Biso   1.000  O
  O91      1.0000 0.48870  0.02170  0.05900  Biso   1.000  O
  O92      1.0000 0.51130  0.52170  0.44100  Biso   1.000  O
  N1       1.0000 0.75630  0.08430  0.18760  Biso   1.000  N
  N2       1.0000 0.24370  0.58430  0.31240  Biso   1.000  N
  N3       1.0000 0.24370  0.91570  0.81240  Biso   1.000  N
  N4       1.0000 0.75630  0.41570  0.68760  Biso   1.000  N
  C1       1.0000 0.75510  0.05140  0.25540  Biso   1.000  C
  C2       1.0000 0.24490  0.55140  0.24460  Biso   1.000  C
  C3       1.0000 0.24490  0.94860  0.74460  Biso   1.000  C
  C4       1.0000 0.75510  0.44860  0.75540  Biso   1.000  C
  H1       1.0000 0.71010  0.00130  0.24550  Biso   1.000  H
  H2       1.0000 0.28990  0.50130  0.25450  Biso   1.000  H
  H3       1.0000 0.28990  0.99870  0.75450  Biso   1.000  H
  H4       1.0000 0.71010  0.49870  0.74550  Biso   1.000  H
  C5       1.0000 0.82150  0.09370  0.33820  Biso   1.000  C
  C6       1.0000 0.17850  0.59370  0.16180  Biso   1.000  C
  C7       1.0000 0.17850  0.90630  0.66180  Biso   1.000  C
  C8       1.0000 0.82150  0.40630  0.83820  Biso   1.000  C
  H5       1.0000 0.82070  0.07180  0.38350  Biso   1.000  H
  H6       1.0000 0.17930  0.57180  0.11650  Biso   1.000  H
  H7       1.0000 0.17930  0.92820  0.61650  Biso   1.000  H
  H8       1.0000 0.82070  0.42820  0.88350  Biso   1.000  H
  C9       1.0000 0.88910  0.16890  0.35310  Biso   1.000  C
  C10      1.0000 0.11090  0.66890  0.14690  Biso   1.000  C
  C11      1.0000 0.11090  0.83110  0.64690  Biso   1.000  C
  C12      1.0000 0.88910  0.33110  0.85310  Biso   1.000  C
  C13      1.0000 0.89020  0.20170  0.28520  Biso   1.000  C
  C14      1.0000 0.10980  0.70170  0.21480  Biso   1.000  C
  C15      1.0000 0.10980  0.79830  0.71480  Biso   1.000  C
  C16      1.0000 0.89020  0.29830  0.78520  Biso   1.000  C
  H9       1.0000 0.93530  0.25190  0.29520  Biso   1.000  H
  H10      1.0000 0.06470  0.75190  0.20480  Biso   1.000  H
  H11      1.0000 0.06470  0.74810  0.70480  Biso   1.000  H
  H12      1.0000 0.93530  0.24810  0.79520  Biso   1.000  H
  C17      1.0000 0.82390  0.15940  0.20250  Biso   1.000  C
  C18      1.0000 0.17610  0.65940  0.29750  Biso   1.000  C
  C19      1.0000 0.17610  0.84060  0.79750  Biso   1.000  C
  C20      1.0000 0.82390  0.34060  0.70250  Biso   1.000  C
  H13      1.0000 0.82460  0.18130  0.15720  Biso   1.000  H
  H14      1.0000 0.17540  0.68130  0.34280  Biso   1.000  H
  H15      1.0000 0.17540  0.81870  0.84280  Biso   1.000  H
  H16      1.0000 0.82460  0.31870  0.65720  Biso   1.000  H
  C21      1.0000 0.95720  0.21370  0.44030  Biso   1.000  C
  C22      1.0000 0.04280  0.71370  0.05970  Biso   1.000  C
  C23      1.0000 0.04280  0.78630  0.55970  Biso   1.000  C
  C24      1.0000 0.95720  0.28630  0.94030  Biso   1.000  C
  C25      1.0000 0.91690  0.20320  0.49250  Biso   1.000  C
  C26      1.0000 0.08310  0.70320  0.00750  Biso   1.000  C
  C27      1.0000 0.08310  0.79680  0.50750  Biso   1.000  C
  C28      1.0000 0.91690  0.29680  0.99250  Biso   1.000  C
  H17      1.0000 0.84230  0.17130  0.47020  Biso   1.000  H
  H18      1.0000 0.15770  0.67130  0.02980  Biso   1.000  H
  H19      1.0000 0.15770  0.82870  0.52980  Biso   1.000  H
  H20      1.0000 0.84230  0.32870  0.97020  Biso   1.000  H
  C29      1.0000 0.98830  0.24040  0.57800  Biso   1.000  C
  C30      1.0000 0.01170  0.74040  0.92200  Biso   1.000  C
  C31      1.0000 0.01170  0.75960  0.42200  Biso   1.000  C
  C32      1.0000 0.98830  0.25960  0.07800  Biso   1.000  C
  H21      1.0000 0.96140  0.23330  0.61290  Biso   1.000  H
  H22      1.0000 0.03860  0.73330  0.88710  Biso   1.000  H
  H23      1.0000 0.03860  0.76670  0.38710  Biso   1.000  H
  H24      1.0000 0.96140  0.26670  0.11290  Biso   1.000  H
  N5       1.0000 0.09990  0.28820  0.61140  Biso   1.000  N
  N6       1.0000 0.90010  0.78820  0.88860  Biso   1.000  N
  N7       1.0000 0.90010  0.71180  0.38860  Biso   1.000  N
  N8       1.0000 0.09990  0.21180  0.11140  Biso   1.000  N
  C33      1.0000 0.14020  0.29870  0.55910  Biso   1.000  C
  C34      1.0000 0.85980  0.79870  0.94090  Biso   1.000  C
  C35      1.0000 0.85980  0.70130  0.44090  Biso   1.000  C
  C36      1.0000 0.14020  0.20130  0.05910  Biso   1.000  C
  H25      1.0000 0.21480  0.33060  0.58140  Biso   1.000  H
  H26      1.0000 0.78520  0.83060  0.91860  Biso   1.000  H
  H27      1.0000 0.78520  0.66940  0.41860  Biso   1.000  H
  H28      1.0000 0.21480  0.16940  0.08140  Biso   1.000  H
  C37      1.0000 0.06880  0.26150  0.47360  Biso   1.000  C
  C38      1.0000 0.93120  0.76150  0.02640  Biso   1.000  C
  C39      1.0000 0.93120  0.73850  0.52640  Biso   1.000  C
  C40      1.0000 0.06880  0.23850  0.97360  Biso   1.000  C
  H29      1.0000 0.09570  0.26860  0.43870  Biso   1.000  H
  H30      1.0000 0.90430  0.76860  0.06130  Biso   1.000  H
  H31      1.0000 0.90430  0.73140  0.56130  Biso   1.000  H
  H32      1.0000 0.09570  0.23140  0.93870  Biso   1.000  H
  N9       1.0000 0.77920  0.03490  0.04580  Biso   1.000  N
  N10      1.0000 0.22080  0.53490  0.45420  Biso   1.000  N
  N11      1.0000 0.22080  0.96510  0.95420  Biso   1.000  N
  N12      1.0000 0.77920  0.46510  0.54580  Biso   1.000  N
  C41      1.0000 0.74160  0.05400  0.96050  Biso   1.000  C
  C42      1.0000 0.25840  0.55400  0.53950  Biso   1.000  C
  C43      1.0000 0.25840  0.94600  0.03950  Biso   1.000  C
  C44      1.0000 0.74160  0.44600  0.46050  Biso   1.000  C
  H33      1.0000 0.65780  0.07490  0.91510  Biso   1.000  H
  H34      1.0000 0.34220  0.57490  0.58490  Biso   1.000  H
  H35      1.0000 0.34220  0.92510  0.08490  Biso   1.000  H
  H36      1.0000 0.65780  0.42510  0.41510  Biso   1.000  H
  C45      1.0000 0.82970  0.04170  0.94320  Biso   1.000  C
  C46      1.0000 0.17030  0.54170  0.55680  Biso   1.000  C
  C47      1.0000 0.17030  0.95830  0.05680  Biso   1.000  C
  C48      1.0000 0.82970  0.45830  0.44320  Biso   1.000  C
  H37      1.0000 0.80460  0.05450  0.88620  Biso   1.000  H
  H38      1.0000 0.19540  0.55450  0.61380  Biso   1.000  H
  H39      1.0000 0.19540  0.94550  0.11380  Biso   1.000  H
  H40      1.0000 0.80460  0.44550  0.38620  Biso   1.000  H
  C49      1.0000 0.95540  0.01030  0.01120  Biso   1.000  C
  C50      1.0000 0.04460  0.51030  0.48880  Biso   1.000  C
  C51      1.0000 0.04460  0.98970  0.98880  Biso   1.000  C
  C52      1.0000 0.95540  0.48970  0.51120  Biso   1.000  C
  C53      1.0000 0.99300  0.99120  0.09660  Biso   1.000  C
  C54      1.0000 0.00700  0.49120  0.40340  Biso   1.000  C
  C55      1.0000 0.00700  0.00880  0.90340  Biso   1.000  C
  C56      1.0000 0.99300  0.50880  0.59660  Biso   1.000  C
  H41      1.0000 0.07690  0.97030  0.14200  Biso   1.000  H
  H42      1.0000 0.92310  0.47030  0.35800  Biso   1.000  H
  H43      1.0000 0.92310  0.02970  0.85800  Biso   1.000  H
  H44      1.0000 0.07690  0.52970  0.64200  Biso   1.000  H
  C57      1.0000 0.90500  0.00350  0.11390  Biso   1.000  C
  C58      1.0000 0.09500  0.50350  0.38610  Biso   1.000  C
  C59      1.0000 0.09500  0.99650  0.88610  Biso   1.000  C
  C60      1.0000 0.90500  0.49650  0.61390  Biso   1.000  C
  H45      1.0000 0.93010  0.99070  0.17080  Biso   1.000  H
  H46      1.0000 0.06990  0.49070  0.32920  Biso   1.000  H
  H47      1.0000 0.06990  0.00930  0.82920  Biso   1.000  H
  H48      1.0000 0.93010  0.50930  0.67080  Biso   1.000  H
  O93      1.0000 0.72840  0.89330  0.14220  Biso   1.000  O
  O94      1.0000 0.27160  0.39330  0.35780  Biso   1.000  O
  O95      1.0000 0.27160  0.10670  0.85780  Biso   1.000  O
  O96      1.0000 0.72840  0.60670  0.64220  Biso   1.000  O
  O97      1.0000 0.36800  0.16530  0.04840  Biso   1.000  O
  O98      1.0000 0.63200  0.66530  0.45160  Biso   1.000  O
  O99      1.0000 0.63200  0.83470  0.95160  Biso   1.000  O
  O100     1.0000 0.36800  0.33470  0.54840  Biso   1.000  O
  O101     1.0000 0.43500  0.37800  0.29500  Biso   1.000  O
  O102     1.0000 0.56500  0.87800  0.20500  Biso   1.000  O
  O103     1.0000 0.56500  0.62200  0.70500  Biso   1.000  O
  O104     1.0000 0.43500  0.12200  0.79500  Biso   1.000  O
  O105     1.0000 0.74800  0.40940  0.19440  Biso   1.000  O
  O106     1.0000 0.25200  0.90940  0.30560  Biso   1.000  O
  O107     1.0000 0.25200  0.59060  0.80560  Biso   1.000  O
  O108     1.0000 0.74800  0.09060  0.69440  Biso   1.000  O
  O109     1.0000 0.56800  0.64200  0.27440  Biso   1.000  O
  O110     1.0000 0.43200  0.14200  0.22560  Biso   1.000  O
  O111     1.0000 0.43200  0.35800  0.72560  Biso   1.000  O
  O112     1.0000 0.56800  0.85800  0.77440  Biso   1.000  O
  O113     1.0000 0.55000  0.30810  0.08370  Biso   1.000  O
  O114     1.0000 0.45000  0.80810  0.41630  Biso   1.000  O
  O115     1.0000 0.45000  0.69190  0.91630  Biso   1.000  O
  O116     1.0000 0.55000  0.19190  0.58370  Biso   1.000  O
  O117     1.0000 0.75000  0.30650  0.08110  Biso   1.000  O
  O118     1.0000 0.25000  0.80650  0.41890  Biso   1.000  O
  O119     1.0000 0.25000  0.69350  0.91890  Biso   1.000  O
  O120     1.0000 0.75000  0.19350  0.58110  Biso   1.000  O
  O121     1.0000 0.21300  0.53810  0.95750  Biso   1.000  O
  O122     1.0000 0.78700  0.03810  0.54250  Biso   1.000  O
  O123     1.0000 0.78700  0.46190  0.04250  Biso   1.000  O
  O124     1.0000 0.21300  0.96190  0.45750  Biso   1.000  O
  O125     1.0000 0.37300  0.32600  0.26600  Biso   1.000  O
  O126     1.0000 0.62700  0.82600  0.23400  Biso   1.000  O
  O127     1.0000 0.62700  0.67400  0.73400  Biso   1.000  O
  O128     1.0000 0.37300  0.17400  0.76600  Biso   1.000  O
