data_image0
_cell_length_a       10.958
_cell_length_b       8.041
_cell_length_c       9.277
_cell_angle_alpha    90
_cell_angle_beta     92.868
_cell_angle_gamma    90

_symmetry_space_group_name_H-M    "P 1"
_symmetry_int_tables_number       1

loop_
  _symmetry_equiv_pos_as_xyz
  'x, y, z'

loop_
  _atom_site_label
  _atom_site_occupancy
  _atom_site_fract_x
  _atom_site_fract_y
  _atom_site_fract_z
  _atom_site_thermal_displace_type
  _atom_site_B_iso_or_equiv
  _atom_site_type_symbol
  Cu1      1.0000 0.50000  0.50000  0.00000  Biso   1.000  Cu
  Cu2      1.0000 0.50000  0.00000  0.50000  Biso   1.000  Cu
  N1       1.0000 0.33590  0.46910  0.06980  Biso   1.000  N
  N2       1.0000 0.66410  0.96910  0.43020  Biso   1.000  N
  N3       1.0000 0.66410  0.53090  0.93020  Biso   1.000  N
  N4       1.0000 0.33590  0.03090  0.56980  Biso   1.000  N
  C1       1.0000 0.40920  0.71020  0.20530  Biso   1.000  C
  C2       1.0000 0.59080  0.21020  0.29470  Biso   1.000  C
  C3       1.0000 0.59080  0.28980  0.79470  Biso   1.000  C
  C4       1.0000 0.40920  0.78980  0.70530  Biso   1.000  C
  C5       1.0000 0.30820  0.59450  0.16310  Biso   1.000  C
  C6       1.0000 0.69180  0.09450  0.33690  Biso   1.000  C
  C7       1.0000 0.69180  0.40550  0.83690  Biso   1.000  C
  C8       1.0000 0.30820  0.90550  0.66310  Biso   1.000  C
  C9       1.0000 0.22590  0.21700  0.96790  Biso   1.000  C
  C10      1.0000 0.77410  0.71700  0.53210  Biso   1.000  C
  C11      1.0000 0.77410  0.78300  0.03210  Biso   1.000  C
  C12      1.0000 0.22590  0.28300  0.46790  Biso   1.000  C
  H1       1.0000 0.26630  0.22880  0.87780  Biso   1.000  H
  H2       1.0000 0.73370  0.72880  0.62220  Biso   1.000  H
  H3       1.0000 0.73370  0.77120  0.12220  Biso   1.000  H
  H4       1.0000 0.26630  0.27120  0.37780  Biso   1.000  H
  H5       1.0000 0.14050  0.19200  0.94530  Biso   1.000  H
  H6       1.0000 0.85950  0.69200  0.55470  Biso   1.000  H
  H7       1.0000 0.85950  0.80800  0.05470  Biso   1.000  H
  H8       1.0000 0.14050  0.30800  0.44530  Biso   1.000  H
  C13      1.0000 0.18990  0.58000  0.19830  Biso   1.000  C
  C14      1.0000 0.81010  0.08000  0.30170  Biso   1.000  C
  C15      1.0000 0.81010  0.42000  0.80170  Biso   1.000  C
  C16      1.0000 0.18990  0.92000  0.69830  Biso   1.000  C
  C17      1.0000 0.23590  0.37570  0.05020  Biso   1.000  C
  C18      1.0000 0.76410  0.87570  0.44980  Biso   1.000  C
  C19      1.0000 0.76410  0.62430  0.94980  Biso   1.000  C
  C20      1.0000 0.23590  0.12430  0.55020  Biso   1.000  C
  C21      1.0000 0.11360  0.68580  0.28800  Biso   1.000  C
  C22      1.0000 0.88640  0.18580  0.21200  Biso   1.000  C
  C23      1.0000 0.88640  0.31420  0.71200  Biso   1.000  C
  C24      1.0000 0.11360  0.81420  0.78800  Biso   1.000  C
  N5       1.0000 0.14650  0.44200  0.12680  Biso   1.000  N
  N6       1.0000 0.85350  0.94200  0.37320  Biso   1.000  N
  N7       1.0000 0.85350  0.55800  0.87320  Biso   1.000  N
  N8       1.0000 0.14650  0.05800  0.62680  Biso   1.000  N
  O1       1.0000 0.50610  0.68910  0.14050  Biso   1.000  O
  O2       1.0000 0.49390  0.18910  0.35950  Biso   1.000  O
  O3       1.0000 0.49390  0.31090  0.85950  Biso   1.000  O
  O4       1.0000 0.50610  0.81090  0.64050  Biso   1.000  O
  O5       1.0000 0.39277  0.81660  0.30210  Biso   1.000  O
  O6       1.0000 0.60723  0.31660  0.19790  Biso   1.000  O
  O7       1.0000 0.60723  0.18340  0.69790  Biso   1.000  O
  O8       1.0000 0.39277  0.68340  0.80210  Biso   1.000  O
  O9       1.0000 0.16810  0.81170  0.35530  Biso   1.000  O
  O10      1.0000 0.83190  0.31170  0.14470  Biso   1.000  O
  O11      1.0000 0.83190  0.18830  0.64470  Biso   1.000  O
  O12      1.0000 0.16810  0.68830  0.85530  Biso   1.000  O
  H9       1.0000 0.24080  0.81230  0.33810  Biso   1.000  H
  H10      1.0000 0.75920  0.31230  0.16190  Biso   1.000  H
  H11      1.0000 0.75920  0.18770  0.66190  Biso   1.000  H
  H12      1.0000 0.24080  0.68770  0.83810  Biso   1.000  H
  O13      1.0000 0.00590  0.65970  0.29720  Biso   1.000  O
  O14      1.0000 0.99410  0.15970  0.20280  Biso   1.000  O
  O15      1.0000 0.99410  0.34030  0.70280  Biso   1.000  O
  O16      1.0000 0.00590  0.84030  0.79720  Biso   1.000  O
  C25      1.0000 0.28400  0.07520  0.05470  Biso   1.000  C
  C26      1.0000 0.71600  0.57520  0.44530  Biso   1.000  C
  C27      1.0000 0.71600  0.92480  0.94530  Biso   1.000  C
  C28      1.0000 0.28400  0.42480  0.55470  Biso   1.000  C
  H13      1.0000 0.24380  0.06320  0.14360  Biso   1.000  H
  H14      1.0000 0.75620  0.56320  0.35640  Biso   1.000  H
  H15      1.0000 0.75620  0.93680  0.85640  Biso   1.000  H
  H16      1.0000 0.24380  0.43680  0.64360  Biso   1.000  H
  H17      1.0000 0.36900  0.09870  0.07500  Biso   1.000  H
  H18      1.0000 0.63100  0.59870  0.42500  Biso   1.000  H
  H19      1.0000 0.63100  0.90130  0.92500  Biso   1.000  H
  H20      1.0000 0.36900  0.40130  0.57500  Biso   1.000  H
  H21      1.0000 0.27600  0.97390  0.00020  Biso   1.000  H
  H22      1.0000 0.72400  0.47390  0.49980  Biso   1.000  H
  H23      1.0000 0.72400  0.02610  0.99980  Biso   1.000  H
  H24      1.0000 0.27600  0.52610  0.50020  Biso   1.000  H
  H25      1.0000 0.08600  0.41200  0.13000  Biso   1.000  H
  H26      1.0000 0.91400  0.91200  0.37000  Biso   1.000  H
  H27      1.0000 0.91400  0.58800  0.87000  Biso   1.000  H
  H28      1.0000 0.08600  0.08800  0.63000  Biso   1.000  H
