data_image0
_cell_length_a       12.8614
_cell_length_b       13.0548
_cell_length_c       14.7859
_cell_angle_alpha    97.359
_cell_angle_beta     97.339
_cell_angle_gamma    102.717

_symmetry_space_group_name_H-M    "P 1"
_symmetry_int_tables_number       1

loop_
  _symmetry_equiv_pos_as_xyz
  'x, y, z'

loop_
  _atom_site_label
  _atom_site_occupancy
  _atom_site_fract_x
  _atom_site_fract_y
  _atom_site_fract_z
  _atom_site_thermal_displace_type
  _atom_site_B_iso_or_equiv
  _atom_site_type_symbol
  Mo1      1.0000 0.88625  0.72393  0.43880  Biso   1.000  Mo
  Mo2      1.0000 0.11375  0.27607  0.56120  Biso   1.000  Mo
  Si1      1.0000 0.00000  0.00000  0.50000  Biso   1.000  Si
  O1       1.0000 0.96110  0.11920  0.52780  Biso   1.000  O
  O2       1.0000 0.03890  0.88080  0.47220  Biso   1.000  O
  O3       1.0000 0.87940  0.91040  0.49390  Biso   1.000  O
  O4       1.0000 0.12060  0.08960  0.50610  Biso   1.000  O
  Mo3      1.0000 0.89364  0.15300  0.66207  Biso   1.000  Mo
  Mo4      1.0000 0.10636  0.84700  0.33793  Biso   1.000  Mo
  O5       1.0000 0.97210  0.00080  0.60090  Biso   1.000  O
  O6       1.0000 0.02790  0.99920  0.39910  Biso   1.000  O
  O7       1.0000 0.08310  0.98840  0.57680  Biso   1.000  O
  O8       1.0000 0.91690  0.01160  0.42320  Biso   1.000  O
  Mo5      1.0000 0.81467  0.87207  0.62844  Biso   1.000  Mo
  Mo6      1.0000 0.18533  0.12793  0.37156  Biso   1.000  Mo
  O9       1.0000 0.84090  0.59390  0.42370  Biso   1.000  O
  O10      1.0000 0.15910  0.40610  0.57630  Biso   1.000  O
  Mo7      1.0000 0.14755  0.82069  0.57429  Biso   1.000  Mo
  Mo8      1.0000 0.85245  0.17931  0.42571  Biso   1.000  Mo
  O11      1.0000 0.22450  0.74000  0.60410  Biso   1.000  O
  O12      1.0000 0.77550  0.26000  0.39590  Biso   1.000  O
  Mo9      1.0000 0.27503  0.09510  0.60139  Biso   1.000  Mo
  Mo10     1.0000 0.72497  0.90490  0.39861  Biso   1.000  Mo
  O13      1.0000 0.71680  0.81820  0.68290  Biso   1.000  O
  O14      1.0000 0.28320  0.18180  0.31710  Biso   1.000  O
  Mo11     1.0000 0.07917  0.00702  0.73926  Biso   1.000  Mo
  Mo12     1.0000 0.92083  0.99298  0.26074  Biso   1.000  Mo
  O15      1.0000 0.11270  0.00020  0.84970  Biso   1.000  O
  O16      1.0000 0.88730  0.99980  0.15030  Biso   1.000  O
  O17      1.0000 0.85620  0.23210  0.74120  Biso   1.000  O
  O18      1.0000 0.14380  0.76790  0.25880  Biso   1.000  O
  O19      1.0000 0.40080  0.14360  0.65180  Biso   1.000  O
  O20      1.0000 0.59920  0.85640  0.34820  Biso   1.000  O
  O21      1.0000 0.97490  0.74220  0.35420  Biso   1.000  O
  O22      1.0000 0.02510  0.25780  0.64580  Biso   1.000  O
  O23      1.0000 0.78030  0.77250  0.38540  Biso   1.000  O
  O24      1.0000 0.21970  0.22750  0.61460  Biso   1.000  O
  O25      1.0000 0.01990  0.72910  0.53100  Biso   1.000  O
  O26      1.0000 0.98010  0.27090  0.46900  Biso   1.000  O
  O27      1.0000 0.83740  0.75600  0.56050  Biso   1.000  O
  O28      1.0000 0.16260  0.24400  0.43950  Biso   1.000  O
  O29      1.0000 0.17430  0.82150  0.44390  Biso   1.000  O
  O30      1.0000 0.82570  0.17850  0.55610  Biso   1.000  O
  O31      1.0000 0.93360  0.90060  0.71330  Biso   1.000  O
  O32      1.0000 0.06640  0.09940  0.28670  Biso   1.000  O
  O33      1.0000 0.11890  0.87310  0.68660  Biso   1.000  O
  O34      1.0000 0.88110  0.12690  0.31340  Biso   1.000  O
  O35      1.0000 0.80620  0.02450  0.66110  Biso   1.000  O
  O36      1.0000 0.19380  0.97550  0.33890  Biso   1.000  O
  O37      1.0000 0.26560  0.95410  0.58790  Biso   1.000  O
  O38      1.0000 0.73440  0.04590  0.41210  Biso   1.000  O
  O39      1.0000 0.00690  0.10900  0.74340  Biso   1.000  O
  O40      1.0000 0.99310  0.89100  0.25660  Biso   1.000  O
  O41      1.0000 0.20350  0.08110  0.71190  Biso   1.000  O
  O42      1.0000 0.79650  0.91890  0.28810  Biso   1.000  O
  O43      1.0000 0.28120  0.11150  0.48210  Biso   1.000  O
  O44      1.0000 0.71880  0.88850  0.51790  Biso   1.000  O
  Cu1      1.0000 0.00000  0.50000  0.00000  Biso   1.000  Cu
  O45      1.0000 0.06500  0.64560  0.04780  Biso   1.000  O
  O46      1.0000 0.93500  0.35440  0.95220  Biso   1.000  O
  N1       1.0000 0.97420  0.54330  0.87670  Biso   1.000  N
  N2       1.0000 0.02580  0.45670  0.12330  Biso   1.000  N
  C1       1.0000 0.95020  0.48810  0.79370  Biso   1.000  C
  C2       1.0000 0.04980  0.51190  0.20630  Biso   1.000  C
  H1       1.0000 0.93450  0.41430  0.78020  Biso   1.000  H
  H2       1.0000 0.06550  0.58570  0.21980  Biso   1.000  H
  Cu2      1.0000 0.03608  0.75406  0.98305  Biso   1.000  Cu
  Cu3      1.0000 0.96392  0.24594  0.01695  Biso   1.000  Cu
  O47      1.0000 0.96470  0.85450  0.94270  Biso   1.000  O
  O48      1.0000 0.03530  0.14550  0.05730  Biso   1.000  O
  N3       1.0000 0.99120  0.64710  0.86710  Biso   1.000  N
  N4       1.0000 0.00880  0.35290  0.13290  Biso   1.000  N
  C3       1.0000 0.97840  0.65290  0.78090  Biso   1.000  C
  C4       1.0000 0.02160  0.34710  0.21910  Biso   1.000  C
  H3       1.0000 0.98660  0.71600  0.75670  Biso   1.000  H
  H4       1.0000 0.01340  0.28400  0.24330  Biso   1.000  H
  Cu4      1.0000 0.00000  0.00000  0.00000  Biso   1.000  Cu
  N5       1.0000 0.14090  0.87120  0.06780  Biso   1.000  N
  N6       1.0000 0.85910  0.12880  0.93220  Biso   1.000  N
  N7       1.0000 0.95130  0.55440  0.72970  Biso   1.000  N
  N8       1.0000 0.04870  0.44560  0.27030  Biso   1.000  N
  N9       1.0000 0.13130  0.97380  0.06920  Biso   1.000  N
  N10      1.0000 0.86870  0.02620  0.93080  Biso   1.000  N
  C5       1.0000 0.23390  0.87360  0.11590  Biso   1.000  C
  C6       1.0000 0.76610  0.12640  0.88410  Biso   1.000  C
  H5       1.0000 0.26040  0.81440  0.12530  Biso   1.000  H
  H6       1.0000 0.73960  0.18560  0.87470  Biso   1.000  H
  C7       1.0000 0.21910  0.03540  0.11990  Biso   1.000  C
  C8       1.0000 0.78090  0.96460  0.88010  Biso   1.000  C
  H7       1.0000 0.23410  0.10920  0.13360  Biso   1.000  H
  H8       1.0000 0.76590  0.89080  0.86640  Biso   1.000  H
  N11      1.0000 0.28480  0.97350  0.14930  Biso   1.000  N
  N12      1.0000 0.71520  0.02650  0.85070  Biso   1.000  N
  C9       1.0000 0.39010  0.00550  0.21300  Biso   1.000  C
  C10      1.0000 0.60990  0.99450  0.78700  Biso   1.000  C
  H9       1.0000 0.40600  0.94380  0.23670  Biso   1.000  H
  H10      1.0000 0.59400  0.05620  0.76330  Biso   1.000  H
  H11      1.0000 0.38580  0.05700  0.26500  Biso   1.000  H
  H12      1.0000 0.61420  0.94300  0.73500  Biso   1.000  H
  C11      1.0000 0.47820  0.05280  0.16330  Biso   1.000  C
  C12      1.0000 0.52180  0.94720  0.83670  Biso   1.000  C
  H13      1.0000 0.46030  0.11220  0.13690  Biso   1.000  H
  H14      1.0000 0.53970  0.88780  0.86310  Biso   1.000  H
  H15      1.0000 0.48470  0.00010  0.11320  Biso   1.000  H
  H16      1.0000 0.51530  0.99990  0.88680  Biso   1.000  H
  C13      1.0000 0.58500  0.09100  0.22870  Biso   1.000  C
  C14      1.0000 0.41500  0.90900  0.77130  Biso   1.000  C
  H17      1.0000 0.58130  0.15230  0.27160  Biso   1.000  H
  H18      1.0000 0.41870  0.84770  0.72840  Biso   1.000  H
  H19      1.0000 0.59410  0.03520  0.26440  Biso   1.000  H
  H20      1.0000 0.40590  0.96480  0.73560  Biso   1.000  H
  C15      1.0000 0.67450  0.11810  0.18770  Biso   1.000  C
  C16      1.0000 0.32550  0.88190  0.81230  Biso   1.000  C
  H21      1.0000 0.73770  0.14090  0.23430  Biso   1.000  H
  H22      1.0000 0.26230  0.85910  0.76570  Biso   1.000  H
  H23      1.0000 0.66800  0.17500  0.15370  Biso   1.000  H
  H24      1.0000 0.33200  0.82500  0.84630  Biso   1.000  H
  H25      1.0000 0.68060  0.05760  0.14630  Biso   1.000  H
  H26      1.0000 0.31940  0.94240  0.85370  Biso   1.000  H
  Si2      1.0000 0.50000  0.50000  0.00000  Biso   1.000  Si
  Mo13     1.0000 0.23523  0.37368  0.88584  Biso   1.000  Mo
  Mo14     1.0000 0.76477  0.62632  0.11416  Biso   1.000  Mo
  Mo15     1.0000 0.41141  0.21936  0.96266  Biso   1.000  Mo
  Mo16     1.0000 0.58859  0.78064  0.03734  Biso   1.000  Mo
  Mo17     1.0000 0.41869  0.53162  0.76916  Biso   1.000  Mo
  Mo18     1.0000 0.58131  0.46838  0.23084  Biso   1.000  Mo
  Mo19     1.0000 0.68617  0.34703  0.04682  Biso   1.000  Mo
  Mo20     1.0000 0.31383  0.65297  0.95318  Biso   1.000  Mo
  Mo21     1.0000 0.69182  0.62177  0.87403  Biso   1.000  Mo
  Mo22     1.0000 0.30818  0.37823  0.12597  Biso   1.000  Mo
  Mo23     1.0000 0.57384  0.34725  0.81485  Biso   1.000  Mo
  Mo24     1.0000 0.42616  0.65275  0.18515  Biso   1.000  Mo
  O49      1.0000 0.53830  0.49940  0.89460  Biso   1.000  O
  O50      1.0000 0.46170  0.50060  0.10540  Biso   1.000  O
  O51      1.0000 0.39680  0.51320  0.93030  Biso   1.000  O
  O52      1.0000 0.60320  0.48680  0.06970  Biso   1.000  O
  O53      1.0000 0.39860  0.39920  0.99160  Biso   1.000  O
  O54      1.0000 0.60140  0.60080  0.00840  Biso   1.000  O
  O55      1.0000 0.46980  0.60790  0.02950  Biso   1.000  O
  O56      1.0000 0.53020  0.39210  0.97050  Biso   1.000  O
  O57      1.0000 0.77530  0.69020  0.81520  Biso   1.000  O
  O58      1.0000 0.22470  0.30980  0.18480  Biso   1.000  O
  O59      1.0000 0.37930  0.53930  0.65950  Biso   1.000  O
  O60      1.0000 0.62070  0.46070  0.34050  Biso   1.000  O
  O61      1.0000 0.62200  0.28040  0.73440  Biso   1.000  O
  O62      1.0000 0.37800  0.71960  0.26560  Biso   1.000  O
  O63      1.0000 0.10770  0.32430  0.83990  Biso   1.000  O
  O64      1.0000 0.89230  0.67570  0.16010  Biso   1.000  O
  O65      1.0000 0.36800  0.08780  0.94000  Biso   1.000  O
  O66      1.0000 0.63200  0.91220  0.06000  Biso   1.000  O
  O67      1.0000 0.76420  0.26590  0.07560  Biso   1.000  O
  O68      1.0000 0.23580  0.73410  0.92440  Biso   1.000  O
  O69      1.0000 0.64680  0.74610  0.93600  Biso   1.000  O
  O70      1.0000 0.35320  0.25390  0.06400  Biso   1.000  O
  O71      1.0000 0.36300  0.63090  0.83130  Biso   1.000  O
  O72      1.0000 0.63700  0.36910  0.16870  Biso   1.000  O
  O73      1.0000 0.55480  0.61280  0.79060  Biso   1.000  O
  O74      1.0000 0.44520  0.38720  0.20940  Biso   1.000  O
  O75      1.0000 0.48150  0.40590  0.74860  Biso   1.000  O
  O76      1.0000 0.51850  0.59410  0.25140  Biso   1.000  O
  O77      1.0000 0.29660  0.42200  0.79040  Biso   1.000  O
  O78      1.0000 0.70340  0.57800  0.20960  Biso   1.000  O
  O79      1.0000 0.21900  0.37210  0.01780  Biso   1.000  O
  O80      1.0000 0.78100  0.62790  0.98220  Biso   1.000  O
  O81      1.0000 0.68320  0.48530  0.82710  Biso   1.000  O
  O82      1.0000 0.31680  0.51470  0.17290  Biso   1.000  O
  O83      1.0000 0.68020  0.33510  0.92180  Biso   1.000  O
  O84      1.0000 0.31980  0.66490  0.07820  Biso   1.000  O
  O85      1.0000 0.47680  0.24500  0.85020  Biso   1.000  O
  O86      1.0000 0.52320  0.75500  0.14980  Biso   1.000  O
  O87      1.0000 0.29170  0.26010  0.88900  Biso   1.000  O
  O88      1.0000 0.70830  0.73990  0.11100  Biso   1.000  O
  O89      1.0000 0.54640  0.23550  0.02370  Biso   1.000  O
  O90      1.0000 0.45360  0.76450  0.97630  Biso   1.000  O
  O91      1.0000 0.77830  0.47670  0.07680  Biso   1.000  O
  O92      1.0000 0.22170  0.52330  0.92320  Biso   1.000  O
