data_image0
_cell_length_a       7.58
_cell_length_b       10.008
_cell_length_c       10.1999
_cell_angle_alpha    67.168
_cell_angle_beta     88.318
_cell_angle_gamma    68.012

_symmetry_space_group_name_H-M    "P 1"
_symmetry_int_tables_number       1

loop_
  _symmetry_equiv_pos_as_xyz
  'x, y, z'

loop_
  _atom_site_label
  _atom_site_occupancy
  _atom_site_fract_x
  _atom_site_fract_y
  _atom_site_fract_z
  _atom_site_thermal_displace_type
  _atom_site_B_iso_or_equiv
  _atom_site_type_symbol
  Cu1      1.0000 0.00000  0.50000  0.50000  Biso   1.000  Cu
  S1       1.0000 0.84208  0.55705  0.20223  Biso   1.000  S
  S2       1.0000 0.15792  0.44295  0.79777  Biso   1.000  S
  Na1      1.0000 0.48441  0.18636  0.35970  Biso   1.000  Na
  Na2      1.0000 0.51559  0.81364  0.64030  Biso   1.000  Na
  O1       1.0000 0.21570  0.32070  0.49170  Biso   1.000  O
  O2       1.0000 0.78430  0.67930  0.50830  Biso   1.000  O
  N1       1.0000 0.88420  0.34430  0.58280  Biso   1.000  N
  N2       1.0000 0.11580  0.65570  0.41720  Biso   1.000  N
  O3       1.0000 0.24540  0.28940  0.16990  Biso   1.000  O
  O4       1.0000 0.75460  0.71060  0.83010  Biso   1.000  O
  N3       1.0000 0.65510  0.34720  0.29690  Biso   1.000  N
  N4       1.0000 0.34490  0.65280  0.70310  Biso   1.000  N
  C1       1.0000 0.99820  0.20110  0.58970  Biso   1.000  C
  C2       1.0000 0.00180  0.79890  0.41030  Biso   1.000  C
  O5       1.0000 0.30560  0.06770  0.53710  Biso   1.000  O
  O6       1.0000 0.69440  0.93230  0.46290  Biso   1.000  O
  C3       1.0000 0.18860  0.19230  0.53780  Biso   1.000  C
  C4       1.0000 0.81140  0.80770  0.46220  Biso   1.000  C
  C5       1.0000 0.73240  0.43280  0.25690  Biso   1.000  C
  C6       1.0000 0.26760  0.56720  0.74310  Biso   1.000  C
  C7       1.0000 0.76210  0.09850  0.68050  Biso   1.000  C
  C8       1.0000 0.23790  0.90150  0.31950  Biso   1.000  C
  H1       1.0000 0.72060  0.01610  0.71330  Biso   1.000  H
  H2       1.0000 0.27940  0.98390  0.28670  Biso   1.000  H
  C9       1.0000 0.64470  0.24570  0.67300  Biso   1.000  C
  C10      1.0000 0.35530  0.75430  0.32700  Biso   1.000  C
  H3       1.0000 0.52300  0.26360  0.70100  Biso   1.000  H
  H4       1.0000 0.47700  0.73640  0.29900  Biso   1.000  H
  C11      1.0000 0.70940  0.36600  0.62370  Biso   1.000  C
  C12      1.0000 0.29060  0.63400  0.37630  Biso   1.000  C
  H5       1.0000 0.62950  0.46510  0.61860  Biso   1.000  H
  H6       1.0000 0.37050  0.53490  0.38140  Biso   1.000  H
  C13      1.0000 0.94300  0.07540  0.63840  Biso   1.000  C
  C14      1.0000 0.05700  0.92460  0.36160  Biso   1.000  C
  H7       1.0000 0.02530  0.97720  0.64280  Biso   1.000  H
  H8       1.0000 0.97470  0.02280  0.35720  Biso   1.000  H
  C15      1.0000 0.95340  0.03070  0.01600  Biso   1.000  C
  C16      1.0000 0.04660  0.96930  0.98400  Biso   1.000  C
  O7       1.0000 0.66690  0.08570  0.13320  Biso   1.000  O
  O8       1.0000 0.33310  0.91430  0.86680  Biso   1.000  O
  O9       1.0000 0.74500  0.30540  0.99440  Biso   1.000  O
  O10      1.0000 0.25500  0.69460  0.00560  Biso   1.000  O
  C17      1.0000 0.74610  0.16410  0.03920  Biso   1.000  C
  C18      1.0000 0.25390  0.83590  0.96080  Biso   1.000  C
  C19      1.0000 0.87640  0.22000  0.98630  Biso   1.000  C
  C20      1.0000 0.12360  0.78000  0.01370  Biso   1.000  C
  C21      1.0000 0.71920  0.04080  0.05310  Biso   1.000  C
  C22      1.0000 0.28080  0.95920  0.94690  Biso   1.000  C
  C23      1.0000 0.93060  0.90200  0.03620  Biso   1.000  C
  C24      1.0000 0.06940  0.09800  0.96380  Biso   1.000  C
  H9       1.0000 0.12900  0.34700  0.18100  Biso   1.000  H
  H10      1.0000 0.87100  0.65300  0.81900  Biso   1.000  H
  H11      1.0000 0.27700  0.29200  0.08500  Biso   1.000  H
  H12      1.0000 0.72300  0.70800  0.91500  Biso   1.000  H
