data_image0
_cell_length_a       18.9136
_cell_length_b       7.4321
_cell_length_c       14.5797
_cell_angle_alpha    90
_cell_angle_beta     105.623
_cell_angle_gamma    90

_symmetry_space_group_name_H-M    "P 1"
_symmetry_int_tables_number       1

loop_
  _symmetry_equiv_pos_as_xyz
  'x, y, z'

loop_
  _atom_site_label
  _atom_site_occupancy
  _atom_site_fract_x
  _atom_site_fract_y
  _atom_site_fract_z
  _atom_site_thermal_displace_type
  _atom_site_B_iso_or_equiv
  _atom_site_type_symbol
  Cu1      1.0000 0.00000  0.00000  0.50000  Biso   1.000  Cu
  Cu2      1.0000 0.00000  0.00000  0.00000  Biso   1.000  Cu
  Cu3      1.0000 0.50000  0.50000  0.50000  Biso   1.000  Cu
  Cu4      1.0000 0.50000  0.50000  0.00000  Biso   1.000  Cu
  S1       1.0000 0.07703  0.13017  0.69282  Biso   1.000  S
  S2       1.0000 0.92297  0.13017  0.80718  Biso   1.000  S
  S3       1.0000 0.57703  0.63017  0.69282  Biso   1.000  S
  S4       1.0000 0.42297  0.63017  0.80718  Biso   1.000  S
  S5       1.0000 0.92297  0.86983  0.30718  Biso   1.000  S
  S6       1.0000 0.07703  0.86983  0.19282  Biso   1.000  S
  S7       1.0000 0.42297  0.36983  0.30718  Biso   1.000  S
  S8       1.0000 0.57703  0.36983  0.19282  Biso   1.000  S
  Na1      1.0000 0.19820  0.66508  0.57333  Biso   1.000  Na
  Na2      1.0000 0.80180  0.66508  0.92667  Biso   1.000  Na
  Na3      1.0000 0.69820  0.16508  0.57333  Biso   1.000  Na
  Na4      1.0000 0.30180  0.16508  0.92667  Biso   1.000  Na
  Na5      1.0000 0.80180  0.33492  0.42667  Biso   1.000  Na
  Na6      1.0000 0.19820  0.33492  0.07333  Biso   1.000  Na
  Na7      1.0000 0.30180  0.83492  0.42667  Biso   1.000  Na
  Na8      1.0000 0.69820  0.83492  0.07333  Biso   1.000  Na
  O1       1.0000 0.09014  0.86890  0.49891  Biso   1.000  O
  O2       1.0000 0.90986  0.86890  0.00109  Biso   1.000  O
  O3       1.0000 0.59014  0.36890  0.49891  Biso   1.000  O
  O4       1.0000 0.40986  0.36890  0.00109  Biso   1.000  O
  O5       1.0000 0.90986  0.13110  0.50109  Biso   1.000  O
  O6       1.0000 0.09014  0.13110  0.99891  Biso   1.000  O
  O7       1.0000 0.40986  0.63110  0.50109  Biso   1.000  O
  O8       1.0000 0.59014  0.63110  0.99891  Biso   1.000  O
  O9       1.0000 0.21646  0.86420  0.69448  Biso   1.000  O
  O10      1.0000 0.78354  0.86420  0.80552  Biso   1.000  O
  O11      1.0000 0.71646  0.36420  0.69448  Biso   1.000  O
  O12      1.0000 0.28354  0.36420  0.80552  Biso   1.000  O
  O13      1.0000 0.78354  0.13580  0.30552  Biso   1.000  O
  O14      1.0000 0.21646  0.13580  0.19448  Biso   1.000  O
  O15      1.0000 0.28354  0.63580  0.30552  Biso   1.000  O
  O16      1.0000 0.71646  0.63580  0.19448  Biso   1.000  O
  O17      1.0000 0.19452  0.90030  0.45832  Biso   1.000  O
  O18      1.0000 0.80548  0.90030  0.04168  Biso   1.000  O
  O19      1.0000 0.69452  0.40030  0.45832  Biso   1.000  O
  O20      1.0000 0.30548  0.40030  0.04168  Biso   1.000  O
  O21      1.0000 0.80548  0.09970  0.54168  Biso   1.000  O
  O22      1.0000 0.19452  0.09970  0.95832  Biso   1.000  O
  O23      1.0000 0.30548  0.59970  0.54168  Biso   1.000  O
  O24      1.0000 0.69452  0.59970  0.95832  Biso   1.000  O
  N1       1.0000 0.04320  0.19020  0.43691  Biso   1.000  N
  N2       1.0000 0.95680  0.19020  0.06309  Biso   1.000  N
  N3       1.0000 0.54320  0.69020  0.43691  Biso   1.000  N
  N4       1.0000 0.45680  0.69020  0.06309  Biso   1.000  N
  N5       1.0000 0.95680  0.80980  0.56309  Biso   1.000  N
  N6       1.0000 0.04320  0.80980  0.93691  Biso   1.000  N
  N7       1.0000 0.45680  0.30980  0.56309  Biso   1.000  N
  N8       1.0000 0.54320  0.30980  0.93691  Biso   1.000  N
  C1       1.0000 0.11044  0.14470  0.42874  Biso   1.000  C
  C2       1.0000 0.88956  0.14470  0.07126  Biso   1.000  C
  C3       1.0000 0.61044  0.64470  0.42874  Biso   1.000  C
  C4       1.0000 0.38956  0.64470  0.07126  Biso   1.000  C
  C5       1.0000 0.88956  0.85530  0.57126  Biso   1.000  C
  C6       1.0000 0.11044  0.85530  0.92874  Biso   1.000  C
  C7       1.0000 0.38956  0.35530  0.57126  Biso   1.000  C
  C8       1.0000 0.61044  0.35530  0.92874  Biso   1.000  C
  C9       1.0000 0.05602  0.47730  0.37093  Biso   1.000  C
  C10      1.0000 0.94398  0.47730  0.12907  Biso   1.000  C
  C11      1.0000 0.55602  0.97730  0.37093  Biso   1.000  C
  C12      1.0000 0.44398  0.97730  0.12907  Biso   1.000  C
  C13      1.0000 0.94398  0.52270  0.62907  Biso   1.000  C
  C14      1.0000 0.05602  0.52270  0.87093  Biso   1.000  C
  C15      1.0000 0.44398  0.02270  0.62907  Biso   1.000  C
  C16      1.0000 0.55602  0.02270  0.87093  Biso   1.000  C
  H1       1.0000 0.03600  0.58930  0.35050  Biso   1.000  H
  H2       1.0000 0.96400  0.58930  0.14950  Biso   1.000  H
  H3       1.0000 0.53600  0.08930  0.35050  Biso   1.000  H
  H4       1.0000 0.46400  0.08930  0.14950  Biso   1.000  H
  H5       1.0000 0.96400  0.41070  0.64950  Biso   1.000  H
  H6       1.0000 0.03600  0.41070  0.85050  Biso   1.000  H
  H7       1.0000 0.46400  0.91070  0.64950  Biso   1.000  H
  H8       1.0000 0.53600  0.91070  0.85050  Biso   1.000  H
  N9       1.0000 0.15705  0.40090  0.63096  Biso   1.000  N
  N10      1.0000 0.84295  0.40090  0.86904  Biso   1.000  N
  N11      1.0000 0.65705  0.90090  0.63096  Biso   1.000  N
  N12      1.0000 0.34295  0.90090  0.86904  Biso   1.000  N
  N13      1.0000 0.84295  0.59910  0.36904  Biso   1.000  N
  N14      1.0000 0.15705  0.59910  0.13096  Biso   1.000  N
  N15      1.0000 0.34295  0.09910  0.36904  Biso   1.000  N
  N16      1.0000 0.65705  0.09910  0.13096  Biso   1.000  N
  C17      1.0000 0.13431  0.95820  0.46343  Biso   1.000  C
  C18      1.0000 0.86569  0.95820  0.03657  Biso   1.000  C
  C19      1.0000 0.63431  0.45820  0.46343  Biso   1.000  C
  C20      1.0000 0.36569  0.45820  0.03657  Biso   1.000  C
  C21      1.0000 0.86569  0.04180  0.53657  Biso   1.000  C
  C22      1.0000 0.13431  0.04180  0.96343  Biso   1.000  C
  C23      1.0000 0.36569  0.54180  0.53657  Biso   1.000  C
  C24      1.0000 0.63431  0.54180  0.96343  Biso   1.000  C
  C25      1.0000 0.12541  0.43250  0.36412  Biso   1.000  C
  C26      1.0000 0.87459  0.43250  0.13588  Biso   1.000  C
  C27      1.0000 0.62541  0.93250  0.36412  Biso   1.000  C
  C28      1.0000 0.37459  0.93250  0.13588  Biso   1.000  C
  C29      1.0000 0.87459  0.56750  0.63588  Biso   1.000  C
  C30      1.0000 0.12541  0.56750  0.86412  Biso   1.000  C
  C31      1.0000 0.37459  0.06750  0.63588  Biso   1.000  C
  C32      1.0000 0.62541  0.06750  0.86412  Biso   1.000  C
  H9       1.0000 0.15320  0.51500  0.34080  Biso   1.000  H
  H10      1.0000 0.84680  0.51500  0.15920  Biso   1.000  H
  H11      1.0000 0.65320  0.01500  0.34080  Biso   1.000  H
  H12      1.0000 0.34680  0.01500  0.15920  Biso   1.000  H
  H13      1.0000 0.84680  0.48500  0.65920  Biso   1.000  H
  H14      1.0000 0.15320  0.48500  0.84080  Biso   1.000  H
  H15      1.0000 0.34680  0.98500  0.65920  Biso   1.000  H
  H16      1.0000 0.65320  0.98500  0.84080  Biso   1.000  H
  C33      1.0000 0.12382  0.28840  0.65585  Biso   1.000  C
  C34      1.0000 0.87618  0.28840  0.84415  Biso   1.000  C
  C35      1.0000 0.62382  0.78840  0.65585  Biso   1.000  C
  C36      1.0000 0.37618  0.78840  0.84415  Biso   1.000  C
  C37      1.0000 0.87618  0.71160  0.34415  Biso   1.000  C
  C38      1.0000 0.12382  0.71160  0.15585  Biso   1.000  C
  C39      1.0000 0.37618  0.21160  0.34415  Biso   1.000  C
  C40      1.0000 0.62382  0.21160  0.15585  Biso   1.000  C
  C41      1.0000 0.01679  0.35400  0.40826  Biso   1.000  C
  C42      1.0000 0.98321  0.35400  0.09174  Biso   1.000  C
  C43      1.0000 0.51679  0.85400  0.40826  Biso   1.000  C
  C44      1.0000 0.48321  0.85400  0.09174  Biso   1.000  C
  C45      1.0000 0.98321  0.64600  0.59174  Biso   1.000  C
  C46      1.0000 0.01679  0.64600  0.90826  Biso   1.000  C
  C47      1.0000 0.48321  0.14600  0.59174  Biso   1.000  C
  C48      1.0000 0.51679  0.14600  0.90826  Biso   1.000  C
  H17      1.0000 0.97050  0.38570  0.41370  Biso   1.000  H
  H18      1.0000 0.02950  0.38570  0.08630  Biso   1.000  H
  H19      1.0000 0.47050  0.88570  0.41370  Biso   1.000  H
  H20      1.0000 0.52950  0.88570  0.08630  Biso   1.000  H
  H21      1.0000 0.02950  0.61430  0.58630  Biso   1.000  H
  H22      1.0000 0.97050  0.61430  0.91370  Biso   1.000  H
  H23      1.0000 0.52950  0.11430  0.58630  Biso   1.000  H
  H24      1.0000 0.47050  0.11430  0.91370  Biso   1.000  H
  C49      1.0000 0.15293  0.26170  0.39281  Biso   1.000  C
  C50      1.0000 0.84707  0.26170  0.10719  Biso   1.000  C
  C51      1.0000 0.65293  0.76170  0.39281  Biso   1.000  C
  C52      1.0000 0.34707  0.76170  0.10719  Biso   1.000  C
  C53      1.0000 0.84707  0.73830  0.60719  Biso   1.000  C
  C54      1.0000 0.15293  0.73830  0.89281  Biso   1.000  C
  C55      1.0000 0.34707  0.23830  0.60719  Biso   1.000  C
  C56      1.0000 0.65293  0.23830  0.89281  Biso   1.000  C
  H25      1.0000 0.19900  0.22720  0.38780  Biso   1.000  H
  H26      1.0000 0.80100  0.22720  0.11220  Biso   1.000  H
  H27      1.0000 0.69900  0.72720  0.38780  Biso   1.000  H
  H28      1.0000 0.30100  0.72720  0.11220  Biso   1.000  H
  H29      1.0000 0.80100  0.77280  0.61220  Biso   1.000  H
  H30      1.0000 0.19900  0.77280  0.88780  Biso   1.000  H
  H31      1.0000 0.30100  0.27280  0.61220  Biso   1.000  H
  H32      1.0000 0.69900  0.27280  0.88780  Biso   1.000  H
  H33      1.0000 0.18500  0.91900  0.69600  Biso   1.000  H
  H34      1.0000 0.81500  0.91900  0.80400  Biso   1.000  H
  H35      1.0000 0.68500  0.41900  0.69600  Biso   1.000  H
  H36      1.0000 0.31500  0.41900  0.80400  Biso   1.000  H
  H37      1.0000 0.81500  0.08100  0.30400  Biso   1.000  H
  H38      1.0000 0.18500  0.08100  0.19600  Biso   1.000  H
  H39      1.0000 0.31500  0.58100  0.30400  Biso   1.000  H
  H40      1.0000 0.68500  0.58100  0.19600  Biso   1.000  H
  H41      1.0000 0.24560  0.87600  0.74000  Biso   1.000  H
  H42      1.0000 0.75440  0.87600  0.76000  Biso   1.000  H
  H43      1.0000 0.74560  0.37600  0.74000  Biso   1.000  H
  H44      1.0000 0.25440  0.37600  0.76000  Biso   1.000  H
  H45      1.0000 0.75440  0.12400  0.26000  Biso   1.000  H
  H46      1.0000 0.24560  0.12400  0.24000  Biso   1.000  H
  H47      1.0000 0.25440  0.62400  0.26000  Biso   1.000  H
  H48      1.0000 0.74560  0.62400  0.24000  Biso   1.000  H
