data_image0
_cell_length_a       5.5798
_cell_length_b       6.1164
_cell_length_c       19.2058
_cell_angle_alpha    90
_cell_angle_beta     97.672
_cell_angle_gamma    90

_symmetry_space_group_name_H-M    "P 1"
_symmetry_int_tables_number       1

loop_
  _symmetry_equiv_pos_as_xyz
  'x, y, z'

loop_
  _atom_site_label
  _atom_site_occupancy
  _atom_site_fract_x
  _atom_site_fract_y
  _atom_site_fract_z
  _atom_site_thermal_displace_type
  _atom_site_B_iso_or_equiv
  _atom_site_type_symbol
  Cu1      1.0000 0.50472  0.13352  0.25356  Biso   1.000  Cu
  Cu2      1.0000 0.49528  0.63352  0.24644  Biso   1.000  Cu
  Cu3      1.0000 0.49528  0.86648  0.74644  Biso   1.000  Cu
  Cu4      1.0000 0.50472  0.36648  0.75356  Biso   1.000  Cu
  Cu5      1.0000 0.00548  0.38536  0.24956  Biso   1.000  Cu
  Cu6      1.0000 0.99452  0.88536  0.25044  Biso   1.000  Cu
  Cu7      1.0000 0.99452  0.61464  0.75044  Biso   1.000  Cu
  Cu8      1.0000 0.00548  0.11464  0.74956  Biso   1.000  Cu
  S1       1.0000 0.37042  0.80224  0.40948  Biso   1.000  S
  S2       1.0000 0.62958  0.30224  0.09052  Biso   1.000  S
  S3       1.0000 0.62958  0.19776  0.59052  Biso   1.000  S
  S4       1.0000 0.37042  0.69776  0.90948  Biso   1.000  S
  O1       1.0000 0.40400  0.38800  0.29994  Biso   1.000  O
  O2       1.0000 0.59600  0.88800  0.20006  Biso   1.000  O
  O3       1.0000 0.59600  0.61200  0.70006  Biso   1.000  O
  O4       1.0000 0.40400  0.11200  0.79994  Biso   1.000  O
  O5       1.0000 0.35280  0.87920  0.33566  Biso   1.000  O
  O6       1.0000 0.64720  0.37920  0.16434  Biso   1.000  O
  O7       1.0000 0.64720  0.12080  0.66434  Biso   1.000  O
  O8       1.0000 0.35280  0.62080  0.83566  Biso   1.000  O
  O9       1.0000 0.53670  0.61860  0.42240  Biso   1.000  O
  O10      1.0000 0.46330  0.11860  0.07760  Biso   1.000  O
  O11      1.0000 0.46330  0.38140  0.57760  Biso   1.000  O
  O12      1.0000 0.53670  0.88140  0.92240  Biso   1.000  O
  O13      1.0000 0.84870  0.13930  0.29460  Biso   1.000  O
  O14      1.0000 0.15130  0.63930  0.20540  Biso   1.000  O
  O15      1.0000 0.15130  0.86070  0.70540  Biso   1.000  O
  O16      1.0000 0.84870  0.36070  0.79460  Biso   1.000  O
  O17      1.0000 0.16060  0.12930  0.20810  Biso   1.000  O
  O18      1.0000 0.83940  0.62930  0.29190  Biso   1.000  O
  O19      1.0000 0.83940  0.87070  0.79190  Biso   1.000  O
  O20      1.0000 0.16060  0.37070  0.70810  Biso   1.000  O
  C1       1.0000 0.50020  0.02200  0.46110  Biso   1.000  C
  C2       1.0000 0.49980  0.52200  0.03890  Biso   1.000  C
  C3       1.0000 0.49980  0.97800  0.53890  Biso   1.000  C
  C4       1.0000 0.50020  0.47800  0.96110  Biso   1.000  C
  H1       1.0000 0.66850  0.04490  0.45160  Biso   1.000  H
  H2       1.0000 0.33150  0.54490  0.04840  Biso   1.000  H
  H3       1.0000 0.33150  0.95510  0.54840  Biso   1.000  H
  H4       1.0000 0.66850  0.45510  0.95160  Biso   1.000  H
  H5       1.0000 0.40780  0.15740  0.44790  Biso   1.000  H
  H6       1.0000 0.59220  0.65740  0.05210  Biso   1.000  H
  H7       1.0000 0.59220  0.84260  0.55210  Biso   1.000  H
  H8       1.0000 0.40780  0.34260  0.94790  Biso   1.000  H
  O21      1.0000 0.13330  0.75720  0.42928  Biso   1.000  O
  O22      1.0000 0.86670  0.25720  0.07072  Biso   1.000  O
  O23      1.0000 0.86670  0.24280  0.57072  Biso   1.000  O
  O24      1.0000 0.13330  0.74280  0.92928  Biso   1.000  O
  H9       1.0000 0.44100  0.39700  0.33000  Biso   1.000  H
  H10      1.0000 0.55900  0.89700  0.17000  Biso   1.000  H
  H11      1.0000 0.55900  0.60300  0.67000  Biso   1.000  H
  H12      1.0000 0.44100  0.10300  0.83000  Biso   1.000  H
  H13      1.0000 0.87100  0.15700  0.31720  Biso   1.000  H
  H14      1.0000 0.12900  0.65700  0.18280  Biso   1.000  H
  H15      1.0000 0.12900  0.84300  0.68280  Biso   1.000  H
  H16      1.0000 0.87100  0.34300  0.81720  Biso   1.000  H
  H17      1.0000 0.15700  0.13800  0.18400  Biso   1.000  H
  H18      1.0000 0.84300  0.63800  0.31600  Biso   1.000  H
  H19      1.0000 0.84300  0.86200  0.81600  Biso   1.000  H
  H20      1.0000 0.15700  0.36200  0.68400  Biso   1.000  H
  O25      1.0000 0.99880  0.30020  0.43060  Biso   1.000  O
  O26      1.0000 0.00120  0.80020  0.06940  Biso   1.000  O
  O27      1.0000 0.00120  0.69980  0.56940  Biso   1.000  O
  O28      1.0000 0.99880  0.19980  0.93060  Biso   1.000  O
  H21      1.0000 0.93380  0.28630  0.47750  Biso   1.000  H
  H22      1.0000 0.06620  0.78630  0.02250  Biso   1.000  H
  H23      1.0000 0.06620  0.71370  0.52250  Biso   1.000  H
  H24      1.0000 0.93380  0.21370  0.97750  Biso   1.000  H
  H25      1.0000 0.95820  0.46240  0.42820  Biso   1.000  H
  H26      1.0000 0.04180  0.96240  0.07180  Biso   1.000  H
  H27      1.0000 0.04180  0.53760  0.57180  Biso   1.000  H
  H28      1.0000 0.95820  0.03760  0.92820  Biso   1.000  H
