data_image0
_cell_length_a       9.3862
_cell_length_b       10.7268
_cell_length_c       13.3463
_cell_angle_alpha    70.106
_cell_angle_beta     75.783
_cell_angle_gamma    84.529

_symmetry_space_group_name_H-M    "P 1"
_symmetry_int_tables_number       1

loop_
  _symmetry_equiv_pos_as_xyz
  'x, y, z'

loop_
  _atom_site_label
  _atom_site_occupancy
  _atom_site_fract_x
  _atom_site_fract_y
  _atom_site_fract_z
  _atom_site_thermal_displace_type
  _atom_site_B_iso_or_equiv
  _atom_site_type_symbol
  Cu1      1.0000 0.50000  0.00000  0.50000  Biso   1.000  Cu
  Cu2      1.0000 0.00000  0.00000  0.00000  Biso   1.000  Cu
  O1       1.0000 0.69120  0.93448  0.52965  Biso   1.000  O
  O2       1.0000 0.30880  0.06552  0.47035  Biso   1.000  O
  O3       1.0000 0.42753  0.82214  0.53940  Biso   1.000  O
  O4       1.0000 0.57247  0.17786  0.46060  Biso   1.000  O
  O5       1.0000 0.08960  0.90794  0.12137  Biso   1.000  O
  O6       1.0000 0.91040  0.09206  0.87863  Biso   1.000  O
  O7       1.0000 0.91720  0.83916  0.00255  Biso   1.000  O
  O8       1.0000 0.08280  0.16084  0.99745  Biso   1.000  O
  N1       1.0000 0.58870  0.01070  0.30140  Biso   1.000  N
  N2       1.0000 0.41130  0.98930  0.69860  Biso   1.000  N
  N3       1.0000 0.75750  0.02950  0.13082  Biso   1.000  N
  N4       1.0000 0.24250  0.97050  0.86918  Biso   1.000  N
  N5       1.0000 0.83760  0.02170  0.28180  Biso   1.000  N
  N6       1.0000 0.16240  0.97830  0.71820  Biso   1.000  N
  H1       1.0000 0.82150  0.01630  0.34940  Biso   1.000  H
  H2       1.0000 0.17850  0.98370  0.65060  Biso   1.000  H
  H3       1.0000 0.92610  0.02790  0.24280  Biso   1.000  H
  H4       1.0000 0.07390  0.97210  0.75720  Biso   1.000  H
  F1       1.0000 0.89630  0.67040  0.66120  Biso   1.000  F
  F2       1.0000 0.10370  0.32960  0.33880  Biso   1.000  F
  F3       1.0000 0.88050  0.86190  0.66840  Biso   1.000  F
  F4       1.0000 0.11950  0.13810  0.33160  Biso   1.000  F
  F5       1.0000 0.97010  0.83480  0.52000  Biso   1.000  F
  F6       1.0000 0.02990  0.16520  0.48000  Biso   1.000  F
  F7       1.0000 0.16760  0.60820  0.30640  Biso   1.000  F
  F8       1.0000 0.83240  0.39180  0.69360  Biso   1.000  F
  F9       1.0000 0.15430  0.80070  0.31630  Biso   1.000  F
  F10      1.0000 0.84570  0.19930  0.68370  Biso   1.000  F
  F11      1.0000 0.32050  0.75230  0.20210  Biso   1.000  F
  F12      1.0000 0.67950  0.24770  0.79790  Biso   1.000  F
  C1       1.0000 0.86580  0.79200  0.60720  Biso   1.000  C
  C2       1.0000 0.13420  0.20800  0.39280  Biso   1.000  C
  C3       1.0000 0.71410  0.81340  0.58113  Biso   1.000  C
  C4       1.0000 0.28590  0.18660  0.41887  Biso   1.000  C
  C5       1.0000 0.62560  0.70700  0.61250  Biso   1.000  C
  C6       1.0000 0.37440  0.29300  0.38750  Biso   1.000  C
  H5       1.0000 0.65720  0.62540  0.65430  Biso   1.000  H
  H6       1.0000 0.34280  0.37460  0.34570  Biso   1.000  H
  C7       1.0000 0.48680  0.71380  0.58477  Biso   1.000  C
  C8       1.0000 0.51320  0.28620  0.41523  Biso   1.000  C
  C9       1.0000 0.40760  0.59110  0.60535  Biso   1.000  C
  C10      1.0000 0.59240  0.40890  0.39465  Biso   1.000  C
  C11      1.0000 0.45250  0.46690  0.66460  Biso   1.000  C
  C12      1.0000 0.54750  0.53310  0.33540  Biso   1.000  C
  H7       1.0000 0.53320  0.45870  0.69540  Biso   1.000  H
  H8       1.0000 0.46680  0.54130  0.30460  Biso   1.000  H
  C13      1.0000 0.37770  0.35440  0.67830  Biso   1.000  C
  C14      1.0000 0.62230  0.64560  0.32170  Biso   1.000  C
  H9       1.0000 0.40830  0.27140  0.71860  Biso   1.000  H
  H10      1.0000 0.59170  0.72860  0.28140  Biso   1.000  H
  C15      1.0000 0.26020  0.36450  0.63330  Biso   1.000  C
  C16      1.0000 0.73980  0.63550  0.36670  Biso   1.000  C
  H11      1.0000 0.21160  0.28870  0.64180  Biso   1.000  H
  H12      1.0000 0.78840  0.71130  0.35820  Biso   1.000  H
  C17      1.0000 0.21300  0.48790  0.57490  Biso   1.000  C
  C18      1.0000 0.78700  0.51210  0.42510  Biso   1.000  C
  H13      1.0000 0.13190  0.49510  0.54480  Biso   1.000  H
  H14      1.0000 0.86810  0.50490  0.45520  Biso   1.000  H
  C19      1.0000 0.28620  0.60070  0.56090  Biso   1.000  C
  C20      1.0000 0.71380  0.39930  0.43910  Biso   1.000  C
  H15      1.0000 0.25390  0.68340  0.52160  Biso   1.000  H
  H16      1.0000 0.74610  0.31660  0.47840  Biso   1.000  H
  C21      1.0000 0.17890  0.73420  0.24920  Biso   1.000  C
  C22      1.0000 0.82110  0.26580  0.75080  Biso   1.000  C
  C23      1.0000 0.08800  0.78260  0.16384  Biso   1.000  C
  C24      1.0000 0.91200  0.21740  0.83616  Biso   1.000  C
  C25      1.0000 0.01910  0.69080  0.14300  Biso   1.000  C
  C26      1.0000 0.98090  0.30920  0.85700  Biso   1.000  C
  H17      1.0000 0.02980  0.60200  0.18290  Biso   1.000  H
  H18      1.0000 0.97020  0.39800  0.81710  Biso   1.000  H
  C27      1.0000 0.93240  0.72240  0.06446  Biso   1.000  C
  C28      1.0000 0.06760  0.27760  0.93554  Biso   1.000  C
  C29      1.0000 0.85130  0.61740  0.05260  Biso   1.000  C
  C30      1.0000 0.14870  0.38260  0.94740  Biso   1.000  C
  C31      1.0000 0.84240  0.48910  0.12620  Biso   1.000  C
  C32      1.0000 0.15760  0.51090  0.87380  Biso   1.000  C
  H19      1.0000 0.88900  0.46650  0.18410  Biso   1.000  H
  H20      1.0000 0.11100  0.53350  0.81590  Biso   1.000  H
  C33      1.0000 0.76320  0.39420  0.11290  Biso   1.000  C
  C34      1.0000 0.23680  0.60580  0.88710  Biso   1.000  C
  H21      1.0000 0.75630  0.30850  0.16270  Biso   1.000  H
  H22      1.0000 0.24370  0.69150  0.83730  Biso   1.000  H
  C35      1.0000 0.69650  0.42580  0.02840  Biso   1.000  C
  C36      1.0000 0.30350  0.57420  0.97160  Biso   1.000  C
  H23      1.0000 0.64430  0.36180  0.02020  Biso   1.000  H
  H24      1.0000 0.35570  0.63820  0.97980  Biso   1.000  H
  C37      1.0000 0.70570  0.55320  0.95380  Biso   1.000  C
  C38      1.0000 0.29430  0.44680  0.04620  Biso   1.000  C
  H25      1.0000 0.66030  0.57450  0.89530  Biso   1.000  H
  H26      1.0000 0.33970  0.42550  0.10470  Biso   1.000  H
  C39      1.0000 0.78230  0.64850  0.96640  Biso   1.000  C
  C40      1.0000 0.21770  0.35150  0.03360  Biso   1.000  C
  H27      1.0000 0.78750  0.73420  0.91670  Biso   1.000  H
  H28      1.0000 0.21250  0.26580  0.08330  Biso   1.000  H
  C41      1.0000 0.72460  0.02050  0.23715  Biso   1.000  C
  C42      1.0000 0.27540  0.97950  0.76285  Biso   1.000  C
  C43      1.0000 0.47860  0.01230  0.25450  Biso   1.000  C
  C44      1.0000 0.52140  0.98770  0.74550  Biso   1.000  C
  H29      1.0000 0.38310  0.00450  0.29700  Biso   1.000  H
  H30      1.0000 0.61690  0.99550  0.70300  Biso   1.000  H
  C45      1.0000 0.49970  0.02510  0.14640  Biso   1.000  C
  C46      1.0000 0.50030  0.97490  0.85360  Biso   1.000  C
  H31      1.0000 0.42130  0.02850  0.11440  Biso   1.000  H
  H32      1.0000 0.57870  0.97150  0.88560  Biso   1.000  H
  C47      1.0000 0.64290  0.03260  0.08760  Biso   1.000  C
  C48      1.0000 0.35710  0.96740  0.91240  Biso   1.000  C
  H33      1.0000 0.66070  0.04010  0.01410  Biso   1.000  H
  H34      1.0000 0.33930  0.95990  0.98590  Biso   1.000  H
