data_image0
_cell_length_a       12.55
_cell_length_b       13.413
_cell_length_c       13.54
_cell_angle_alpha    117.12
_cell_angle_beta     115.73
_cell_angle_gamma    92.13

_symmetry_space_group_name_H-M    "P 1"
_symmetry_int_tables_number       1

loop_
  _symmetry_equiv_pos_as_xyz
  'x, y, z'

loop_
  _atom_site_label
  _atom_site_occupancy
  _atom_site_fract_x
  _atom_site_fract_y
  _atom_site_fract_z
  _atom_site_thermal_displace_type
  _atom_site_B_iso_or_equiv
  _atom_site_type_symbol
  Cu1      1.0000 0.16020  0.37250  0.25830  Biso   1.000  Cu
  Cu2      1.0000 0.83980  0.62750  0.74170  Biso   1.000  Cu
  Cu3      1.0000 0.24780  0.16500  0.34590  Biso   1.000  Cu
  Cu4      1.0000 0.75220  0.83500  0.65410  Biso   1.000  Cu
  O1       1.0000 0.24480  0.24800  0.25440  Biso   1.000  O
  O2       1.0000 0.75520  0.75200  0.74560  Biso   1.000  O
  O3       1.0000 0.30740  0.48740  0.28740  Biso   1.000  O
  O4       1.0000 0.69260  0.51260  0.71260  Biso   1.000  O
  O5       1.0000 0.01240  0.42360  0.23220  Biso   1.000  O
  O6       1.0000 0.98760  0.57640  0.76780  Biso   1.000  O
  O7       1.0000 0.33740  0.56110  0.18000  Biso   1.000  O
  O8       1.0000 0.66260  0.43890  0.82000  Biso   1.000  O
  O9       1.0000 0.82950  0.40630  0.07900  Biso   1.000  O
  O10      1.0000 0.17050  0.59370  0.92100  Biso   1.000  O
  O11      1.0000 0.28280  0.17000  0.50390  Biso   1.000  O
  O12      1.0000 0.71720  0.83000  0.49610  Biso   1.000  O
  O13      1.0000 0.21280  0.99600  0.19040  Biso   1.000  O
  O14      1.0000 0.78720  0.00400  0.80960  Biso   1.000  O
  O15      1.0000 0.43850  0.20510  0.69040  Biso   1.000  O
  O16      1.0000 0.56150  0.79490  0.30960  Biso   1.000  O
  O17      1.0000 0.31370  0.86340  0.14710  Biso   1.000  O
  O18      1.0000 0.68630  0.13660  0.85290  Biso   1.000  O
  N1       1.0000 0.09350  0.31680  0.07100  Biso   1.000  N
  N2       1.0000 0.90650  0.68320  0.92900  Biso   1.000  N
  N3       1.0000 0.42760  0.16960  0.40580  Biso   1.000  N
  N4       1.0000 0.57240  0.83040  0.59420  Biso   1.000  N
  C1       1.0000 0.30270  0.21800  0.18470  Biso   1.000  C
  C2       1.0000 0.69730  0.78200  0.81530  Biso   1.000  C
  C3       1.0000 0.24760  0.20180  0.06430  Biso   1.000  C
  C4       1.0000 0.75240  0.79820  0.93570  Biso   1.000  C
  C5       1.0000 0.30790  0.17170  0.99400  Biso   1.000  C
  C6       1.0000 0.69210  0.82830  0.00600  Biso   1.000  C
  C7       1.0000 0.42730  0.15880  0.04380  Biso   1.000  C
  C8       1.0000 0.57270  0.84120  0.95620  Biso   1.000  C
  C9       1.0000 0.49350  0.12900  0.96840  Biso   1.000  C
  C10      1.0000 0.50650  0.87100  0.03160  Biso   1.000  C
  C11      1.0000 0.48240  0.17540  0.16670  Biso   1.000  C
  C12      1.0000 0.51760  0.82460  0.83330  Biso   1.000  C
  C13      1.0000 0.42350  0.20700  0.24060  Biso   1.000  C
  C14      1.0000 0.57650  0.79300  0.75940  Biso   1.000  C
  C15      1.0000 0.11600  0.20090  0.99830  Biso   1.000  C
  C16      1.0000 0.88400  0.79910  0.00170  Biso   1.000  C
  C17      1.0000 0.49340  0.23990  0.37890  Biso   1.000  C
  C18      1.0000 0.50660  0.76010  0.62110  Biso   1.000  C
  C19      1.0000 0.15430  0.41280  0.06740  Biso   1.000  C
  C20      1.0000 0.84570  0.58720  0.93260  Biso   1.000  C
  C21      1.0000 0.27820  0.49460  0.18860  Biso   1.000  C
  C22      1.0000 0.72180  0.50540  0.81140  Biso   1.000  C
  C23      1.0000 0.95680  0.29990  0.01400  Biso   1.000  C
  C24      1.0000 0.04320  0.70010  0.98600  Biso   1.000  C
  C25      1.0000 0.92790  0.38280  0.11310  Biso   1.000  C
  C26      1.0000 0.07210  0.61720  0.88690  Biso   1.000  C
  C27      1.0000 0.48950  0.22110  0.54760  Biso   1.000  C
  C28      1.0000 0.51050  0.77890  0.45240  Biso   1.000  C
  C29      1.0000 0.40020  0.19620  0.58620  Biso   1.000  C
  C30      1.0000 0.59980  0.80380  0.41380  Biso   1.000  C
  C31      1.0000 0.42670  0.04330  0.34100  Biso   1.000  C
  C32      1.0000 0.57330  0.95670  0.65900  Biso   1.000  C
  C33      1.0000 0.30960  0.96050  0.21620  Biso   1.000  C
  C34      1.0000 0.69040  0.03950  0.78380  Biso   1.000  C
  N5       1.0000 0.22310  0.44350  0.44630  Biso   1.000  N
  N6       1.0000 0.77690  0.55650  0.55370  Biso   1.000  N
  C35      1.0000 0.14710  0.46830  0.49580  Biso   1.000  C
  C36      1.0000 0.85290  0.53170  0.50420  Biso   1.000  C
  C37      1.0000 0.19240  0.52290  0.62540  Biso   1.000  C
  C38      1.0000 0.80760  0.47710  0.37460  Biso   1.000  C
  C39      1.0000 0.31900  0.55690  0.70920  Biso   1.000  C
  C40      1.0000 0.68100  0.44310  0.29080  Biso   1.000  C
  C41      1.0000 0.39380  0.52970  0.65660  Biso   1.000  C
  C42      1.0000 0.60620  0.47030  0.34340  Biso   1.000  C
  C43      1.0000 0.34230  0.47410  0.52520  Biso   1.000  C
  C44      1.0000 0.65770  0.52590  0.47480  Biso   1.000  C
  N7       1.0000 0.06930  0.15220  0.29280  Biso   1.000  N
  N8       1.0000 0.93070  0.84780  0.70720  Biso   1.000  N
  C45      1.0000 0.99030  0.11610  0.17160  Biso   1.000  C
  C46      1.0000 0.00970  0.88390  0.82840  Biso   1.000  C
  C47      1.0000 0.86690  0.10630  0.12580  Biso   1.000  C
  C48      1.0000 0.13310  0.89370  0.87420  Biso   1.000  C
  C49      1.0000 0.82420  0.13370  0.20860  Biso   1.000  C
  C50      1.0000 0.17580  0.86630  0.79140  Biso   1.000  C
  C51      1.0000 0.90340  0.16810  0.33300  Biso   1.000  C
  C52      1.0000 0.09660  0.83190  0.66700  Biso   1.000  C
  C53      1.0000 0.02810  0.17770  0.37340  Biso   1.000  C
  C54      1.0000 0.97190  0.82230  0.62660  Biso   1.000  C
  O19      1.0000 0.22980  0.81380  0.47880  Biso   1.000  O
  O20      1.0000 0.77020  0.18620  0.52120  Biso   1.000  O
  O21      1.0000 0.01020  0.78030  0.26670  Biso   1.000  O
  O22      1.0000 0.98980  0.21970  0.73330  Biso   1.000  O
  C55      1.0000 0.14810  0.70230  0.37150  Biso   1.000  C
  C56      1.0000 0.85190  0.29770  0.62850  Biso   1.000  C
  C57      1.0000 0.02160  0.69770  0.30880  Biso   1.000  C
  C58      1.0000 0.97840  0.30230  0.69120  Biso   1.000  C
  C59      1.0000 0.09220  0.89480  0.36680  Biso   1.000  C
  C60      1.0000 0.90780  0.10520  0.63320  Biso   1.000  C
  C61      1.0000 0.21480  0.89290  0.44000  Biso   1.000  C
  C62      1.0000 0.78520  0.10710  0.56000  Biso   1.000  C
  O23      1.0000 0.43900  0.58210  0.98840  Biso   1.000  O
  O24      1.0000 0.56100  0.41790  0.01160  Biso   1.000  O
  C63      1.0000 0.56790  0.60500  0.03150  Biso   1.000  C
  C64      1.0000 0.43210  0.39500  0.96850  Biso   1.000  C
  C65      1.0000 0.37800  0.45770  0.90270  Biso   1.000  C
  C66      1.0000 0.62200  0.54230  0.09730  Biso   1.000  C
  Na1      1.0000 0.36030  0.69270  0.11920  Biso   1.000  Na
  Na2      1.0000 0.63970  0.30730  0.88080  Biso   1.000  Na
  O25      1.0000 0.78450  0.84620  0.31600  Biso   1.000  O
  O26      1.0000 0.21550  0.15380  0.68400  Biso   1.000  O
  H1       1.0000 0.26690  0.16030  0.90940  Biso   1.000  H
  H2       1.0000 0.73310  0.83970  0.09060  Biso   1.000  H
  H3       1.0000 0.57260  0.12350  0.01910  Biso   1.000  H
  H4       1.0000 0.42740  0.87650  0.98090  Biso   1.000  H
  H5       1.0000 0.44680  0.05570  0.88810  Biso   1.000  H
  H6       1.0000 0.55320  0.94430  0.11190  Biso   1.000  H
  H7       1.0000 0.50530  0.18990  0.95210  Biso   1.000  H
  H8       1.0000 0.49470  0.81010  0.04790  Biso   1.000  H
  H9       1.0000 0.56310  0.16520  0.20230  Biso   1.000  H
  H10      1.0000 0.43690  0.83480  0.79770  Biso   1.000  H
  H11      1.0000 0.09260  0.18420  0.91350  Biso   1.000  H
  H12      1.0000 0.90740  0.81580  0.08650  Biso   1.000  H
  H13      1.0000 0.06430  0.13920  0.98940  Biso   1.000  H
  H14      1.0000 0.93570  0.86080  0.01060  Biso   1.000  H
  H15      1.0000 0.57380  0.22890  0.39990  Biso   1.000  H
  H16      1.0000 0.42620  0.77110  0.60010  Biso   1.000  H
  H17      1.0000 0.50470  0.32140  0.43340  Biso   1.000  H
  H18      1.0000 0.49530  0.67860  0.56660  Biso   1.000  H
  H19      1.0000 0.09870  0.45840  0.05300  Biso   1.000  H
  H20      1.0000 0.90130  0.54160  0.94700  Biso   1.000  H
  H21      1.0000 0.16710  0.37740  0.99540  Biso   1.000  H
  H22      1.0000 0.83290  0.62260  0.00460  Biso   1.000  H
  H23      1.0000 0.91500  0.22060  0.98010  Biso   1.000  H
  H24      1.0000 0.08500  0.77940  0.01990  Biso   1.000  H
  H25      1.0000 0.92700  0.31380  0.94440  Biso   1.000  H
  H26      1.0000 0.07300  0.68620  0.05560  Biso   1.000  H
  H27      1.0000 0.52120  0.30450  0.59000  Biso   1.000  H
  H28      1.0000 0.47880  0.69550  0.41000  Biso   1.000  H
  H29      1.0000 0.55780  0.19110  0.57500  Biso   1.000  H
  H30      1.0000 0.44220  0.80890  0.42500  Biso   1.000  H
  H31      1.0000 0.44160  0.01650  0.39930  Biso   1.000  H
  H32      1.0000 0.55840  0.98350  0.60070  Biso   1.000  H
  H33      1.0000 0.49410  0.03960  0.32470  Biso   1.000  H
  H34      1.0000 0.50590  0.96040  0.67530  Biso   1.000  H
  H35      1.0000 0.05960  0.44650  0.43860  Biso   1.000  H
  H36      1.0000 0.94040  0.55350  0.56140  Biso   1.000  H
  H37      1.0000 0.13650  0.53910  0.65760  Biso   1.000  H
  H38      1.0000 0.86350  0.46090  0.34240  Biso   1.000  H
  H39      1.0000 0.35210  0.59590  0.80050  Biso   1.000  H
  H40      1.0000 0.64790  0.40410  0.19950  Biso   1.000  H
  H41      1.0000 0.48170  0.55150  0.71140  Biso   1.000  H
  H42      1.0000 0.51830  0.44850  0.28860  Biso   1.000  H
  H43      1.0000 0.39510  0.45550  0.48910  Biso   1.000  H
  H44      1.0000 0.60490  0.54450  0.51090  Biso   1.000  H
  H45      1.0000 0.02130  0.09640  0.11360  Biso   1.000  H
  H46      1.0000 0.97870  0.90360  0.88640  Biso   1.000  H
  H47      1.0000 0.81230  0.08130  0.03720  Biso   1.000  H
  H48      1.0000 0.18770  0.91870  0.96280  Biso   1.000  H
  H49      1.0000 0.73830  0.12860  0.17910  Biso   1.000  H
  H50      1.0000 0.26170  0.87140  0.82090  Biso   1.000  H
  H51      1.0000 0.87340  0.18550  0.39160  Biso   1.000  H
  H52      1.0000 0.12660  0.81450  0.60840  Biso   1.000  H
  H53      1.0000 0.08490  0.20290  0.46150  Biso   1.000  H
  H54      1.0000 0.91510  0.79710  0.53850  Biso   1.000  H
  H55      1.0000 0.15650  0.64700  0.39890  Biso   1.000  H
  H56      1.0000 0.84350  0.35300  0.60110  Biso   1.000  H
  H57      1.0000 0.17290  0.67840  0.30820  Biso   1.000  H
  H58      1.0000 0.82710  0.32160  0.69180  Biso   1.000  H
  H59      1.0000 0.97020  0.62040  0.23730  Biso   1.000  H
  H60      1.0000 0.02980  0.37960  0.76270  Biso   1.000  H
  H61      1.0000 0.99500  0.72040  0.37060  Biso   1.000  H
  H62      1.0000 0.00500  0.27960  0.62940  Biso   1.000  H
  H63      1.0000 0.07580  0.88480  0.42520  Biso   1.000  H
  H64      1.0000 0.92420  0.11520  0.57480  Biso   1.000  H
  H65      1.0000 0.06550  0.96410  0.38810  Biso   1.000  H
  H66      1.0000 0.93450  0.03590  0.61190  Biso   1.000  H
  H67      1.0000 0.24940  0.87600  0.38530  Biso   1.000  H
  H68      1.0000 0.75060  0.12400  0.61470  Biso   1.000  H
  H69      1.0000 0.26180  0.97010  0.51420  Biso   1.000  H
  H70      1.0000 0.73820  0.02990  0.48580  Biso   1.000  H
  H71      1.0000 0.60800  0.68780  0.08850  Biso   1.000  H
  H72      1.0000 0.39200  0.31220  0.91150  Biso   1.000  H
  H73      1.0000 0.57950  0.57850  0.95900  Biso   1.000  H
  H74      1.0000 0.42050  0.42150  0.04100  Biso   1.000  H
  H75      1.0000 0.29110  0.44270  0.87350  Biso   1.000  H
  H76      1.0000 0.70890  0.55730  0.12650  Biso   1.000  H
  H77      1.0000 0.38960  0.43040  0.83010  Biso   1.000  H
  H78      1.0000 0.61040  0.56960  0.16990  Biso   1.000  H
