data_image0
_cell_length_a       7.9024
_cell_length_b       10.6596
_cell_length_c       11.0574
_cell_angle_alpha    73.664
_cell_angle_beta     86.21
_cell_angle_gamma    87.668

_symmetry_space_group_name_H-M    "P 1"
_symmetry_int_tables_number       1

loop_
  _symmetry_equiv_pos_as_xyz
  'x, y, z'

loop_
  _atom_site_label
  _atom_site_occupancy
  _atom_site_fract_x
  _atom_site_fract_y
  _atom_site_fract_z
  _atom_site_thermal_displace_type
  _atom_site_B_iso_or_equiv
  _atom_site_type_symbol
  Cu1      1.0000 0.36780  0.12140  0.45970  Biso   1.000  Cu
  Cu2      1.0000 0.63220  0.87860  0.54030  Biso   1.000  Cu
  O1       1.0000 0.33950  0.95030  0.57020  Biso   1.000  O
  O2       1.0000 0.66050  0.04970  0.42980  Biso   1.000  O
  O3       1.0000 0.39450  0.29080  0.32920  Biso   1.000  O
  O4       1.0000 0.60550  0.70920  0.67080  Biso   1.000  O
  N1       1.0000 0.23690  0.08450  0.33280  Biso   1.000  N
  N2       1.0000 0.76310  0.91550  0.66720  Biso   1.000  N
  N3       1.0000 0.23710  0.18970  0.22430  Biso   1.000  N
  N4       1.0000 0.76290  0.81030  0.77570  Biso   1.000  N
  C1       1.0000 0.22620  0.86420  0.56110  Biso   1.000  C
  C2       1.0000 0.77380  0.13580  0.43890  Biso   1.000  C
  C3       1.0000 0.19860  0.75430  0.66600  Biso   1.000  C
  C4       1.0000 0.80140  0.24570  0.33400  Biso   1.000  C
  C5       1.0000 0.09080  0.65540  0.66170  Biso   1.000  C
  C6       1.0000 0.90920  0.34460  0.33830  Biso   1.000  C
  C7       1.0000 0.00480  0.66500  0.55480  Biso   1.000  C
  C8       1.0000 0.99520  0.33500  0.44520  Biso   1.000  C
  C9       1.0000 0.02450  0.77200  0.45230  Biso   1.000  C
  C10      1.0000 0.97550  0.22800  0.54770  Biso   1.000  C
  C11      1.0000 0.13480  0.87470  0.45250  Biso   1.000  C
  C12      1.0000 0.86520  0.12530  0.54750  Biso   1.000  C
  C13      1.0000 0.14530  0.98390  0.34150  Biso   1.000  C
  C14      1.0000 0.85470  0.01610  0.65850  Biso   1.000  C
  C15      1.0000 0.32060  0.29430  0.23160  Biso   1.000  C
  C16      1.0000 0.67940  0.70570  0.76840  Biso   1.000  C
  C17      1.0000 0.32250  0.41240  0.11870  Biso   1.000  C
  C18      1.0000 0.67750  0.58760  0.88130  Biso   1.000  C
  C19      1.0000 0.49950  0.43940  0.05710  Biso   1.000  C
  C20      1.0000 0.50050  0.56060  0.94290  Biso   1.000  C
  O5       1.0000 0.43110  0.18450  0.60080  Biso   1.000  O
  O6       1.0000 0.56890  0.81550  0.39920  Biso   1.000  O
  C21      1.0000 0.45510  0.31670  0.59570  Biso   1.000  C
  C22      1.0000 0.54490  0.68330  0.40430  Biso   1.000  C
  C23      1.0000 0.51750  0.34860  0.71000  Biso   1.000  C
  C24      1.0000 0.48250  0.65140  0.29000  Biso   1.000  C
  O7       1.0000 0.25000  0.05240  0.80690  Biso   1.000  O
  O8       1.0000 0.75000  0.94760  0.19310  Biso   1.000  O
  C25      1.0000 0.40530  0.98260  0.83300  Biso   1.000  C
  C26      1.0000 0.59470  0.01740  0.16700  Biso   1.000  C
  C27      1.0000 0.50800  0.00450  0.93720  Biso   1.000  C
  C28      1.0000 0.49200  0.99550  0.06280  Biso   1.000  C
  Cl1      1.0000 0.96410  0.24420  0.94220  Biso   1.000  Cl
  Cl2      1.0000 0.03590  0.75580  0.05780  Biso   1.000  Cl
  O9       1.0000 0.96450  0.30820  0.81960  Biso   1.000  O
  O10      1.0000 0.03550  0.69180  0.18040  Biso   1.000  O
  O11      1.0000 0.96220  0.35910  0.00760  Biso   1.000  O
  O12      1.0000 0.03780  0.64090  0.99240  Biso   1.000  O
  O13      1.0000 0.78840  0.19790  0.99440  Biso   1.000  O
  O14      1.0000 0.21160  0.80210  0.00560  Biso   1.000  O
  O15      1.0000 0.09010  0.16160  0.00010  Biso   1.000  O
  O16      1.0000 0.90990  0.83840  0.99990  Biso   1.000  O
  O17      1.0000 0.13170  0.19180  0.98240  Biso   1.000  O
  O18      1.0000 0.86830  0.80820  0.01760  Biso   1.000  O
  O19      1.0000 0.85910  0.23980  0.05220  Biso   1.000  O
  O20      1.0000 0.14090  0.76020  0.94780  Biso   1.000  O
  O21      1.0000 0.97620  0.36710  0.85530  Biso   1.000  O
  O22      1.0000 0.02380  0.63290  0.14470  Biso   1.000  O
  O23      1.0000 0.90860  0.15460  0.87360  Biso   1.000  O
  O24      1.0000 0.09140  0.84540  0.12640  Biso   1.000  O
  O25      1.0000 0.97270  0.17740  0.06750  Biso   1.000  O
  O26      1.0000 0.02730  0.82260  0.93250  Biso   1.000  O
  O27      1.0000 0.06080  0.36020  0.89940  Biso   1.000  O
  O28      1.0000 0.93920  0.63980  0.10060  Biso   1.000  O
  O29      1.0000 0.79880  0.27300  0.89460  Biso   1.000  O
  O30      1.0000 0.20120  0.72700  0.10540  Biso   1.000  O
  O31      1.0000 0.04120  0.15100  0.86880  Biso   1.000  O
  O32      1.0000 0.95880  0.84900  0.13120  Biso   1.000  O
  O33      1.0000 0.05160  0.14050  0.02830  Biso   1.000  O
  O34      1.0000 0.94840  0.85950  0.97170  Biso   1.000  O
  O35      1.0000 0.90220  0.33210  0.01610  Biso   1.000  O
  O36      1.0000 0.09780  0.66790  0.98390  Biso   1.000  O
  O37      1.0000 0.10170  0.31990  0.85230  Biso   1.000  O
  O38      1.0000 0.89830  0.68010  0.14770  Biso   1.000  O
  O39      1.0000 0.85270  0.20840  0.87030  Biso   1.000  O
  O40      1.0000 0.14730  0.79160  0.12970  Biso   1.000  O
  H1       1.0000 0.18760  0.18780  0.15790  Biso   1.000  H
  H2       1.0000 0.81240  0.81220  0.84210  Biso   1.000  H
  H3       1.0000 0.25330  0.74770  0.73960  Biso   1.000  H
  H4       1.0000 0.74670  0.25230  0.26040  Biso   1.000  H
  H5       1.0000 0.07690  0.58260  0.73120  Biso   1.000  H
  H6       1.0000 0.92310  0.41740  0.26880  Biso   1.000  H
  H7       1.0000 0.93320  0.59870  0.55240  Biso   1.000  H
  H8       1.0000 0.06680  0.40130  0.44760  Biso   1.000  H
  H9       1.0000 0.96480  0.77790  0.38120  Biso   1.000  H
  H10      1.0000 0.03520  0.22210  0.61880  Biso   1.000  H
  H11      1.0000 0.08390  0.98250  0.27300  Biso   1.000  H
  H12      1.0000 0.91610  0.01750  0.72700  Biso   1.000  H
  H13      1.0000 0.27970  0.48800  0.14460  Biso   1.000  H
  H14      1.0000 0.72030  0.51200  0.85540  Biso   1.000  H
  H15      1.0000 0.24780  0.39880  0.05760  Biso   1.000  H
  H16      1.0000 0.75220  0.60120  0.94240  Biso   1.000  H
  H17      1.0000 0.54200  0.36430  0.03020  Biso   1.000  H
  H18      1.0000 0.45800  0.63570  0.96980  Biso   1.000  H
  H19      1.0000 0.57450  0.45230  0.11830  Biso   1.000  H
  H20      1.0000 0.42550  0.54770  0.88170  Biso   1.000  H
  H21      1.0000 0.39940  0.14830  0.65110  Biso   1.000  H
  H22      1.0000 0.60060  0.85170  0.34890  Biso   1.000  H
  H23      1.0000 0.34780  0.36320  0.57640  Biso   1.000  H
  H24      1.0000 0.65220  0.63680  0.42360  Biso   1.000  H
  H25      1.0000 0.53480  0.35250  0.52500  Biso   1.000  H
  H26      1.0000 0.46520  0.64750  0.47500  Biso   1.000  H
  H27      1.0000 0.55300  0.43770  0.68660  Biso   1.000  H
  H28      1.0000 0.44700  0.56230  0.31340  Biso   1.000  H
  H29      1.0000 0.61200  0.29200  0.74100  Biso   1.000  H
  H30      1.0000 0.38800  0.70800  0.25900  Biso   1.000  H
  H31      1.0000 0.42750  0.33700  0.77460  Biso   1.000  H
  H32      1.0000 0.57250  0.66300  0.22540  Biso   1.000  H
  H33      1.0000 0.22300  0.08700  0.86300  Biso   1.000  H
  H34      1.0000 0.77700  0.91300  0.13700  Biso   1.000  H
  H35      1.0000 0.47690  0.00320  0.75570  Biso   1.000  H
  H36      1.0000 0.52310  0.99680  0.24430  Biso   1.000  H
  H37      1.0000 0.38180  0.89010  0.85430  Biso   1.000  H
  H38      1.0000 0.61820  0.10990  0.14570  Biso   1.000  H
  H39      1.0000 0.62580  0.01200  0.90900  Biso   1.000  H
  H40      1.0000 0.37420  0.98800  0.09100  Biso   1.000  H
  H41      1.0000 0.49400  0.93200  0.01200  Biso   1.000  H
  H42      1.0000 0.50600  0.06800  0.98800  Biso   1.000  H
  H43      1.0000 0.46900  0.08400  0.95600  Biso   1.000  H
  H44      1.0000 0.53100  0.91600  0.04400  Biso   1.000  H
