data_image0
_cell_length_a       7.283
_cell_length_b       12.032
_cell_length_c       13.912
_cell_angle_alpha    85.97
_cell_angle_beta     84.19
_cell_angle_gamma    75.82

_symmetry_space_group_name_H-M    "P 1"
_symmetry_int_tables_number       1

loop_
  _symmetry_equiv_pos_as_xyz
  'x, y, z'

loop_
  _atom_site_label
  _atom_site_occupancy
  _atom_site_fract_x
  _atom_site_fract_y
  _atom_site_fract_z
  _atom_site_thermal_displace_type
  _atom_site_B_iso_or_equiv
  _atom_site_type_symbol
  Cu1      1.0000 0.24089  0.52686  0.94977  Biso   1.000  Cu
  Cu2      1.0000 0.75911  0.47314  0.05023  Biso   1.000  Cu
  Cl1      1.0000 0.15836  0.36384  0.00909  Biso   1.000  Cl
  Cl2      1.0000 0.84164  0.63616  0.99091  Biso   1.000  Cl
  Cl3      1.0000 0.34121  0.55903  0.09279  Biso   1.000  Cl
  Cl4      1.0000 0.65879  0.44097  0.90721  Biso   1.000  Cl
  N1       1.0000 0.35950  0.83681  0.85790  Biso   1.000  N
  N2       1.0000 0.64050  0.16319  0.14210  Biso   1.000  N
  N3       1.0000 0.20200  0.84320  0.81116  Biso   1.000  N
  N4       1.0000 0.79800  0.15680  0.18884  Biso   1.000  N
  N5       1.0000 0.14800  0.75010  0.83473  Biso   1.000  N
  N6       1.0000 0.85200  0.24990  0.16527  Biso   1.000  N
  N7       1.0000 0.26620  0.68303  0.89616  Biso   1.000  N
  N8       1.0000 0.73380  0.31697  0.10384  Biso   1.000  N
  C1       1.0000 0.39540  0.73740  0.90895  Biso   1.000  C
  C2       1.0000 0.60460  0.26260  0.09105  Biso   1.000  C
  H1       1.0000 0.49610  0.71110  0.94740  Biso   1.000  H
  H2       1.0000 0.50390  0.28890  0.05260  Biso   1.000  H
  C3       1.0000 0.46640  0.92333  0.84219  Biso   1.000  C
  C4       1.0000 0.53360  0.07667  0.15781  Biso   1.000  C
  C5       1.0000 0.39520  0.02840  0.88457  Biso   1.000  C
  C6       1.0000 0.60480  0.97160  0.11543  Biso   1.000  C
  C7       1.0000 0.50120  0.11030  0.86538  Biso   1.000  C
  C8       1.0000 0.49880  0.88970  0.13462  Biso   1.000  C
  H3       1.0000 0.45800  0.18120  0.89310  Biso   1.000  H
  H4       1.0000 0.54200  0.81880  0.10690  Biso   1.000  H
  C9       1.0000 0.67020  0.08900  0.80590  Biso   1.000  C
  C10      1.0000 0.32980  0.91100  0.19410  Biso   1.000  C
  C11      1.0000 0.73430  0.98290  0.76594  Biso   1.000  C
  C12      1.0000 0.26570  0.01710  0.23406  Biso   1.000  C
  H5       1.0000 0.84800  0.96830  0.72680  Biso   1.000  H
  H6       1.0000 0.15200  0.03170  0.27320  Biso   1.000  H
  C13      1.0000 0.63540  0.89780  0.78199  Biso   1.000  C
  C14      1.0000 0.36460  0.10220  0.21801  Biso   1.000  C
  C15      1.0000 0.21220  0.05360  0.94890  Biso   1.000  C
  C16      1.0000 0.78780  0.94640  0.05110  Biso   1.000  C
  H7       1.0000 0.18800  0.13010  0.97090  Biso   1.000  H
  H8       1.0000 0.81200  0.86990  0.02910  Biso   1.000  H
  H9       1.0000 0.22240  0.99980  0.00350  Biso   1.000  H
  H10      1.0000 0.77760  0.00020  0.99650  Biso   1.000  H
  H11      1.0000 0.10960  0.04700  0.91320  Biso   1.000  H
  H12      1.0000 0.89040  0.95300  0.08680  Biso   1.000  H
  C17      1.0000 0.78110  0.17990  0.78390  Biso   1.000  C
  C18      1.0000 0.21890  0.82010  0.21610  Biso   1.000  C
  H13      1.0000 0.71700  0.24780  0.81700  Biso   1.000  H
  H14      1.0000 0.28300  0.75220  0.18300  Biso   1.000  H
  H15      1.0000 0.79060  0.19760  0.71550  Biso   1.000  H
  H16      1.0000 0.20940  0.80240  0.28450  Biso   1.000  H
  H17      1.0000 0.90620  0.15200  0.80520  Biso   1.000  H
  H18      1.0000 0.09380  0.84800  0.19480  Biso   1.000  H
  C19      1.0000 0.70790  0.78350  0.73700  Biso   1.000  C
  C20      1.0000 0.29210  0.21650  0.26300  Biso   1.000  C
  H19      1.0000 0.62090  0.73590  0.75610  Biso   1.000  H
  H20      1.0000 0.37910  0.26410  0.24390  Biso   1.000  H
  H21      1.0000 0.83040  0.74710  0.75850  Biso   1.000  H
  H22      1.0000 0.16960  0.25290  0.24150  Biso   1.000  H
  H23      1.0000 0.71860  0.79470  0.66790  Biso   1.000  H
  H24      1.0000 0.28140  0.20530  0.33210  Biso   1.000  H
  N9       1.0000 0.14080  0.41072  0.69071  Biso   1.000  N
  N10      1.0000 0.85920  0.58928  0.30929  Biso   1.000  N
  N11      1.0000 0.28540  0.46200  0.65991  Biso   1.000  N
  N12      1.0000 0.71460  0.53800  0.34009  Biso   1.000  N
  N13      1.0000 0.32600  0.50580  0.73397  Biso   1.000  N
  N14      1.0000 0.67400  0.49420  0.26603  Biso   1.000  N
  N15      1.0000 0.21360  0.48407  0.81363  Biso   1.000  N
  N16      1.0000 0.78640  0.51593  0.18637  Biso   1.000  N
  C21      1.0000 0.10110  0.42590  0.78468  Biso   1.000  C
  C22      1.0000 0.89890  0.57410  0.21532  Biso   1.000  C
  H25      1.0000 0.00800  0.39930  0.82380  Biso   1.000  H
  H26      1.0000 0.99200  0.60070  0.17620  Biso   1.000  H
  C23      1.0000 0.05460  0.35510  0.62558  Biso   1.000  C
  C24      1.0000 0.94540  0.64490  0.37442  Biso   1.000  C
  C25      1.0000 0.87870  0.41230  0.59582  Biso   1.000  C
  C26      1.0000 0.12130  0.58770  0.40418  Biso   1.000  C
  C27      1.0000 0.79660  0.35510  0.53520  Biso   1.000  C
  C28      1.0000 0.20340  0.64490  0.46480  Biso   1.000  C
  H27      1.0000 0.67750  0.39080  0.51510  Biso   1.000  H
  H28      1.0000 0.32250  0.60920  0.48490  Biso   1.000  H
  C29      1.0000 0.88460  0.24750  0.50370  Biso   1.000  C
  C30      1.0000 0.11540  0.75250  0.49630  Biso   1.000  C
  C31      1.0000 0.06030  0.19510  0.53430  Biso   1.000  C
  C32      1.0000 0.93970  0.80490  0.46570  Biso   1.000  C
  H29      1.0000 0.12140  0.12270  0.51290  Biso   1.000  H
  H30      1.0000 0.87860  0.87730  0.48710  Biso   1.000  H
  C33      1.0000 0.14930  0.24640  0.59593  Biso   1.000  C
  C34      1.0000 0.85070  0.75360  0.40407  Biso   1.000  C
  C35      1.0000 0.78000  0.53040  0.62740  Biso   1.000  C
  C36      1.0000 0.22000  0.46960  0.37260  Biso   1.000  C
  H31      1.0000 0.66090  0.55520  0.59920  Biso   1.000  H
  H32      1.0000 0.33910  0.44480  0.40080  Biso   1.000  H
  H33      1.0000 0.85850  0.58260  0.60670  Biso   1.000  H
  H34      1.0000 0.14150  0.41740  0.39330  Biso   1.000  H
  H35      1.0000 0.75760  0.52890  0.69670  Biso   1.000  H
  H36      1.0000 0.24240  0.47110  0.30330  Biso   1.000  H
  C37      1.0000 0.78960  0.18900  0.43650  Biso   1.000  C
  C38      1.0000 0.21040  0.81100  0.56350  Biso   1.000  C
  H37      1.0000 0.87010  0.11510  0.42200  Biso   1.000  H
  H38      1.0000 0.12990  0.88490  0.57800  Biso   1.000  H
  H39      1.0000 0.76880  0.23520  0.37770  Biso   1.000  H
  H40      1.0000 0.23120  0.76480  0.62230  Biso   1.000  H
  H41      1.0000 0.67000  0.17980  0.46750  Biso   1.000  H
  H42      1.0000 0.33000  0.82020  0.53250  Biso   1.000  H
  C39      1.0000 0.34020  0.18480  0.62940  Biso   1.000  C
  C40      1.0000 0.65980  0.81520  0.37060  Biso   1.000  C
  H43      1.0000 0.38070  0.23250  0.67130  Biso   1.000  H
  H44      1.0000 0.61930  0.76750  0.32870  Biso   1.000  H
  H45      1.0000 0.43150  0.16850  0.57430  Biso   1.000  H
  H46      1.0000 0.56850  0.83150  0.42570  Biso   1.000  H
  H47      1.0000 0.32990  0.11430  0.66380  Biso   1.000  H
  H48      1.0000 0.67010  0.88570  0.33620  Biso   1.000  H
