data_image0
_cell_length_a       6.1054
_cell_length_b       9.598
_cell_length_c       9.813
_cell_angle_alpha    108.92
_cell_angle_beta     106.899
_cell_angle_gamma    97.39

_symmetry_space_group_name_H-M    "P 1"
_symmetry_int_tables_number       1

loop_
  _symmetry_equiv_pos_as_xyz
  'x, y, z'

loop_
  _atom_site_label
  _atom_site_occupancy
  _atom_site_fract_x
  _atom_site_fract_y
  _atom_site_fract_z
  _atom_site_thermal_displace_type
  _atom_site_B_iso_or_equiv
  _atom_site_type_symbol
  Cu1      1.0000 0.22407  0.41412  0.49362  Biso   1.000  Cu
  Cu2      1.0000 0.77593  0.58588  0.50638  Biso   1.000  Cu
  Cl1      1.0000 0.59253  0.45976  0.66413  Biso   1.000  Cl
  Cl2      1.0000 0.40747  0.54024  0.33587  Biso   1.000  Cl
  Cl3      1.0000 0.16180  0.62584  0.65569  Biso   1.000  Cl
  Cl4      1.0000 0.83820  0.37416  0.34431  Biso   1.000  Cl
  N1       1.0000 0.32900  0.98290  0.30360  Biso   1.000  N
  N2       1.0000 0.67100  0.01710  0.69640  Biso   1.000  N
  N3       1.0000 0.09820  0.96536  0.24080  Biso   1.000  N
  N4       1.0000 0.90180  0.03464  0.75920  Biso   1.000  N
  N5       1.0000 0.03050  0.09030  0.28480  Biso   1.000  N
  N6       1.0000 0.96950  0.90970  0.71520  Biso   1.000  N
  N7       1.0000 0.22260  0.19620  0.38550  Biso   1.000  N
  N8       1.0000 0.77740  0.80380  0.61450  Biso   1.000  N
  C1       1.0000 0.40100  0.12780  0.39400  Biso   1.000  C
  C2       1.0000 0.59900  0.87220  0.60600  Biso   1.000  C
  H1       1.0000 0.55730  0.17690  0.45630  Biso   1.000  H
  H2       1.0000 0.44270  0.82310  0.54370  Biso   1.000  H
  C3       1.0000 0.93100  0.81500  0.13030  Biso   1.000  C
  C4       1.0000 0.06900  0.18500  0.86970  Biso   1.000  C
  C5       1.0000 0.72110  0.84700  0.02810  Biso   1.000  C
  C6       1.0000 0.27890  0.15300  0.97190  Biso   1.000  C
  H3       1.0000 0.64010  0.90160  0.08980  Biso   1.000  H
  H4       1.0000 0.35990  0.09840  0.91020  Biso   1.000  H
  H5       1.0000 0.61540  0.75280  0.95250  Biso   1.000  H
  H6       1.0000 0.38460  0.24720  0.04750  Biso   1.000  H
  H7       1.0000 0.77500  0.90690  0.97720  Biso   1.000  H
  H8       1.0000 0.22500  0.09310  0.02280  Biso   1.000  H
  C7       1.0000 0.06420  0.72750  0.03820  Biso   1.000  C
  C8       1.0000 0.93580  0.27250  0.96180  Biso   1.000  C
  H9       1.0000 0.11240  0.78270  0.98160  Biso   1.000  H
  H10      1.0000 0.88760  0.21730  0.01840  Biso   1.000  H
  H11      1.0000 0.96350  0.62960  0.96770  Biso   1.000  H
  H12      1.0000 0.03650  0.37040  0.03230  Biso   1.000  H
  H13      1.0000 0.20110  0.71460  0.10690  Biso   1.000  H
  H14      1.0000 0.79890  0.28540  0.89310  Biso   1.000  H
  C9       1.0000 0.86070  0.73470  0.22640  Biso   1.000  C
  C10      1.0000 0.13930  0.26530  0.77360  Biso   1.000  C
  H15      1.0000 0.99960  0.72440  0.29560  Biso   1.000  H
  H16      1.0000 0.00040  0.27560  0.70440  Biso   1.000  H
  H17      1.0000 0.75930  0.63590  0.15990  Biso   1.000  H
  H18      1.0000 0.24070  0.36410  0.84010  Biso   1.000  H
  H19      1.0000 0.77850  0.79290  0.28450  Biso   1.000  H
  H20      1.0000 0.22150  0.20710  0.71550  Biso   1.000  H
