data_image0
_cell_length_a       9.959
_cell_length_b       9.924
_cell_length_c       18.197
_cell_angle_alpha    90
_cell_angle_beta     103.2
_cell_angle_gamma    90

_symmetry_space_group_name_H-M    "P 1"
_symmetry_int_tables_number       1

loop_
  _symmetry_equiv_pos_as_xyz
  'x, y, z'

loop_
  _atom_site_label
  _atom_site_occupancy
  _atom_site_fract_x
  _atom_site_fract_y
  _atom_site_fract_z
  _atom_site_thermal_displace_type
  _atom_site_B_iso_or_equiv
  _atom_site_type_symbol
  Cu1      1.0000 0.05137  0.65003  0.04341  Biso   1.000  Cu
  Cu2      1.0000 0.94863  0.15003  0.45659  Biso   1.000  Cu
  Cu3      1.0000 0.94863  0.34997  0.95659  Biso   1.000  Cu
  Cu4      1.0000 0.05137  0.84997  0.54341  Biso   1.000  Cu
  Cl1      1.0000 0.10040  0.56560  0.93554  Biso   1.000  Cl
  Cl2      1.0000 0.89960  0.06560  0.56446  Biso   1.000  Cl
  Cl3      1.0000 0.89960  0.43440  0.06446  Biso   1.000  Cl
  Cl4      1.0000 0.10040  0.93440  0.43554  Biso   1.000  Cl
  Cl5      1.0000 0.24890  0.56960  0.11722  Biso   1.000  Cl
  Cl6      1.0000 0.75110  0.06960  0.38278  Biso   1.000  Cl
  Cl7      1.0000 0.75110  0.43040  0.88278  Biso   1.000  Cl
  Cl8      1.0000 0.24890  0.93040  0.61722  Biso   1.000  Cl
  O1       1.0000 0.75280  0.07440  0.96740  Biso   1.000  O
  O2       1.0000 0.24720  0.57440  0.53260  Biso   1.000  O
  O3       1.0000 0.24720  0.92560  0.03260  Biso   1.000  O
  O4       1.0000 0.75280  0.42560  0.46740  Biso   1.000  O
  O5       1.0000 0.58550  0.22340  0.49180  Biso   1.000  O
  O6       1.0000 0.41450  0.72340  0.00820  Biso   1.000  O
  O7       1.0000 0.41450  0.77660  0.50820  Biso   1.000  O
  O8       1.0000 0.58550  0.27660  0.99180  Biso   1.000  O
  O9       1.0000 0.56490  0.15730  0.58120  Biso   1.000  O
  O10      1.0000 0.43510  0.65730  0.91880  Biso   1.000  O
  O11      1.0000 0.43510  0.84270  0.41880  Biso   1.000  O
  O12      1.0000 0.56490  0.34270  0.08120  Biso   1.000  O
  N1       1.0000 0.00270  0.77060  0.12180  Biso   1.000  N
  N2       1.0000 0.99730  0.27060  0.37820  Biso   1.000  N
  N3       1.0000 0.99730  0.22940  0.87820  Biso   1.000  N
  N4       1.0000 0.00270  0.72940  0.62180  Biso   1.000  N
  N5       1.0000 0.87350  0.72800  0.98020  Biso   1.000  N
  N6       1.0000 0.12650  0.22800  0.51980  Biso   1.000  N
  N7       1.0000 0.12650  0.27200  0.01980  Biso   1.000  N
  N8       1.0000 0.87350  0.77200  0.48020  Biso   1.000  N
  C1       1.0000 0.08810  0.81110  0.18670  Biso   1.000  C
  C2       1.0000 0.91190  0.31110  0.31330  Biso   1.000  C
  C3       1.0000 0.91190  0.18890  0.81330  Biso   1.000  C
  C4       1.0000 0.08810  0.68890  0.68670  Biso   1.000  C
  C5       1.0000 0.04420  0.89530  0.23590  Biso   1.000  C
  C6       1.0000 0.95580  0.39530  0.26410  Biso   1.000  C
  C7       1.0000 0.95580  0.10470  0.76410  Biso   1.000  C
  C8       1.0000 0.04420  0.60470  0.73590  Biso   1.000  C
  C9       1.0000 0.91180  0.94020  0.21840  Biso   1.000  C
  C10      1.0000 0.08820  0.44020  0.28160  Biso   1.000  C
  C11      1.0000 0.08820  0.05980  0.78160  Biso   1.000  C
  C12      1.0000 0.91180  0.55980  0.71840  Biso   1.000  C
  C13      1.0000 0.82320  0.90230  0.15220  Biso   1.000  C
  C14      1.0000 0.17680  0.40230  0.34780  Biso   1.000  C
  C15      1.0000 0.17680  0.09770  0.84780  Biso   1.000  C
  C16      1.0000 0.82320  0.59770  0.65220  Biso   1.000  C
  C17      1.0000 0.87290  0.81540  0.10460  Biso   1.000  C
  C18      1.0000 0.12710  0.31540  0.39540  Biso   1.000  C
  C19      1.0000 0.12710  0.18460  0.89540  Biso   1.000  C
  C20      1.0000 0.87290  0.68460  0.60460  Biso   1.000  C
  C21      1.0000 0.78550  0.76120  0.03230  Biso   1.000  C
  C22      1.0000 0.21450  0.26120  0.46770  Biso   1.000  C
  C23      1.0000 0.21450  0.23880  0.96770  Biso   1.000  C
  C24      1.0000 0.78550  0.73880  0.53230  Biso   1.000  C
  C25      1.0000 0.89950  0.84610  0.93370  Biso   1.000  C
  C26      1.0000 0.10050  0.34610  0.56630  Biso   1.000  C
  C27      1.0000 0.10050  0.15390  0.06630  Biso   1.000  C
  C28      1.0000 0.89950  0.65390  0.43370  Biso   1.000  C
  C29      1.0000 0.77310  0.89960  0.88160  Biso   1.000  C
  C30      1.0000 0.22690  0.39960  0.61840  Biso   1.000  C
  C31      1.0000 0.22690  0.10040  0.11840  Biso   1.000  C
  C32      1.0000 0.77310  0.60040  0.38160  Biso   1.000  C
  C33      1.0000 0.72030  0.83880  0.81240  Biso   1.000  C
  C34      1.0000 0.27970  0.33880  0.68760  Biso   1.000  C
  C35      1.0000 0.27970  0.16120  0.18760  Biso   1.000  C
  C36      1.0000 0.72030  0.66120  0.31240  Biso   1.000  C
  C37      1.0000 0.60510  0.89000  0.76220  Biso   1.000  C
  C38      1.0000 0.39490  0.39000  0.73780  Biso   1.000  C
  C39      1.0000 0.39490  0.11000  0.23780  Biso   1.000  C
  C40      1.0000 0.60510  0.61000  0.26220  Biso   1.000  C
  C41      1.0000 0.54050  0.00160  0.78180  Biso   1.000  C
  C42      1.0000 0.45950  0.50160  0.71820  Biso   1.000  C
  C43      1.0000 0.45950  0.99840  0.21820  Biso   1.000  C
  C44      1.0000 0.54050  0.49840  0.28180  Biso   1.000  C
  C45      1.0000 0.58760  0.06340  0.84920  Biso   1.000  C
  C46      1.0000 0.41240  0.56340  0.65080  Biso   1.000  C
  C47      1.0000 0.41240  0.93660  0.15080  Biso   1.000  C
  C48      1.0000 0.58760  0.43660  0.34920  Biso   1.000  C
  C49      1.0000 0.70370  0.01200  0.89930  Biso   1.000  C
  C50      1.0000 0.29630  0.51200  0.60070  Biso   1.000  C
  C51      1.0000 0.29630  0.98800  0.10070  Biso   1.000  C
  C52      1.0000 0.70370  0.48800  0.39930  Biso   1.000  C
  C53      1.0000 0.62000  0.26900  0.60460  Biso   1.000  C
  C54      1.0000 0.38000  0.76900  0.89540  Biso   1.000  C
  C55      1.0000 0.38000  0.73100  0.39540  Biso   1.000  C
  C56      1.0000 0.62000  0.23100  0.10460  Biso   1.000  C
  H1       1.0000 0.17900  0.78100  0.19600  Biso   1.000  H
  H2       1.0000 0.82100  0.28100  0.30400  Biso   1.000  H
  H3       1.0000 0.82100  0.21900  0.80400  Biso   1.000  H
  H4       1.0000 0.17900  0.71900  0.69600  Biso   1.000  H
  H5       1.0000 0.10800  0.92200  0.28300  Biso   1.000  H
  H6       1.0000 0.89200  0.42200  0.21700  Biso   1.000  H
  H7       1.0000 0.89200  0.07800  0.71700  Biso   1.000  H
  H8       1.0000 0.10800  0.57800  0.78300  Biso   1.000  H
  H9       1.0000 0.89000  0.99800  0.24900  Biso   1.000  H
  H10      1.0000 0.11000  0.49800  0.25100  Biso   1.000  H
  H11      1.0000 0.11000  0.00200  0.75100  Biso   1.000  H
  H12      1.0000 0.89000  0.50200  0.74900  Biso   1.000  H
  H13      1.0000 0.73300  0.93100  0.13800  Biso   1.000  H
  H14      1.0000 0.26700  0.43100  0.36200  Biso   1.000  H
  H15      1.0000 0.26700  0.06900  0.86200  Biso   1.000  H
  H16      1.0000 0.73300  0.56900  0.63800  Biso   1.000  H
  H17      1.0000 0.71800  0.82100  0.00900  Biso   1.000  H
  H18      1.0000 0.28200  0.32100  0.49100  Biso   1.000  H
  H19      1.0000 0.28200  0.17900  0.99100  Biso   1.000  H
  H20      1.0000 0.71800  0.67900  0.50900  Biso   1.000  H
  H21      1.0000 0.74300  0.68300  0.04500  Biso   1.000  H
  H22      1.0000 0.25700  0.18300  0.45500  Biso   1.000  H
  H23      1.0000 0.25700  0.31700  0.95500  Biso   1.000  H
  H24      1.0000 0.74300  0.81700  0.54500  Biso   1.000  H
  H25      1.0000 0.94200  0.91100  0.96800  Biso   1.000  H
  H26      1.0000 0.05800  0.41100  0.53200  Biso   1.000  H
  H27      1.0000 0.05800  0.08900  0.03200  Biso   1.000  H
  H28      1.0000 0.94200  0.58900  0.46800  Biso   1.000  H
  H29      1.0000 0.96900  0.81200  0.90500  Biso   1.000  H
  H30      1.0000 0.03100  0.31200  0.59500  Biso   1.000  H
  H31      1.0000 0.03100  0.18800  0.09500  Biso   1.000  H
  H32      1.0000 0.96900  0.68800  0.40500  Biso   1.000  H
  H33      1.0000 0.77300  0.76300  0.80000  Biso   1.000  H
  H34      1.0000 0.22700  0.26300  0.70000  Biso   1.000  H
  H35      1.0000 0.22700  0.23700  0.20000  Biso   1.000  H
  H36      1.0000 0.77300  0.73700  0.30000  Biso   1.000  H
  H37      1.0000 0.56900  0.84300  0.71500  Biso   1.000  H
  H38      1.0000 0.43100  0.34300  0.78500  Biso   1.000  H
  H39      1.0000 0.43100  0.15700  0.28500  Biso   1.000  H
  H40      1.0000 0.56900  0.65700  0.21500  Biso   1.000  H
  H41      1.0000 0.45600  0.03500  0.74800  Biso   1.000  H
  H42      1.0000 0.54400  0.53500  0.75200  Biso   1.000  H
  H43      1.0000 0.54400  0.96500  0.25200  Biso   1.000  H
  H44      1.0000 0.45600  0.46500  0.24800  Biso   1.000  H
  H45      1.0000 0.54500  0.14900  0.86300  Biso   1.000  H
  H46      1.0000 0.45500  0.64900  0.63700  Biso   1.000  H
  H47      1.0000 0.45500  0.85100  0.13700  Biso   1.000  H
  H48      1.0000 0.54500  0.35100  0.36300  Biso   1.000  H
  H49      1.0000 0.91300  0.63600  0.97600  Biso   1.000  H
  H50      1.0000 0.08700  0.13600  0.52400  Biso   1.000  H
  H51      1.0000 0.08700  0.36400  0.02400  Biso   1.000  H
  H52      1.0000 0.91300  0.86400  0.47600  Biso   1.000  H
