data_image0
_cell_length_a       7.1487
_cell_length_b       15.0388
_cell_length_c       22.76
_cell_angle_alpha    90
_cell_angle_beta     90
_cell_angle_gamma    90

_symmetry_space_group_name_H-M    "P 1"
_symmetry_int_tables_number       1

loop_
  _symmetry_equiv_pos_as_xyz
  'x, y, z'

loop_
  _atom_site_label
  _atom_site_occupancy
  _atom_site_fract_x
  _atom_site_fract_y
  _atom_site_fract_z
  _atom_site_thermal_displace_type
  _atom_site_B_iso_or_equiv
  _atom_site_type_symbol
  Cu1      1.0000 0.59380  0.63488  0.04609  Biso   1.000  Cu
  Cu2      1.0000 0.90620  0.36512  0.54609  Biso   1.000  Cu
  Cu3      1.0000 0.40620  0.13488  0.45391  Biso   1.000  Cu
  Cu4      1.0000 0.09380  0.86512  0.95391  Biso   1.000  Cu
  Cu5      1.0000 0.40620  0.36512  0.95391  Biso   1.000  Cu
  Cu6      1.0000 0.09380  0.63488  0.45391  Biso   1.000  Cu
  Cu7      1.0000 0.59380  0.86512  0.54609  Biso   1.000  Cu
  Cu8      1.0000 0.90620  0.13488  0.04609  Biso   1.000  Cu
  I1       1.0000 0.41630  0.35896  0.15362  Biso   1.000  I
  I2       1.0000 0.08370  0.64104  0.65362  Biso   1.000  I
  I3       1.0000 0.58370  0.85896  0.34638  Biso   1.000  I
  I4       1.0000 0.91630  0.14104  0.84638  Biso   1.000  I
  I5       1.0000 0.58370  0.64104  0.84638  Biso   1.000  I
  I6       1.0000 0.91630  0.35896  0.34638  Biso   1.000  I
  I7       1.0000 0.41630  0.14104  0.65362  Biso   1.000  I
  I8       1.0000 0.08370  0.85896  0.15362  Biso   1.000  I
  I9       1.0000 0.50802  0.57932  0.37331  Biso   1.000  I
  I10      1.0000 0.99198  0.42068  0.87331  Biso   1.000  I
  I11      1.0000 0.49198  0.07932  0.12669  Biso   1.000  I
  I12      1.0000 0.00802  0.92068  0.62669  Biso   1.000  I
  I13      1.0000 0.49198  0.42068  0.62669  Biso   1.000  I
  I14      1.0000 0.00802  0.57932  0.12669  Biso   1.000  I
  I15      1.0000 0.50802  0.92068  0.87331  Biso   1.000  I
  I16      1.0000 0.99198  0.07932  0.37331  Biso   1.000  I
  N1       1.0000 0.56130  0.72990  0.10190  Biso   1.000  N
  N2       1.0000 0.93870  0.27010  0.60190  Biso   1.000  N
  N3       1.0000 0.43870  0.22990  0.39810  Biso   1.000  N
  N4       1.0000 0.06130  0.77010  0.89810  Biso   1.000  N
  N5       1.0000 0.43870  0.27010  0.89810  Biso   1.000  N
  N6       1.0000 0.06130  0.72990  0.39810  Biso   1.000  N
  N7       1.0000 0.56130  0.77010  0.60190  Biso   1.000  N
  N8       1.0000 0.93870  0.22990  0.10190  Biso   1.000  N
  O1       1.0000 0.73080  0.72640  0.00130  Biso   1.000  O
  O2       1.0000 0.76920  0.27360  0.50130  Biso   1.000  O
  O3       1.0000 0.26920  0.22640  0.49870  Biso   1.000  O
  O4       1.0000 0.23080  0.77360  0.99870  Biso   1.000  O
  O5       1.0000 0.26920  0.27360  0.99870  Biso   1.000  O
  O6       1.0000 0.23080  0.72640  0.49870  Biso   1.000  O
  O7       1.0000 0.73080  0.77360  0.50130  Biso   1.000  O
  O8       1.0000 0.76920  0.22640  0.00130  Biso   1.000  O
  O9       1.0000 0.81570  0.86870  0.00360  Biso   1.000  O
  O10      1.0000 0.68430  0.13130  0.50360  Biso   1.000  O
  O11      1.0000 0.18430  0.36870  0.49640  Biso   1.000  O
  O12      1.0000 0.31570  0.63130  0.99640  Biso   1.000  O
  O13      1.0000 0.18430  0.13130  0.99640  Biso   1.000  O
  O14      1.0000 0.31570  0.86870  0.49640  Biso   1.000  O
  O15      1.0000 0.81570  0.63130  0.50360  Biso   1.000  O
  O16      1.0000 0.68430  0.36870  0.00360  Biso   1.000  O
  O17      1.0000 0.50210  0.54590  0.09990  Biso   1.000  O
  O18      1.0000 0.99790  0.45410  0.59990  Biso   1.000  O
  O19      1.0000 0.49790  0.04590  0.40010  Biso   1.000  O
  O20      1.0000 0.00210  0.95410  0.90010  Biso   1.000  O
  O21      1.0000 0.49790  0.45410  0.90010  Biso   1.000  O
  O22      1.0000 0.00210  0.54590  0.40010  Biso   1.000  O
  O23      1.0000 0.50210  0.95410  0.59990  Biso   1.000  O
  O24      1.0000 0.99790  0.04590  0.09990  Biso   1.000  O
  O25      1.0000 0.69950  0.54350  0.99280  Biso   1.000  O
  O26      1.0000 0.80050  0.45650  0.49280  Biso   1.000  O
  O27      1.0000 0.30050  0.04350  0.50720  Biso   1.000  O
  O28      1.0000 0.19950  0.95650  0.00720  Biso   1.000  O
  O29      1.0000 0.30050  0.45650  0.00720  Biso   1.000  O
  O30      1.0000 0.19950  0.54350  0.50720  Biso   1.000  O
  O31      1.0000 0.69950  0.95650  0.49280  Biso   1.000  O
  O32      1.0000 0.80050  0.04350  0.99280  Biso   1.000  O
  H1       1.0000 0.71730  0.49220  0.00740  Biso   1.000  H
  H2       1.0000 0.78270  0.50780  0.50740  Biso   1.000  H
  H3       1.0000 0.28270  0.99220  0.49260  Biso   1.000  H
  H4       1.0000 0.21730  0.00780  0.99260  Biso   1.000  H
  H5       1.0000 0.28270  0.50780  0.99260  Biso   1.000  H
  H6       1.0000 0.21730  0.49220  0.49260  Biso   1.000  H
  H7       1.0000 0.71730  0.00780  0.50740  Biso   1.000  H
  H8       1.0000 0.78270  0.99220  0.00740  Biso   1.000  H
  H9       1.0000 0.63650  0.53700  0.96150  Biso   1.000  H
  H10      1.0000 0.86350  0.46300  0.46150  Biso   1.000  H
  H11      1.0000 0.36350  0.03700  0.53850  Biso   1.000  H
  H12      1.0000 0.13650  0.96300  0.03850  Biso   1.000  H
  H13      1.0000 0.36350  0.46300  0.03850  Biso   1.000  H
  H14      1.0000 0.13650  0.53700  0.53850  Biso   1.000  H
  H15      1.0000 0.63650  0.96300  0.46150  Biso   1.000  H
  H16      1.0000 0.86350  0.03700  0.96150  Biso   1.000  H
  C1       1.0000 0.72200  0.80390  0.02100  Biso   1.000  C
  C2       1.0000 0.77800  0.19610  0.52100  Biso   1.000  C
  C3       1.0000 0.27800  0.30390  0.47900  Biso   1.000  C
  C4       1.0000 0.22200  0.69610  0.97900  Biso   1.000  C
  C5       1.0000 0.27800  0.19610  0.97900  Biso   1.000  C
  C6       1.0000 0.22200  0.80390  0.47900  Biso   1.000  C
  C7       1.0000 0.72200  0.69610  0.52100  Biso   1.000  C
  C8       1.0000 0.77800  0.30390  0.02100  Biso   1.000  C
  C9       1.0000 0.59600  0.81760  0.07440  Biso   1.000  C
  C10      1.0000 0.90400  0.18240  0.57440  Biso   1.000  C
  C11      1.0000 0.40400  0.31760  0.42560  Biso   1.000  C
  C12      1.0000 0.09600  0.68240  0.92560  Biso   1.000  C
  C13      1.0000 0.40400  0.18240  0.92560  Biso   1.000  C
  C14      1.0000 0.09600  0.81760  0.42560  Biso   1.000  C
  C15      1.0000 0.59600  0.68240  0.57440  Biso   1.000  C
  C16      1.0000 0.90400  0.31760  0.07440  Biso   1.000  C
  H17      1.0000 0.65630  0.85710  0.10230  Biso   1.000  H
  H18      1.0000 0.84370  0.14290  0.60230  Biso   1.000  H
  H19      1.0000 0.34370  0.35710  0.39770  Biso   1.000  H
  H20      1.0000 0.15630  0.64290  0.89770  Biso   1.000  H
  H21      1.0000 0.34370  0.14290  0.89770  Biso   1.000  H
  H22      1.0000 0.15630  0.85710  0.39770  Biso   1.000  H
  H23      1.0000 0.65630  0.64290  0.60230  Biso   1.000  H
  H24      1.0000 0.84370  0.35710  0.10230  Biso   1.000  H
  H25      1.0000 0.47850  0.84430  0.06240  Biso   1.000  H
  H26      1.0000 0.02150  0.15570  0.56240  Biso   1.000  H
  H27      1.0000 0.52150  0.34430  0.43760  Biso   1.000  H
  H28      1.0000 0.97850  0.65570  0.93760  Biso   1.000  H
  H29      1.0000 0.52150  0.15570  0.93760  Biso   1.000  H
  H30      1.0000 0.97850  0.84430  0.43760  Biso   1.000  H
  H31      1.0000 0.47850  0.65570  0.56240  Biso   1.000  H
  H32      1.0000 0.02150  0.34430  0.06240  Biso   1.000  H
  C17      1.0000 0.54300  0.72250  0.15560  Biso   1.000  C
  C18      1.0000 0.95700  0.27750  0.65560  Biso   1.000  C
  C19      1.0000 0.45700  0.22250  0.34440  Biso   1.000  C
  C20      1.0000 0.04300  0.77750  0.84440  Biso   1.000  C
  C21      1.0000 0.45700  0.27750  0.84440  Biso   1.000  C
  C22      1.0000 0.04300  0.72250  0.34440  Biso   1.000  C
  C23      1.0000 0.54300  0.77750  0.65560  Biso   1.000  C
  C24      1.0000 0.95700  0.22250  0.15560  Biso   1.000  C
  H33      1.0000 0.55090  0.77430  0.17780  Biso   1.000  H
  H34      1.0000 0.94910  0.22570  0.67780  Biso   1.000  H
  H35      1.0000 0.44910  0.27430  0.32220  Biso   1.000  H
  H36      1.0000 0.05090  0.72570  0.82220  Biso   1.000  H
  H37      1.0000 0.44910  0.22570  0.82220  Biso   1.000  H
  H38      1.0000 0.05090  0.77430  0.32220  Biso   1.000  H
  H39      1.0000 0.55090  0.72570  0.67780  Biso   1.000  H
  H40      1.0000 0.94910  0.27430  0.17780  Biso   1.000  H
  C25      1.0000 0.51100  0.63910  0.18740  Biso   1.000  C
  C26      1.0000 0.98900  0.36090  0.68740  Biso   1.000  C
  C27      1.0000 0.48900  0.13910  0.31260  Biso   1.000  C
  C28      1.0000 0.01100  0.86090  0.81260  Biso   1.000  C
  C29      1.0000 0.48900  0.36090  0.81260  Biso   1.000  C
  C30      1.0000 0.01100  0.63910  0.31260  Biso   1.000  C
  C31      1.0000 0.51100  0.86090  0.68740  Biso   1.000  C
  C32      1.0000 0.98900  0.13910  0.18740  Biso   1.000  C
  C33      1.0000 0.50200  0.55650  0.15670  Biso   1.000  C
  C34      1.0000 0.99800  0.44350  0.65670  Biso   1.000  C
  C35      1.0000 0.49800  0.05650  0.34330  Biso   1.000  C
  C36      1.0000 0.00200  0.94350  0.84330  Biso   1.000  C
  C37      1.0000 0.49800  0.44350  0.84330  Biso   1.000  C
  C38      1.0000 0.00200  0.55650  0.34330  Biso   1.000  C
  C39      1.0000 0.50200  0.94350  0.65670  Biso   1.000  C
  C40      1.0000 0.99800  0.05650  0.15670  Biso   1.000  C
  C41      1.0000 0.46900  0.48200  0.19420  Biso   1.000  C
  C42      1.0000 0.03100  0.51800  0.69420  Biso   1.000  C
  C43      1.0000 0.53100  0.98200  0.30580  Biso   1.000  C
  C44      1.0000 0.96900  0.01800  0.80580  Biso   1.000  C
  C45      1.0000 0.53100  0.51800  0.80580  Biso   1.000  C
  C46      1.0000 0.96900  0.48200  0.30580  Biso   1.000  C
  C47      1.0000 0.46900  0.01800  0.69420  Biso   1.000  C
  C48      1.0000 0.03100  0.98200  0.19420  Biso   1.000  C
  C49      1.0000 0.47300  0.48790  0.25490  Biso   1.000  C
  C50      1.0000 0.02700  0.51210  0.75490  Biso   1.000  C
  C51      1.0000 0.52700  0.98790  0.24510  Biso   1.000  C
  C52      1.0000 0.97300  0.01210  0.74510  Biso   1.000  C
  C53      1.0000 0.52700  0.51210  0.74510  Biso   1.000  C
  C54      1.0000 0.97300  0.48790  0.24510  Biso   1.000  C
  C55      1.0000 0.47300  0.01210  0.75490  Biso   1.000  C
  C56      1.0000 0.02700  0.98790  0.25490  Biso   1.000  C
  H41      1.0000 0.46010  0.43670  0.27740  Biso   1.000  H
  H42      1.0000 0.03990  0.56330  0.77740  Biso   1.000  H
  H43      1.0000 0.53990  0.93670  0.22260  Biso   1.000  H
  H44      1.0000 0.96010  0.06330  0.72260  Biso   1.000  H
  H45      1.0000 0.53990  0.56330  0.72260  Biso   1.000  H
  H46      1.0000 0.96010  0.43670  0.22260  Biso   1.000  H
  H47      1.0000 0.46010  0.06330  0.77740  Biso   1.000  H
  H48      1.0000 0.03990  0.93670  0.27740  Biso   1.000  H
  C57      1.0000 0.49400  0.56810  0.28180  Biso   1.000  C
  C58      1.0000 0.00600  0.43190  0.78180  Biso   1.000  C
  C59      1.0000 0.50600  0.06810  0.21820  Biso   1.000  C
  C60      1.0000 0.99400  0.93190  0.71820  Biso   1.000  C
  C61      1.0000 0.50600  0.43190  0.71820  Biso   1.000  C
  C62      1.0000 0.99400  0.56810  0.21820  Biso   1.000  C
  C63      1.0000 0.49400  0.93190  0.78180  Biso   1.000  C
  C64      1.0000 0.00600  0.06810  0.28180  Biso   1.000  C
  C65      1.0000 0.51300  0.64200  0.24670  Biso   1.000  C
  C66      1.0000 0.98700  0.35800  0.74670  Biso   1.000  C
  C67      1.0000 0.48700  0.14200  0.25330  Biso   1.000  C
  C68      1.0000 0.01300  0.85800  0.75330  Biso   1.000  C
  C69      1.0000 0.48700  0.35800  0.75330  Biso   1.000  C
  C70      1.0000 0.01300  0.64200  0.25330  Biso   1.000  C
  C71      1.0000 0.51300  0.85800  0.74670  Biso   1.000  C
  C72      1.0000 0.98700  0.14200  0.24670  Biso   1.000  C
  H49      1.0000 0.52900  0.69700  0.26480  Biso   1.000  H
  H50      1.0000 0.97100  0.30300  0.76480  Biso   1.000  H
  H51      1.0000 0.47100  0.19700  0.23520  Biso   1.000  H
  H52      1.0000 0.02900  0.80300  0.73520  Biso   1.000  H
  H53      1.0000 0.47100  0.30300  0.73520  Biso   1.000  H
  H54      1.0000 0.02900  0.69700  0.23520  Biso   1.000  H
  H55      1.0000 0.52900  0.80300  0.76480  Biso   1.000  H
  H56      1.0000 0.97100  0.19700  0.26480  Biso   1.000  H
  I17      1.0000 0.55400  0.36020  0.15460  Biso   1.000  I
  I18      1.0000 0.94600  0.63980  0.65460  Biso   1.000  I
  I19      1.0000 0.44600  0.86020  0.34540  Biso   1.000  I
  I20      1.0000 0.05400  0.13980  0.84540  Biso   1.000  I
  I21      1.0000 0.44600  0.63980  0.84540  Biso   1.000  I
  I22      1.0000 0.05400  0.36020  0.34540  Biso   1.000  I
  I23      1.0000 0.55400  0.13980  0.65460  Biso   1.000  I
  I24      1.0000 0.94600  0.86020  0.15460  Biso   1.000  I
