data_image0
_cell_length_a       17.388
_cell_length_b       6.56
_cell_length_c       13.06
_cell_angle_alpha    90
_cell_angle_beta     90
_cell_angle_gamma    90

_symmetry_space_group_name_H-M    "P 1"
_symmetry_int_tables_number       1

loop_
  _symmetry_equiv_pos_as_xyz
  'x, y, z'

loop_
  _atom_site_label
  _atom_site_occupancy
  _atom_site_fract_x
  _atom_site_fract_y
  _atom_site_fract_z
  _atom_site_thermal_displace_type
  _atom_site_B_iso_or_equiv
  _atom_site_type_symbol
  Cu1      1.0000 0.20390  0.50680  0.18780  Biso   1.000  Cu
  Cu2      1.0000 0.70390  0.99320  0.81220  Biso   1.000  Cu
  Cu3      1.0000 0.79610  0.00680  0.31220  Biso   1.000  Cu
  Cu4      1.0000 0.29610  0.49320  0.68780  Biso   1.000  Cu
  C1       1.0000 0.30830  0.78480  0.10330  Biso   1.000  C
  C2       1.0000 0.80830  0.71520  0.89670  Biso   1.000  C
  C3       1.0000 0.69170  0.28480  0.39670  Biso   1.000  C
  C4       1.0000 0.19170  0.21520  0.60330  Biso   1.000  C
  C5       1.0000 0.33780  0.58270  0.05990  Biso   1.000  C
  C6       1.0000 0.83780  0.91730  0.94010  Biso   1.000  C
  C7       1.0000 0.66220  0.08270  0.44010  Biso   1.000  C
  C8       1.0000 0.16220  0.41730  0.55990  Biso   1.000  C
  C9       1.0000 0.41400  0.52900  0.11350  Biso   1.000  C
  C10      1.0000 0.91400  0.97100  0.88650  Biso   1.000  C
  C11      1.0000 0.58600  0.02900  0.38650  Biso   1.000  C
  C12      1.0000 0.08600  0.47100  0.61350  Biso   1.000  C
  C13      1.0000 0.40830  0.49110  0.22760  Biso   1.000  C
  C14      1.0000 0.90830  0.00890  0.77240  Biso   1.000  C
  C15      1.0000 0.59170  0.99110  0.27240  Biso   1.000  C
  C16      1.0000 0.09170  0.50890  0.72760  Biso   1.000  C
  C17      1.0000 0.39950  0.29680  0.26730  Biso   1.000  C
  C18      1.0000 0.89950  0.20320  0.73270  Biso   1.000  C
  C19      1.0000 0.60050  0.79680  0.23270  Biso   1.000  C
  C20      1.0000 0.10050  0.70320  0.76730  Biso   1.000  C
  C21      1.0000 0.39220  0.26250  0.37150  Biso   1.000  C
  C22      1.0000 0.89220  0.23750  0.62850  Biso   1.000  C
  C23      1.0000 0.60780  0.76250  0.12850  Biso   1.000  C
  C24      1.0000 0.10780  0.73750  0.87150  Biso   1.000  C
  C25      1.0000 0.39580  0.42510  0.43900  Biso   1.000  C
  C26      1.0000 0.89580  0.07490  0.56100  Biso   1.000  C
  C27      1.0000 0.60420  0.92510  0.06100  Biso   1.000  C
  C28      1.0000 0.10420  0.57490  0.93900  Biso   1.000  C
  C29      1.0000 0.40500  0.62310  0.40080  Biso   1.000  C
  C30      1.0000 0.90500  0.87690  0.59920  Biso   1.000  C
  C31      1.0000 0.59500  0.12310  0.09920  Biso   1.000  C
  C32      1.0000 0.09500  0.37690  0.90080  Biso   1.000  C
  C33      1.0000 0.41120  0.65340  0.29680  Biso   1.000  C
  C34      1.0000 0.91120  0.84660  0.70320  Biso   1.000  C
  C35      1.0000 0.58880  0.15340  0.20320  Biso   1.000  C
  C36      1.0000 0.08880  0.34660  0.79680  Biso   1.000  C
  C37      1.0000 0.16340  0.06670  0.16380  Biso   1.000  C
  C38      1.0000 0.66340  0.43330  0.83620  Biso   1.000  C
  C39      1.0000 0.83660  0.56670  0.33620  Biso   1.000  C
  C40      1.0000 0.33660  0.93330  0.66380  Biso   1.000  C
  C41      1.0000 0.22910  0.95670  0.22260  Biso   1.000  C
  C42      1.0000 0.72910  0.54330  0.77740  Biso   1.000  C
  C43      1.0000 0.77090  0.45670  0.27740  Biso   1.000  C
  C44      1.0000 0.27090  0.04330  0.72260  Biso   1.000  C
  C45      1.0000 0.20560  0.91880  0.33280  Biso   1.000  C
  C46      1.0000 0.70560  0.58120  0.66720  Biso   1.000  C
  C47      1.0000 0.79440  0.41880  0.16720  Biso   1.000  C
  C48      1.0000 0.29440  0.08120  0.83280  Biso   1.000  C
  C49      1.0000 0.13500  0.79080  0.34230  Biso   1.000  C
  C50      1.0000 0.63500  0.70920  0.65770  Biso   1.000  C
  C51      1.0000 0.86500  0.29080  0.15770  Biso   1.000  C
  C52      1.0000 0.36500  0.20920  0.84230  Biso   1.000  C
  C53      1.0000 0.06840  0.82230  0.39220  Biso   1.000  C
  C54      1.0000 0.56840  0.67770  0.60780  Biso   1.000  C
  C55      1.0000 0.93160  0.32230  0.10780  Biso   1.000  C
  C56      1.0000 0.43160  0.17770  0.89220  Biso   1.000  C
  C57      1.0000 0.06150  0.53430  0.31160  Biso   1.000  C
  C58      1.0000 0.56150  0.96570  0.68840  Biso   1.000  C
  C59      1.0000 0.93850  0.03430  0.18840  Biso   1.000  C
  C60      1.0000 0.43850  0.46570  0.81160  Biso   1.000  C
  N1       1.0000 0.27910  0.42020  0.07800  Biso   1.000  N
  N2       1.0000 0.77910  0.07980  0.92200  Biso   1.000  N
  N3       1.0000 0.72090  0.92020  0.42200  Biso   1.000  N
  N4       1.0000 0.22090  0.57980  0.57800  Biso   1.000  N
  N5       1.0000 0.25260  0.76910  0.17150  Biso   1.000  N
  N6       1.0000 0.75260  0.73090  0.82850  Biso   1.000  N
  N7       1.0000 0.74740  0.26910  0.32850  Biso   1.000  N
  N8       1.0000 0.24740  0.23090  0.67150  Biso   1.000  N
  N9       1.0000 0.13090  0.60490  0.29110  Biso   1.000  N
  N10      1.0000 0.63090  0.89510  0.70890  Biso   1.000  N
  N11      1.0000 0.86910  0.10490  0.20890  Biso   1.000  N
  N12      1.0000 0.36910  0.39510  0.79110  Biso   1.000  N
  N13      1.0000 0.02260  0.65780  0.37070  Biso   1.000  N
  N14      1.0000 0.52260  0.84220  0.62930  Biso   1.000  N
  N15      1.0000 0.97740  0.15780  0.12930  Biso   1.000  N
  N16      1.0000 0.47740  0.34220  0.87070  Biso   1.000  N
  O1       1.0000 0.33990  0.94560  0.07570  Biso   1.000  O
  O2       1.0000 0.83990  0.55440  0.92430  Biso   1.000  O
  O3       1.0000 0.66010  0.44560  0.42430  Biso   1.000  O
  O4       1.0000 0.16010  0.05440  0.57570  Biso   1.000  O
  O5       1.0000 0.12390  0.98010  0.09970  Biso   1.000  O
  O6       1.0000 0.62390  0.51990  0.90030  Biso   1.000  O
  O7       1.0000 0.87610  0.48010  0.40030  Biso   1.000  O
  O8       1.0000 0.37610  0.01990  0.59970  Biso   1.000  O
  O9       1.0000 0.15090  0.24710  0.19210  Biso   1.000  O
  O10      1.0000 0.65090  0.25290  0.80790  Biso   1.000  O
  O11      1.0000 0.84910  0.74710  0.30790  Biso   1.000  O
  O12      1.0000 0.34910  0.75290  0.69210  Biso   1.000  O
  O13      1.0000 0.39230  0.40210  0.54230  Biso   1.000  O
  O14      1.0000 0.89230  0.09790  0.45770  Biso   1.000  O
  O15      1.0000 0.60770  0.90210  0.95770  Biso   1.000  O
  O16      1.0000 0.10770  0.59790  0.04230  Biso   1.000  O
  H1       1.0000 0.24600  0.41400  0.03000  Biso   1.000  H
  H2       1.0000 0.74600  0.08600  0.97000  Biso   1.000  H
  H3       1.0000 0.75400  0.91400  0.47000  Biso   1.000  H
  H4       1.0000 0.25400  0.58600  0.53000  Biso   1.000  H
  H5       1.0000 0.30400  0.31400  0.08500  Biso   1.000  H
  H6       1.0000 0.80400  0.18600  0.91500  Biso   1.000  H
  H7       1.0000 0.69600  0.81400  0.41500  Biso   1.000  H
  H8       1.0000 0.19600  0.68600  0.58500  Biso   1.000  H
  H9       1.0000 0.35100  0.60100  0.98400  Biso   1.000  H
  H10      1.0000 0.85100  0.89900  0.01600  Biso   1.000  H
  H11      1.0000 0.64900  0.10100  0.51600  Biso   1.000  H
  H12      1.0000 0.14900  0.39900  0.48400  Biso   1.000  H
  H13      1.0000 0.44600  0.63100  0.09300  Biso   1.000  H
  H14      1.0000 0.94600  0.86900  0.90700  Biso   1.000  H
  H15      1.0000 0.55400  0.13100  0.40700  Biso   1.000  H
  H16      1.0000 0.05400  0.36900  0.59300  Biso   1.000  H
  H17      1.0000 0.44000  0.43400  0.08400  Biso   1.000  H
  H18      1.0000 0.94000  0.06600  0.91600  Biso   1.000  H
  H19      1.0000 0.56000  0.93400  0.41600  Biso   1.000  H
  H20      1.0000 0.06000  0.56600  0.58400  Biso   1.000  H
  H21      1.0000 0.97100  0.63300  0.38800  Biso   1.000  H
  H22      1.0000 0.47100  0.86700  0.61200  Biso   1.000  H
  H23      1.0000 0.02900  0.13300  0.11200  Biso   1.000  H
  H24      1.0000 0.52900  0.36700  0.88800  Biso   1.000  H
  H25      1.0000 0.38400  0.30700  0.55800  Biso   1.000  H
  H26      1.0000 0.88400  0.19300  0.44200  Biso   1.000  H
  H27      1.0000 0.61600  0.80700  0.94200  Biso   1.000  H
  H28      1.0000 0.11600  0.69300  0.05800  Biso   1.000  H
  H29      1.0000 0.39400  0.19500  0.22300  Biso   1.000  H
  H30      1.0000 0.89400  0.30500  0.77700  Biso   1.000  H
  H31      1.0000 0.60600  0.69500  0.27700  Biso   1.000  H
  H32      1.0000 0.10600  0.80500  0.72300  Biso   1.000  H
  H33      1.0000 0.38700  0.13700  0.39700  Biso   1.000  H
  H34      1.0000 0.88700  0.36300  0.60300  Biso   1.000  H
  H35      1.0000 0.61300  0.63700  0.10300  Biso   1.000  H
  H36      1.0000 0.11300  0.86300  0.89700  Biso   1.000  H
  H37      1.0000 0.40800  0.72100  0.44400  Biso   1.000  H
  H38      1.0000 0.90800  0.77900  0.55600  Biso   1.000  H
  H39      1.0000 0.59200  0.22100  0.05600  Biso   1.000  H
  H40      1.0000 0.09200  0.27900  0.94400  Biso   1.000  H
  H41      1.0000 0.41900  0.80100  0.26900  Biso   1.000  H
  H42      1.0000 0.91900  0.69900  0.73100  Biso   1.000  H
  H43      1.0000 0.58100  0.30100  0.23100  Biso   1.000  H
  H44      1.0000 0.08100  0.19900  0.76900  Biso   1.000  H
  H45      1.0000 0.27200  0.04600  0.23100  Biso   1.000  H
  H46      1.0000 0.77200  0.45400  0.76900  Biso   1.000  H
  H47      1.0000 0.72800  0.54600  0.26900  Biso   1.000  H
  H48      1.0000 0.22800  0.95400  0.73100  Biso   1.000  H
  H49      1.0000 0.24600  0.86000  0.36800  Biso   1.000  H
  H50      1.0000 0.74600  0.64000  0.63200  Biso   1.000  H
  H51      1.0000 0.75400  0.36000  0.13200  Biso   1.000  H
  H52      1.0000 0.25400  0.14000  0.86800  Biso   1.000  H
  H53      1.0000 0.19800  0.01800  0.37200  Biso   1.000  H
  H54      1.0000 0.69800  0.48200  0.62800  Biso   1.000  H
  H55      1.0000 0.80200  0.51800  0.12800  Biso   1.000  H
  H56      1.0000 0.30200  0.98200  0.87200  Biso   1.000  H
  H57      1.0000 0.04900  0.91600  0.43600  Biso   1.000  H
  H58      1.0000 0.54900  0.58400  0.56400  Biso   1.000  H
  H59      1.0000 0.95100  0.41600  0.06400  Biso   1.000  H
  H60      1.0000 0.45100  0.08400  0.93600  Biso   1.000  H
  H61      1.0000 0.04100  0.41400  0.27700  Biso   1.000  H
  H62      1.0000 0.54100  0.08600  0.72300  Biso   1.000  H
  H63      1.0000 0.95900  0.91400  0.22300  Biso   1.000  H
  H64      1.0000 0.45900  0.58600  0.77700  Biso   1.000  H
