data_image0
_cell_length_a       9.955
_cell_length_b       7.032
_cell_length_c       10.184
_cell_angle_alpha    90
_cell_angle_beta     98.489
_cell_angle_gamma    90

_symmetry_space_group_name_H-M    "P 1"
_symmetry_int_tables_number       1

loop_
  _symmetry_equiv_pos_as_xyz
  'x, y, z'

loop_
  _atom_site_label
  _atom_site_occupancy
  _atom_site_fract_x
  _atom_site_fract_y
  _atom_site_fract_z
  _atom_site_thermal_displace_type
  _atom_site_B_iso_or_equiv
  _atom_site_type_symbol
  Cu1      1.0000 0.60919  0.66002  0.30111  Biso   1.000  Cu
  Cu2      1.0000 0.39081  0.16002  0.69889  Biso   1.000  Cu
  N1       1.0000 0.77330  0.78320  0.40890  Biso   1.000  N
  N2       1.0000 0.22670  0.28320  0.59110  Biso   1.000  N
  N3       1.0000 0.77040  0.57060  0.22070  Biso   1.000  N
  N4       1.0000 0.22960  0.07060  0.77930  Biso   1.000  N
  C1       1.0000 0.49400  0.84170  0.51190  Biso   1.000  C
  C2       1.0000 0.50600  0.34170  0.48810  Biso   1.000  C
  C3       1.0000 0.63460  0.82870  0.59160  Biso   1.000  C
  C4       1.0000 0.36540  0.32870  0.40840  Biso   1.000  C
  H1       1.0000 0.65450  0.69640  0.61340  Biso   1.000  H
  H2       1.0000 0.34550  0.19640  0.38660  Biso   1.000  H
  H3       1.0000 0.63520  0.89730  0.67430  Biso   1.000  H
  H4       1.0000 0.36480  0.39730  0.32570  Biso   1.000  H
  C5       1.0000 0.74690  0.90810  0.51990  Biso   1.000  C
  C6       1.0000 0.25310  0.40810  0.48010  Biso   1.000  C
  H5       1.0000 0.72080  0.03350  0.48540  Biso   1.000  H
  H6       1.0000 0.27920  0.53350  0.51460  Biso   1.000  H
  H7       1.0000 0.82960  0.92130  0.58270  Biso   1.000  H
  H8       1.0000 0.17040  0.42130  0.41730  Biso   1.000  H
  C7       1.0000 0.86680  0.62190  0.45130  Biso   1.000  C
  C8       1.0000 0.13320  0.12190  0.54870  Biso   1.000  C
  H9       1.0000 0.84070  0.56030  0.52890  Biso   1.000  H
  H10      1.0000 0.15930  0.06030  0.47110  Biso   1.000  H
  H11      1.0000 0.95920  0.66770  0.47350  Biso   1.000  H
  H12      1.0000 0.04080  0.16770  0.52650  Biso   1.000  H
  C9       1.0000 0.85680  0.48100  0.33500  Biso   1.000  C
  C10      1.0000 0.14320  0.98100  0.66500  Biso   1.000  C
  H13      1.0000 0.94640  0.45430  0.31290  Biso   1.000  H
  H14      1.0000 0.05360  0.95430  0.68710  Biso   1.000  H
  H15      1.0000 0.81660  0.36240  0.35850  Biso   1.000  H
  H16      1.0000 0.18340  0.86240  0.64150  Biso   1.000  H
  C11      1.0000 0.82980  0.88720  0.30340  Biso   1.000  C
  C12      1.0000 0.17020  0.38720  0.69660  Biso   1.000  C
  H17      1.0000 0.91890  0.93740  0.33760  Biso   1.000  H
  H18      1.0000 0.08110  0.43740  0.66240  Biso   1.000  H
  H19      1.0000 0.77100  0.99250  0.27150  Biso   1.000  H
  H20      1.0000 0.22900  0.49250  0.72850  Biso   1.000  H
  C13      1.0000 0.84010  0.74690  0.19080  Biso   1.000  C
  C14      1.0000 0.15990  0.24690  0.80920  Biso   1.000  C
  H21      1.0000 0.79740  0.79970  0.10690  Biso   1.000  H
  H22      1.0000 0.20260  0.29970  0.89310  Biso   1.000  H
  H23      1.0000 0.93460  0.72080  0.18450  Biso   1.000  H
  H24      1.0000 0.06540  0.22080  0.81550  Biso   1.000  H
  C15      1.0000 0.73860  0.44110  0.10700  Biso   1.000  C
  C16      1.0000 0.26140  0.94110  0.89300  Biso   1.000  C
  H25      1.0000 0.71180  0.31880  0.13880  Biso   1.000  H
  H26      1.0000 0.28820  0.81880  0.86120  Biso   1.000  H
  H27      1.0000 0.81990  0.42180  0.06660  Biso   1.000  H
  H28      1.0000 0.18010  0.92180  0.93340  Biso   1.000  H
  C17      1.0000 0.62580  0.51430  0.00190  Biso   1.000  C
  C18      1.0000 0.37420  0.01430  0.99810  Biso   1.000  C
  H29      1.0000 0.65250  0.63850  0.97320  Biso   1.000  H
  H30      1.0000 0.34750  0.13850  0.02680  Biso   1.000  H
  H31      1.0000 0.61940  0.43010  0.92580  Biso   1.000  H
  H32      1.0000 0.38060  0.93010  0.07420  Biso   1.000  H
  C19      1.0000 0.48630  0.53210  0.04160  Biso   1.000  C
  C20      1.0000 0.51370  0.03210  0.95840  Biso   1.000  C
  O1       1.0000 0.39740  0.89800  0.56590  Biso   1.000  O
  O2       1.0000 0.60260  0.39800  0.43410  Biso   1.000  O
  O3       1.0000 0.47640  0.79360  0.38889  Biso   1.000  O
  O4       1.0000 0.52360  0.29360  0.61111  Biso   1.000  O
  O5       1.0000 0.47206  0.57780  0.16037  Biso   1.000  O
  O6       1.0000 0.52794  0.07780  0.83963  Biso   1.000  O
  O7       1.0000 0.38530  0.50580  0.95540  Biso   1.000  O
  O8       1.0000 0.61470  0.00580  0.04460  Biso   1.000  O
  O9       1.0000 0.94220  0.66040  0.85690  Biso   1.000  O
  O10      1.0000 0.05780  0.16040  0.14310  Biso   1.000  O
  H33      1.0000 0.97700  0.61200  0.92900  Biso   1.000  H
  H34      1.0000 0.02300  0.11200  0.07100  Biso   1.000  H
  H35      1.0000 0.88200  0.58400  0.82200  Biso   1.000  H
  H36      1.0000 0.11800  0.08400  0.17800  Biso   1.000  H
  O11      1.0000 0.80540  0.33280  0.72810  Biso   1.000  O
  O12      1.0000 0.19460  0.83280  0.27190  Biso   1.000  O
  H37      1.0000 0.82800  0.24900  0.78600  Biso   1.000  H
  H38      1.0000 0.17200  0.74900  0.21400  Biso   1.000  H
  H39      1.0000 0.72130  0.31900  0.70100  Biso   1.000  H
  H40      1.0000 0.27870  0.81900  0.29900  Biso   1.000  H
  O13      1.0000 0.85390  0.03980  0.92450  Biso   1.000  O
  O14      1.0000 0.14610  0.53980  0.07550  Biso   1.000  O
  H41      1.0000 0.87700  0.93800  0.89200  Biso   1.000  H
  H42      1.0000 0.12300  0.43800  0.10800  Biso   1.000  H
  H43      1.0000 0.78000  0.01700  0.95400  Biso   1.000  H
  H44      1.0000 0.22000  0.51700  0.04600  Biso   1.000  H
