data_image0
_cell_length_a       10.1139
_cell_length_b       26.898
_cell_length_c       10.2105
_cell_angle_alpha    90
_cell_angle_beta     109.651
_cell_angle_gamma    90

_symmetry_space_group_name_H-M    "P 1"
_symmetry_int_tables_number       1

loop_
  _symmetry_equiv_pos_as_xyz
  'x, y, z'

loop_
  _atom_site_label
  _atom_site_occupancy
  _atom_site_fract_x
  _atom_site_fract_y
  _atom_site_fract_z
  _atom_site_thermal_displace_type
  _atom_site_B_iso_or_equiv
  _atom_site_type_symbol
  Cu1      1.0000 0.17573  0.01212  0.53906  Biso   1.000  Cu
  Cu2      1.0000 0.82427  0.51212  0.96094  Biso   1.000  Cu
  Cu3      1.0000 0.82427  0.98788  0.46094  Biso   1.000  Cu
  Cu4      1.0000 0.17573  0.48788  0.03906  Biso   1.000  Cu
  O1       1.0000 0.16510  0.06531  0.66190  Biso   1.000  O
  O2       1.0000 0.83490  0.56531  0.83810  Biso   1.000  O
  O3       1.0000 0.83490  0.93469  0.33810  Biso   1.000  O
  O4       1.0000 0.16510  0.43469  0.16190  Biso   1.000  O
  O5       1.0000 0.38650  0.06276  0.80270  Biso   1.000  O
  O6       1.0000 0.61350  0.56276  0.69730  Biso   1.000  O
  O7       1.0000 0.61350  0.93724  0.19730  Biso   1.000  O
  O8       1.0000 0.38650  0.43724  0.30270  Biso   1.000  O
  O9       1.0000 0.94320  0.03034  0.38870  Biso   1.000  O
  O10      1.0000 0.05680  0.53034  0.11130  Biso   1.000  O
  O11      1.0000 0.05680  0.96966  0.61130  Biso   1.000  O
  O12      1.0000 0.94320  0.46966  0.88870  Biso   1.000  O
  O13      1.0000 0.74210  0.05176  0.23280  Biso   1.000  O
  O14      1.0000 0.25790  0.55176  0.26720  Biso   1.000  O
  O15      1.0000 0.25790  0.94824  0.76720  Biso   1.000  O
  O16      1.0000 0.74210  0.44824  0.73280  Biso   1.000  O
  O17      1.0000 0.47000  0.69280  0.42860  Biso   1.000  O
  O18      1.0000 0.53000  0.19280  0.07140  Biso   1.000  O
  O19      1.0000 0.53000  0.30720  0.57140  Biso   1.000  O
  O20      1.0000 0.47000  0.80720  0.92860  Biso   1.000  O
  H1       1.0000 0.43030  0.66830  0.44580  Biso   1.000  H
  H2       1.0000 0.56970  0.16830  0.05420  Biso   1.000  H
  H3       1.0000 0.56970  0.33170  0.55420  Biso   1.000  H
  H4       1.0000 0.43030  0.83170  0.94580  Biso   1.000  H
  O21      1.0000 0.31880  0.68360  0.22460  Biso   1.000  O
  O22      1.0000 0.68120  0.18360  0.27540  Biso   1.000  O
  O23      1.0000 0.68120  0.31640  0.77540  Biso   1.000  O
  O24      1.0000 0.31880  0.81640  0.72460  Biso   1.000  O
  O25      1.0000 0.09460  0.72070  0.59300  Biso   1.000  O
  O26      1.0000 0.90540  0.22070  0.90700  Biso   1.000  O
  O27      1.0000 0.90540  0.27930  0.40700  Biso   1.000  O
  O28      1.0000 0.09460  0.77930  0.09300  Biso   1.000  O
  O29      1.0000 0.10110  0.79350  0.50870  Biso   1.000  O
  O30      1.0000 0.89890  0.29350  0.99130  Biso   1.000  O
  O31      1.0000 0.89890  0.20650  0.49130  Biso   1.000  O
  O32      1.0000 0.10110  0.70650  0.00870  Biso   1.000  O
  H5       1.0000 0.17120  0.80120  0.57930  Biso   1.000  H
  H6       1.0000 0.82880  0.30120  0.92070  Biso   1.000  H
  H7       1.0000 0.82880  0.19880  0.42070  Biso   1.000  H
  H8       1.0000 0.17120  0.69880  0.07930  Biso   1.000  H
  O33      1.0000 0.58830  0.10642  0.01580  Biso   1.000  O
  O34      1.0000 0.41170  0.60642  0.48420  Biso   1.000  O
  O35      1.0000 0.41170  0.89358  0.98420  Biso   1.000  O
  O36      1.0000 0.58830  0.39358  0.51580  Biso   1.000  O
  H9       1.0000 0.52050  0.09120  0.96100  Biso   1.000  H
  H10      1.0000 0.47950  0.59120  0.53900  Biso   1.000  H
  H11      1.0000 0.47950  0.90880  0.03900  Biso   1.000  H
  H12      1.0000 0.52050  0.40880  0.46100  Biso   1.000  H
  H13      1.0000 0.62900  0.08880  0.08440  Biso   1.000  H
  H14      1.0000 0.37100  0.58880  0.41560  Biso   1.000  H
  H15      1.0000 0.37100  0.91120  0.91560  Biso   1.000  H
  H16      1.0000 0.62900  0.41120  0.58440  Biso   1.000  H
  N1       1.0000 0.30080  0.04846  0.45450  Biso   1.000  N
  N2       1.0000 0.69920  0.54846  0.04550  Biso   1.000  N
  N3       1.0000 0.69920  0.95154  0.54550  Biso   1.000  N
  N4       1.0000 0.30080  0.45154  0.95450  Biso   1.000  N
  N5       1.0000 0.20800  0.95744  0.41880  Biso   1.000  N
  N6       1.0000 0.79200  0.45744  0.08120  Biso   1.000  N
  N7       1.0000 0.79200  0.04256  0.58120  Biso   1.000  N
  N8       1.0000 0.20800  0.54256  0.91880  Biso   1.000  N
  C1       1.0000 0.34490  0.09530  0.48010  Biso   1.000  C
  C2       1.0000 0.65510  0.59530  0.01990  Biso   1.000  C
  C3       1.0000 0.65510  0.90470  0.51990  Biso   1.000  C
  C4       1.0000 0.34490  0.40470  0.98010  Biso   1.000  C
  H17      1.0000 0.31090  0.11450  0.53760  Biso   1.000  H
  H18      1.0000 0.68910  0.61450  0.96240  Biso   1.000  H
  H19      1.0000 0.68910  0.88550  0.46240  Biso   1.000  H
  H20      1.0000 0.31090  0.38550  0.03760  Biso   1.000  H
  C5       1.0000 0.43850  0.11653  0.42510  Biso   1.000  C
  C6       1.0000 0.56150  0.61653  0.07490  Biso   1.000  C
  C7       1.0000 0.56150  0.88347  0.57490  Biso   1.000  C
  C8       1.0000 0.43850  0.38347  0.92510  Biso   1.000  C
  H21      1.0000 0.46610  0.14950  0.44400  Biso   1.000  H
  H22      1.0000 0.53390  0.64950  0.05600  Biso   1.000  H
  H23      1.0000 0.53390  0.85050  0.55600  Biso   1.000  H
  H24      1.0000 0.46610  0.35050  0.94400  Biso   1.000  H
  C9       1.0000 0.49030  0.08810  0.34180  Biso   1.000  C
  C10      1.0000 0.50970  0.58810  0.15820  Biso   1.000  C
  C11      1.0000 0.50970  0.91190  0.65820  Biso   1.000  C
  C12      1.0000 0.49030  0.41190  0.84180  Biso   1.000  C
  H25      1.0000 0.55460  0.10150  0.30440  Biso   1.000  H
  H26      1.0000 0.44540  0.60150  0.19560  Biso   1.000  H
  H27      1.0000 0.44540  0.89850  0.69560  Biso   1.000  H
  H28      1.0000 0.55460  0.39850  0.80440  Biso   1.000  H
  C13      1.0000 0.44650  0.03979  0.31400  Biso   1.000  C
  C14      1.0000 0.55350  0.53979  0.18600  Biso   1.000  C
  C15      1.0000 0.55350  0.96021  0.68600  Biso   1.000  C
  C16      1.0000 0.44650  0.46021  0.81400  Biso   1.000  C
  H29      1.0000 0.48150  0.02000  0.25850  Biso   1.000  H
  H30      1.0000 0.51850  0.52000  0.24150  Biso   1.000  H
  H31      1.0000 0.51850  0.98000  0.74150  Biso   1.000  H
  H32      1.0000 0.48150  0.48000  0.75850  Biso   1.000  H
  C17      1.0000 0.34940  0.02087  0.36960  Biso   1.000  C
  C18      1.0000 0.65060  0.52087  0.13040  Biso   1.000  C
  C19      1.0000 0.65060  0.97913  0.63040  Biso   1.000  C
  C20      1.0000 0.34940  0.47913  0.86960  Biso   1.000  C
  C21      1.0000 0.29160  0.97011  0.34430  Biso   1.000  C
  C22      1.0000 0.70840  0.47011  0.15570  Biso   1.000  C
  C23      1.0000 0.70840  0.02989  0.65570  Biso   1.000  C
  C24      1.0000 0.29160  0.52989  0.84430  Biso   1.000  C
  C25      1.0000 0.31720  0.93768  0.25140  Biso   1.000  C
  C26      1.0000 0.68280  0.43768  0.24860  Biso   1.000  C
  C27      1.0000 0.68280  0.06232  0.74860  Biso   1.000  C
  C28      1.0000 0.31720  0.56232  0.75140  Biso   1.000  C
  H33      1.0000 0.37400  0.94730  0.20070  Biso   1.000  H
  H34      1.0000 0.62600  0.44730  0.29930  Biso   1.000  H
  H35      1.0000 0.62600  0.05270  0.79930  Biso   1.000  H
  H36      1.0000 0.37400  0.55270  0.70070  Biso   1.000  H
  C29      1.0000 0.25800  0.89071  0.23390  Biso   1.000  C
  C30      1.0000 0.74200  0.39071  0.26610  Biso   1.000  C
  C31      1.0000 0.74200  0.10929  0.76610  Biso   1.000  C
  C32      1.0000 0.25800  0.60929  0.73390  Biso   1.000  C
  H37      1.0000 0.27350  0.86840  0.17100  Biso   1.000  H
  H38      1.0000 0.72650  0.36840  0.32900  Biso   1.000  H
  H39      1.0000 0.72650  0.13160  0.82900  Biso   1.000  H
  H40      1.0000 0.27350  0.63160  0.67100  Biso   1.000  H
  C33      1.0000 0.17540  0.87776  0.31170  Biso   1.000  C
  C34      1.0000 0.82460  0.37776  0.18830  Biso   1.000  C
  C35      1.0000 0.82460  0.12224  0.68830  Biso   1.000  C
  C36      1.0000 0.17540  0.62224  0.81170  Biso   1.000  C
  H41      1.0000 0.13540  0.84630  0.30330  Biso   1.000  H
  H42      1.0000 0.86460  0.34630  0.19670  Biso   1.000  H
  H43      1.0000 0.86460  0.15370  0.69670  Biso   1.000  H
  H44      1.0000 0.13540  0.65370  0.80330  Biso   1.000  H
  C37      1.0000 0.15280  0.91189  0.40200  Biso   1.000  C
  C38      1.0000 0.84720  0.41189  0.09800  Biso   1.000  C
  C39      1.0000 0.84720  0.08811  0.59800  Biso   1.000  C
  C40      1.0000 0.15280  0.58811  0.90200  Biso   1.000  C
  H45      1.0000 0.09650  0.90280  0.45370  Biso   1.000  H
  H46      1.0000 0.90350  0.40280  0.04630  Biso   1.000  H
  H47      1.0000 0.90350  0.09720  0.54630  Biso   1.000  H
  H48      1.0000 0.09650  0.59720  0.95370  Biso   1.000  H
  C41      1.0000 0.26300  0.07561  0.77520  Biso   1.000  C
  C42      1.0000 0.73700  0.57561  0.72480  Biso   1.000  C
  C43      1.0000 0.73700  0.92439  0.22480  Biso   1.000  C
  C44      1.0000 0.26300  0.42439  0.27520  Biso   1.000  C
  C45      1.0000 0.21610  0.10430  0.87990  Biso   1.000  C
  C46      1.0000 0.78390  0.60430  0.62010  Biso   1.000  C
  C47      1.0000 0.78390  0.89570  0.12010  Biso   1.000  C
  C48      1.0000 0.21610  0.39570  0.37990  Biso   1.000  C
  H49      1.0000 0.15310  0.13080  0.83290  Biso   1.000  H
  H50      1.0000 0.84690  0.63080  0.66710  Biso   1.000  H
  H51      1.0000 0.84690  0.86920  0.16710  Biso   1.000  H
  H52      1.0000 0.15310  0.36920  0.33290  Biso   1.000  H
  H53      1.0000 0.29720  0.11920  0.94910  Biso   1.000  H
  H54      1.0000 0.70280  0.61920  0.55090  Biso   1.000  H
  H55      1.0000 0.70280  0.88080  0.05090  Biso   1.000  H
  H56      1.0000 0.29720  0.38080  0.44910  Biso   1.000  H
  C49      1.0000 0.14200  0.07002  0.95090  Biso   1.000  C
  C50      1.0000 0.85800  0.57002  0.54910  Biso   1.000  C
  C51      1.0000 0.85800  0.92998  0.04910  Biso   1.000  C
  C52      1.0000 0.14200  0.42998  0.45090  Biso   1.000  C
  H57      1.0000 0.20610  0.04390  0.99860  Biso   1.000  H
  H58      1.0000 0.79390  0.54390  0.50140  Biso   1.000  H
  H59      1.0000 0.79390  0.95610  0.00140  Biso   1.000  H
  H60      1.0000 0.20610  0.45610  0.49860  Biso   1.000  H
  H61      1.0000 0.06280  0.05450  0.88080  Biso   1.000  H
  H62      1.0000 0.93720  0.55450  0.61920  Biso   1.000  H
  H63      1.0000 0.93720  0.94550  0.11920  Biso   1.000  H
  H64      1.0000 0.06280  0.44550  0.38080  Biso   1.000  H
  C53      1.0000 0.08960  0.09698  0.05510  Biso   1.000  C
  C54      1.0000 0.91040  0.59698  0.44490  Biso   1.000  C
  C55      1.0000 0.91040  0.90302  0.94490  Biso   1.000  C
  C56      1.0000 0.08960  0.40302  0.55510  Biso   1.000  C
  H65      1.0000 0.03150  0.12480  0.00920  Biso   1.000  H
  H66      1.0000 0.96850  0.62480  0.49080  Biso   1.000  H
  H67      1.0000 0.96850  0.87520  0.99080  Biso   1.000  H
  H68      1.0000 0.03150  0.37520  0.50920  Biso   1.000  H
  H69      1.0000 0.16940  0.11010  0.12940  Biso   1.000  H
  H70      1.0000 0.83060  0.61010  0.37060  Biso   1.000  H
  H71      1.0000 0.83060  0.88990  0.87060  Biso   1.000  H
  H72      1.0000 0.16940  0.38990  0.62940  Biso   1.000  H
  C57      1.0000 0.00510  0.06336  0.11750  Biso   1.000  C
  C58      1.0000 0.99490  0.56336  0.38250  Biso   1.000  C
  C59      1.0000 0.99490  0.93664  0.88250  Biso   1.000  C
  C60      1.0000 0.00510  0.43664  0.61750  Biso   1.000  C
  H73      1.0000 0.06340  0.03560  0.16390  Biso   1.000  H
  H74      1.0000 0.93660  0.53560  0.33610  Biso   1.000  H
  H75      1.0000 0.93660  0.96440  0.83610  Biso   1.000  H
  H76      1.0000 0.06340  0.46440  0.66390  Biso   1.000  H
  H77      1.0000 0.92550  0.05010  0.04320  Biso   1.000  H
  H78      1.0000 0.07450  0.55010  0.45680  Biso   1.000  H
  H79      1.0000 0.07450  0.94990  0.95680  Biso   1.000  H
  H80      1.0000 0.92550  0.44990  0.54320  Biso   1.000  H
  C61      1.0000 0.95200  0.09059  0.22160  Biso   1.000  C
  C62      1.0000 0.04800  0.59059  0.27840  Biso   1.000  C
  C63      1.0000 0.04800  0.90941  0.77840  Biso   1.000  C
  C64      1.0000 0.95200  0.40941  0.72160  Biso   1.000  C
  H81      1.0000 0.03120  0.10430  0.29550  Biso   1.000  H
  H82      1.0000 0.96880  0.60430  0.20450  Biso   1.000  H
  H83      1.0000 0.96880  0.89570  0.70450  Biso   1.000  H
  H84      1.0000 0.03120  0.39570  0.79550  Biso   1.000  H
  H85      1.0000 0.89190  0.11790  0.17520  Biso   1.000  H
  H86      1.0000 0.10810  0.61790  0.32480  Biso   1.000  H
  H87      1.0000 0.10810  0.88210  0.82480  Biso   1.000  H
  H88      1.0000 0.89190  0.38210  0.67520  Biso   1.000  H
  C65      1.0000 0.87120  0.05616  0.28310  Biso   1.000  C
  C66      1.0000 0.12880  0.55616  0.21690  Biso   1.000  C
  C67      1.0000 0.12880  0.94384  0.71690  Biso   1.000  C
  C68      1.0000 0.87120  0.44384  0.78310  Biso   1.000  C
  C69      1.0000 0.05250  0.74960  0.49640  Biso   1.000  C
  C70      1.0000 0.94750  0.24960  0.00360  Biso   1.000  C
  C71      1.0000 0.94750  0.25040  0.50360  Biso   1.000  C
  C72      1.0000 0.05250  0.75040  0.99640  Biso   1.000  C
  C73      1.0000 0.92630  0.74170  0.36370  Biso   1.000  C
  C74      1.0000 0.07370  0.24170  0.13630  Biso   1.000  C
  C75      1.0000 0.07370  0.25830  0.63630  Biso   1.000  C
  C76      1.0000 0.92630  0.75830  0.86370  Biso   1.000  C
  H89      1.0000 0.94800  0.75390  0.28380  Biso   1.000  H
  H90      1.0000 0.05200  0.25390  0.21620  Biso   1.000  H
  H91      1.0000 0.05200  0.24610  0.71620  Biso   1.000  H
  H92      1.0000 0.94800  0.74610  0.78380  Biso   1.000  H
  H93      1.0000 0.90470  0.70660  0.35040  Biso   1.000  H
  H94      1.0000 0.09530  0.20660  0.14960  Biso   1.000  H
  H95      1.0000 0.09530  0.29340  0.64960  Biso   1.000  H
  H96      1.0000 0.90470  0.79340  0.85040  Biso   1.000  H
  C77      1.0000 0.80570  0.76870  0.37670  Biso   1.000  C
  C78      1.0000 0.19430  0.26870  0.12330  Biso   1.000  C
  C79      1.0000 0.19430  0.23130  0.62330  Biso   1.000  C
  C80      1.0000 0.80570  0.73130  0.87670  Biso   1.000  C
  H97      1.0000 0.81890  0.80390  0.36500  Biso   1.000  H
  H98      1.0000 0.18110  0.30390  0.13500  Biso   1.000  H
  H99      1.0000 0.18110  0.19610  0.63500  Biso   1.000  H
  H100     1.0000 0.81890  0.69610  0.86500  Biso   1.000  H
  H101     1.0000 0.80310  0.76380  0.47000  Biso   1.000  H
  H102     1.0000 0.19690  0.26380  0.03000  Biso   1.000  H
  H103     1.0000 0.19690  0.23620  0.53000  Biso   1.000  H
  H104     1.0000 0.80310  0.73620  0.97000  Biso   1.000  H
  C81      1.0000 0.67080  0.75360  0.27680  Biso   1.000  C
  C82      1.0000 0.32920  0.25360  0.22320  Biso   1.000  C
  C83      1.0000 0.32920  0.24640  0.72320  Biso   1.000  C
  C84      1.0000 0.67080  0.74640  0.77680  Biso   1.000  C
  H105     1.0000 0.65910  0.71800  0.28320  Biso   1.000  H
  H106     1.0000 0.34090  0.21800  0.21680  Biso   1.000  H
  H107     1.0000 0.34090  0.28200  0.71680  Biso   1.000  H
  H108     1.0000 0.65910  0.78200  0.78320  Biso   1.000  H
  H109     1.0000 0.66880  0.76110  0.18330  Biso   1.000  H
  H110     1.0000 0.33120  0.26110  0.31670  Biso   1.000  H
  H111     1.0000 0.33120  0.23890  0.81670  Biso   1.000  H
  H112     1.0000 0.66880  0.73890  0.68330  Biso   1.000  H
  C85      1.0000 0.55200  0.78030  0.30490  Biso   1.000  C
  C86      1.0000 0.44800  0.28030  0.19510  Biso   1.000  C
  C87      1.0000 0.44800  0.21970  0.69510  Biso   1.000  C
  C88      1.0000 0.55200  0.71970  0.80490  Biso   1.000  C
  H113     1.0000 0.57850  0.78460  0.40480  Biso   1.000  H
  H114     1.0000 0.42150  0.28460  0.09520  Biso   1.000  H
  H115     1.0000 0.42150  0.21540  0.59520  Biso   1.000  H
  H116     1.0000 0.57850  0.71540  0.90480  Biso   1.000  H
  H117     1.0000 0.54530  0.81320  0.26460  Biso   1.000  H
  H118     1.0000 0.45470  0.31320  0.23540  Biso   1.000  H
  H119     1.0000 0.45470  0.18680  0.73540  Biso   1.000  H
  H120     1.0000 0.54530  0.68680  0.76460  Biso   1.000  H
  C89      1.0000 0.42330  0.76040  0.26020  Biso   1.000  C
  C90      1.0000 0.57670  0.26040  0.23980  Biso   1.000  C
  C91      1.0000 0.57670  0.23960  0.73980  Biso   1.000  C
  C92      1.0000 0.42330  0.73960  0.76020  Biso   1.000  C
  H121     1.0000 0.39080  0.76100  0.15940  Biso   1.000  H
  H122     1.0000 0.60920  0.26100  0.34060  Biso   1.000  H
  H123     1.0000 0.60920  0.23900  0.84060  Biso   1.000  H
  H124     1.0000 0.39080  0.73900  0.65940  Biso   1.000  H
  H125     1.0000 0.36220  0.78230  0.28930  Biso   1.000  H
  H126     1.0000 0.63780  0.28230  0.21070  Biso   1.000  H
  H127     1.0000 0.63780  0.21770  0.71070  Biso   1.000  H
  H128     1.0000 0.36220  0.71770  0.78930  Biso   1.000  H
  C93      1.0000 0.40150  0.70850  0.30410  Biso   1.000  C
  C94      1.0000 0.59850  0.20850  0.19590  Biso   1.000  C
  C95      1.0000 0.59850  0.29150  0.69590  Biso   1.000  C
  C96      1.0000 0.40150  0.79150  0.80410  Biso   1.000  C
