data_image0
_cell_length_a       6.7226
_cell_length_b       8.0901
_cell_length_c       11.2557
_cell_angle_alpha    74.525
_cell_angle_beta     83.848
_cell_angle_gamma    83.7

_symmetry_space_group_name_H-M    "P 1"
_symmetry_int_tables_number       1

loop_
  _symmetry_equiv_pos_as_xyz
  'x, y, z'

loop_
  _atom_site_label
  _atom_site_occupancy
  _atom_site_fract_x
  _atom_site_fract_y
  _atom_site_fract_z
  _atom_site_thermal_displace_type
  _atom_site_B_iso_or_equiv
  _atom_site_type_symbol
  Cu1      1.0000 0.50000  0.50000  0.00000  Biso   1.000  Cu
  N1       1.0000 0.68720  0.62038  0.06458  Biso   1.000  N
  N2       1.0000 0.31280  0.37962  0.93542  Biso   1.000  N
  O1       1.0000 0.67355  0.29710  0.07359  Biso   1.000  O
  O2       1.0000 0.32645  0.70290  0.92641  Biso   1.000  O
  O3       1.0000 0.93160  0.21390  0.18909  Biso   1.000  O
  O4       1.0000 0.06840  0.78610  0.81091  Biso   1.000  O
  O5       1.0000 0.29528  0.40676  0.20204  Biso   1.000  O
  O6       1.0000 0.70472  0.59324  0.79796  Biso   1.000  O
  O7       1.0000 0.08770  0.40890  0.36927  Biso   1.000  O
  O8       1.0000 0.91230  0.59110  0.63073  Biso   1.000  O
  C1       1.0000 0.81370  0.32560  0.13127  Biso   1.000  C
  C2       1.0000 0.18630  0.67440  0.86873  Biso   1.000  C
  C3       1.0000 0.83090  0.51300  0.12612  Biso   1.000  C
  C4       1.0000 0.16910  0.48700  0.87388  Biso   1.000  C
  C5       1.0000 0.97870  0.57100  0.17826  Biso   1.000  C
  C6       1.0000 0.02130  0.42900  0.82174  Biso   1.000  C
  C7       1.0000 0.13170  0.45110  0.25714  Biso   1.000  C
  C8       1.0000 0.86830  0.54890  0.74286  Biso   1.000  C
  C9       1.0000 0.97610  0.74850  0.16096  Biso   1.000  C
  C10      1.0000 0.02390  0.25150  0.83904  Biso   1.000  C
  H1       1.0000 0.07350  0.79290  0.19340  Biso   1.000  H
  H2       1.0000 0.92650  0.20710  0.80660  Biso   1.000  H
  C11      1.0000 0.83050  0.85840  0.09622  Biso   1.000  C
  C12      1.0000 0.16950  0.14160  0.90378  Biso   1.000  C
  H3       1.0000 0.82920  0.97680  0.08420  Biso   1.000  H
  H4       1.0000 0.17080  0.02320  0.91580  Biso   1.000  H
  C13      1.0000 0.68690  0.79000  0.04961  Biso   1.000  C
  C14      1.0000 0.31310  0.21000  0.95039  Biso   1.000  C
  H5       1.0000 0.58720  0.86350  0.00670  Biso   1.000  H
  H6       1.0000 0.41280  0.13650  0.99330  Biso   1.000  H
  N3       1.0000 0.62270  0.92360  0.68145  Biso   1.000  N
  N4       1.0000 0.37730  0.07640  0.31855  Biso   1.000  N
  H7       1.0000 0.64500  0.81700  0.72100  Biso   1.000  H
  H8       1.0000 0.35500  0.18300  0.27900  Biso   1.000  H
  C15      1.0000 0.78560  0.00460  0.63190  Biso   1.000  C
  C16      1.0000 0.21440  0.99540  0.36810  Biso   1.000  C
  H9       1.0000 0.91210  0.94680  0.64440  Biso   1.000  H
  H10      1.0000 0.08790  0.05320  0.35560  Biso   1.000  H
  C17      1.0000 0.76900  0.17210  0.56243  Biso   1.000  C
  C18      1.0000 0.23100  0.82790  0.43757  Biso   1.000  C
  H11      1.0000 0.88390  0.22790  0.52920  Biso   1.000  H
  H12      1.0000 0.11610  0.77210  0.47080  Biso   1.000  H
  C19      1.0000 0.58110  0.25810  0.54184  Biso   1.000  C
  C20      1.0000 0.41890  0.74190  0.45816  Biso   1.000  C
  C21      1.0000 0.55870  0.44030  0.46422  Biso   1.000  C
  C22      1.0000 0.44130  0.55970  0.53578  Biso   1.000  C
  H13      1.0000 0.49000  0.44410  0.39190  Biso   1.000  H
  H14      1.0000 0.51000  0.55590  0.60810  Biso   1.000  H
  H15      1.0000 0.69080  0.48020  0.43600  Biso   1.000  H
  H16      1.0000 0.30920  0.51980  0.56400  Biso   1.000  H
  C23      1.0000 0.41420  0.16920  0.59370  Biso   1.000  C
  C24      1.0000 0.58580  0.83080  0.40630  Biso   1.000  C
  H17      1.0000 0.28570  0.22270  0.58100  Biso   1.000  H
  H18      1.0000 0.71430  0.77730  0.41900  Biso   1.000  H
  C25      1.0000 0.43930  0.00180  0.66361  Biso   1.000  C
  C26      1.0000 0.56070  0.99820  0.33639  Biso   1.000  C
  H19      1.0000 0.32740  0.94280  0.69880  Biso   1.000  H
  H20      1.0000 0.67260  0.05720  0.30120  Biso   1.000  H
