data_image0
_cell_length_a       7.5515
_cell_length_b       11.1038
_cell_length_c       16.2388
_cell_angle_alpha    108.814
_cell_angle_beta     92.037
_cell_angle_gamma    97.01

_symmetry_space_group_name_H-M    "P 1"
_symmetry_int_tables_number       1

loop_
  _symmetry_equiv_pos_as_xyz
  'x, y, z'

loop_
  _atom_site_label
  _atom_site_occupancy
  _atom_site_fract_x
  _atom_site_fract_y
  _atom_site_fract_z
  _atom_site_thermal_displace_type
  _atom_site_B_iso_or_equiv
  _atom_site_type_symbol
  Cu1      1.0000 0.47458  0.15131  0.18930  Biso   1.000  Cu
  Cu2      1.0000 0.52542  0.84869  0.81070  Biso   1.000  Cu
  S1       1.0000 0.91414  0.50501  0.71399  Biso   1.000  S
  S2       1.0000 0.08586  0.49499  0.28601  Biso   1.000  S
  S3       1.0000 0.78162  0.40935  0.59621  Biso   1.000  S
  S4       1.0000 0.21838  0.59065  0.40379  Biso   1.000  S
  N1       1.0000 0.12130  0.37260  0.55817  Biso   1.000  N
  N2       1.0000 0.87870  0.62740  0.44183  Biso   1.000  N
  N3       1.0000 0.01940  0.43240  0.84107  Biso   1.000  N
  N4       1.0000 0.98060  0.56760  0.15893  Biso   1.000  N
  N5       1.0000 0.48520  0.97316  0.19326  Biso   1.000  N
  N6       1.0000 0.51480  0.02684  0.80674  Biso   1.000  N
  N7       1.0000 0.49540  0.33492  0.19130  Biso   1.000  N
  N8       1.0000 0.50460  0.66508  0.80870  Biso   1.000  N
  O1       1.0000 0.09300  0.01512  0.84654  Biso   1.000  O
  O2       1.0000 0.90700  0.98488  0.15346  Biso   1.000  O
  O3       1.0000 0.12440  0.18093  0.97158  Biso   1.000  O
  O4       1.0000 0.87560  0.81907  0.02842  Biso   1.000  O
  O5       1.0000 0.28940  0.18132  0.27102  Biso   1.000  O
  O6       1.0000 0.71060  0.81868  0.72898  Biso   1.000  O
  O7       1.0000 0.49730  0.24120  0.38099  Biso   1.000  O
  O8       1.0000 0.50270  0.75880  0.61901  Biso   1.000  O
  C1       1.0000 0.95230  0.35550  0.52533  Biso   1.000  C
  C2       1.0000 0.04770  0.64450  0.47467  Biso   1.000  C
  C3       1.0000 0.89470  0.29510  0.43835  Biso   1.000  C
  C4       1.0000 0.10530  0.70490  0.56165  Biso   1.000  C
  H1       1.0000 0.77210  0.28560  0.41880  Biso   1.000  H
  H2       1.0000 0.22790  0.71440  0.58120  Biso   1.000  H
  C5       1.0000 0.01970  0.24900  0.38047  Biso   1.000  C
  C6       1.0000 0.98030  0.75100  0.61953  Biso   1.000  C
  H3       1.0000 0.98440  0.20590  0.32030  Biso   1.000  H
  H4       1.0000 0.01560  0.79410  0.67970  Biso   1.000  H
  C7       1.0000 0.19810  0.26690  0.41181  Biso   1.000  C
  C8       1.0000 0.80190  0.73310  0.58819  Biso   1.000  C
  C9       1.0000 0.24050  0.32890  0.50033  Biso   1.000  C
  C10      1.0000 0.75950  0.67110  0.49967  Biso   1.000  C
  H5       1.0000 0.36250  0.34140  0.52160  Biso   1.000  H
  H6       1.0000 0.63750  0.65860  0.47840  Biso   1.000  H
  C11      1.0000 0.34010  0.22660  0.35147  Biso   1.000  C
  C12      1.0000 0.65990  0.77340  0.64853  Biso   1.000  C
  C13      1.0000 0.95280  0.38230  0.75798  Biso   1.000  C
  C14      1.0000 0.04720  0.61770  0.24202  Biso   1.000  C
  C15      1.0000 0.92390  0.25140  0.71218  Biso   1.000  C
  C16      1.0000 0.07610  0.74860  0.28782  Biso   1.000  C
  H7       1.0000 0.87620  0.21980  0.65300  Biso   1.000  H
  H8       1.0000 0.12380  0.78020  0.34700  Biso   1.000  H
  C17      1.0000 0.96650  0.16820  0.75500  Biso   1.000  C
  C18      1.0000 0.03350  0.83180  0.24500  Biso   1.000  C
  H9       1.0000 0.94860  0.07810  0.72550  Biso   1.000  H
  H10      1.0000 0.05140  0.92190  0.27450  Biso   1.000  H
  C19      1.0000 0.03580  0.21760  0.84182  Biso   1.000  C
  C20      1.0000 0.96420  0.78240  0.15818  Biso   1.000  C
  C21      1.0000 0.05890  0.34970  0.88150  Biso   1.000  C
  C22      1.0000 0.94110  0.65030  0.11850  Biso   1.000  C
  H11      1.0000 0.10550  0.38390  0.94080  Biso   1.000  H
  H12      1.0000 0.89450  0.61610  0.05920  Biso   1.000  H
  C23      1.0000 0.08890  0.13030  0.89081  Biso   1.000  C
  C24      1.0000 0.91110  0.86970  0.10919  Biso   1.000  C
  C25      1.0000 0.44800  0.87360  0.11975  Biso   1.000  C
  C26      1.0000 0.55200  0.12640  0.88025  Biso   1.000  C
  H13      1.0000 0.41570  0.88940  0.06750  Biso   1.000  H
  H14      1.0000 0.58430  0.11060  0.93250  Biso   1.000  H
  C27      1.0000 0.45440  0.74830  0.11637  Biso   1.000  C
  C28      1.0000 0.54560  0.25170  0.88363  Biso   1.000  C
  H15      1.0000 0.42730  0.68000  0.06250  Biso   1.000  H
  H16      1.0000 0.57270  0.32000  0.93750  Biso   1.000  H
  C29      1.0000 0.50060  0.72220  0.19201  Biso   1.000  C
  C30      1.0000 0.49940  0.27780  0.80799  Biso   1.000  C
  C31      1.0000 0.53840  0.82620  0.26837  Biso   1.000  C
  C32      1.0000 0.46160  0.17380  0.73163  Biso   1.000  C
  H17      1.0000 0.56970  0.81320  0.32170  Biso   1.000  H
  H18      1.0000 0.43030  0.18680  0.67830  Biso   1.000  H
  C33      1.0000 0.53020  0.94930  0.26633  Biso   1.000  C
  C34      1.0000 0.46980  0.05070  0.73367  Biso   1.000  C
  H19      1.0000 0.55760  0.01970  0.31900  Biso   1.000  H
  H20      1.0000 0.44240  0.98030  0.68100  Biso   1.000  H
  C35      1.0000 0.50370  0.58840  0.19139  Biso   1.000  C
  C36      1.0000 0.49630  0.41160  0.80861  Biso   1.000  C
  C37      1.0000 0.41530  0.48440  0.12347  Biso   1.000  C
  C38      1.0000 0.58470  0.51560  0.87653  Biso   1.000  C
  H21      1.0000 0.35540  0.49840  0.07560  Biso   1.000  H
  H22      1.0000 0.64460  0.50160  0.92440  Biso   1.000  H
  C39      1.0000 0.41420  0.36130  0.12532  Biso   1.000  C
  C40      1.0000 0.58580  0.63870  0.87468  Biso   1.000  C
  H23      1.0000 0.35350  0.29190  0.07790  Biso   1.000  H
  H24      1.0000 0.64650  0.70810  0.92210  Biso   1.000  H
  C41      1.0000 0.58320  0.43430  0.25658  Biso   1.000  C
  C42      1.0000 0.41680  0.56570  0.74342  Biso   1.000  C
  H25      1.0000 0.64280  0.41740  0.30330  Biso   1.000  H
  H26      1.0000 0.35720  0.58260  0.69670  Biso   1.000  H
  C43      1.0000 0.59100  0.56070  0.25875  Biso   1.000  C
  C44      1.0000 0.40900  0.43930  0.74125  Biso   1.000  C
  H27      1.0000 0.65560  0.62820  0.30600  Biso   1.000  H
  H28      1.0000 0.34440  0.37180  0.69400  Biso   1.000  H
  O9       1.0000 0.23750  0.07136  0.08802  Biso   1.000  O
  O10      1.0000 0.76250  0.92864  0.91198  Biso   1.000  O
  O11      1.0000 0.15090  0.69514  0.94042  Biso   1.000  O
  O12      1.0000 0.84910  0.30486  0.05958  Biso   1.000  O
  O13      1.0000 0.67740  0.12787  0.11710  Biso   1.000  O
  O14      1.0000 0.32260  0.87213  0.88290  Biso   1.000  O
  H29      1.0000 0.20820  0.11440  0.06060  Biso   1.000  H
  H30      1.0000 0.79180  0.88560  0.93940  Biso   1.000  H
  H31      1.0000 0.73090  0.17840  0.09800  Biso   1.000  H
  H32      1.0000 0.26910  0.82160  0.90200  Biso   1.000  H
  H33      1.0000 0.74820  0.07950  0.11620  Biso   1.000  H
  H34      1.0000 0.25180  0.92050  0.88380  Biso   1.000  H
  H35      1.0000 0.14580  0.05840  0.11030  Biso   1.000  H
  H36      1.0000 0.85420  0.94160  0.88970  Biso   1.000  H
  H37      1.0000 0.10370  0.62770  0.90640  Biso   1.000  H
  H38      1.0000 0.89630  0.37230  0.09360  Biso   1.000  H
  H39      1.0000 0.07360  0.72900  0.96810  Biso   1.000  H
  H40      1.0000 0.92640  0.27100  0.03190  Biso   1.000  H
  O15      1.0000 0.47590  0.90220  0.48840  Biso   1.000  O
  O16      1.0000 0.52410  0.09780  0.51160  Biso   1.000  O
  H41      1.0000 0.48090  0.87580  0.52860  Biso   1.000  H
  H42      1.0000 0.51910  0.12420  0.47140  Biso   1.000  H
  H43      1.0000 0.43130  0.85010  0.44360  Biso   1.000  H
  H44      1.0000 0.56870  0.14990  0.55640  Biso   1.000  H
  O17      1.0000 0.71500  0.00300  0.51170  Biso   1.000  O
  O18      1.0000 0.28500  0.99700  0.48830  Biso   1.000  O
  O19      1.0000 0.00000  0.00000  0.50000  Biso   1.000  O
