data_image0
_cell_length_a       8.6572
_cell_length_b       13.4414
_cell_length_c       16.9526
_cell_angle_alpha    85.05
_cell_angle_beta     82.396
_cell_angle_gamma    86.48

_symmetry_space_group_name_H-M    "P 1"
_symmetry_int_tables_number       1

loop_
  _symmetry_equiv_pos_as_xyz
  'x, y, z'

loop_
  _atom_site_label
  _atom_site_occupancy
  _atom_site_fract_x
  _atom_site_fract_y
  _atom_site_fract_z
  _atom_site_thermal_displace_type
  _atom_site_B_iso_or_equiv
  _atom_site_type_symbol
  Cu1      1.0000 0.05264  0.20806  0.54522  Biso   1.000  Cu
  Cu2      1.0000 0.94736  0.79194  0.45478  Biso   1.000  Cu
  Ni1      1.0000 0.21091  0.28249  0.23237  Biso   1.000  Ni
  Ni2      1.0000 0.78909  0.71751  0.76763  Biso   1.000  Ni
  Ni3      1.0000 0.70275  0.08256  0.81327  Biso   1.000  Ni
  Ni4      1.0000 0.29725  0.91744  0.18673  Biso   1.000  Ni
  O1       1.0000 0.27000  0.29330  0.58690  Biso   1.000  O
  O2       1.0000 0.73000  0.70670  0.41310  Biso   1.000  O
  O3       1.0000 0.25240  0.17160  0.32310  Biso   1.000  O
  O4       1.0000 0.74760  0.82840  0.67690  Biso   1.000  O
  O5       1.0000 0.08640  0.35050  0.33110  Biso   1.000  O
  O6       1.0000 0.91360  0.64950  0.66890  Biso   1.000  O
  O7       1.0000 0.88590  0.26580  0.62320  Biso   1.000  O
  O8       1.0000 0.11410  0.73420  0.37680  Biso   1.000  O
  O9       1.0000 0.73010  0.21050  0.73250  Biso   1.000  O
  O10      1.0000 0.26990  0.78950  0.26750  Biso   1.000  O
  O11      1.0000 0.90610  0.03710  0.74170  Biso   1.000  O
  O12      1.0000 0.09390  0.96290  0.25830  Biso   1.000  O
  O13      1.0000 0.03320  0.32100  0.46380  Biso   1.000  O
  O14      1.0000 0.96680  0.67900  0.53620  Biso   1.000  O
  N1       1.0000 0.40650  0.34740  0.25880  Biso   1.000  N
  N2       1.0000 0.59350  0.65260  0.74120  Biso   1.000  N
  H1       1.0000 0.37450  0.38660  0.29820  Biso   1.000  H
  H2       1.0000 0.62550  0.61340  0.70180  Biso   1.000  H
  H3       1.0000 0.47250  0.29880  0.27260  Biso   1.000  H
  H4       1.0000 0.52750  0.70120  0.72740  Biso   1.000  H
  N3       1.0000 0.15370  0.40140  0.15130  Biso   1.000  N
  N4       1.0000 0.84630  0.59860  0.84870  Biso   1.000  N
  N5       1.0000 0.01580  0.20290  0.22530  Biso   1.000  N
  N6       1.0000 0.98420  0.79710  0.77470  Biso   1.000  N
  H5       1.0000 0.04520  0.13640  0.23290  Biso   1.000  H
  H6       1.0000 0.95480  0.86360  0.76710  Biso   1.000  H
  H7       1.0000 0.94480  0.21690  0.27000  Biso   1.000  H
  H8       1.0000 0.05520  0.78310  0.73000  Biso   1.000  H
  N7       1.0000 0.58560  0.01700  0.73300  Biso   1.000  N
  N8       1.0000 0.41440  0.98300  0.26700  Biso   1.000  N
  H9       1.0000 0.57470  0.06420  0.69060  Biso   1.000  H
  H10      1.0000 0.42530  0.93580  0.30940  Biso   1.000  H
  H11      1.0000 0.64770  0.96520  0.71330  Biso   1.000  H
  H12      1.0000 0.35230  0.03480  0.28670  Biso   1.000  H
  N9       1.0000 0.49410  0.14800  0.87060  Biso   1.000  N
  N10      1.0000 0.50590  0.85200  0.12940  Biso   1.000  N
  N11      1.0000 0.85160  0.14180  0.88130  Biso   1.000  N
  N12      1.0000 0.14840  0.85820  0.11870  Biso   1.000  N
  H13      1.0000 0.93230  0.09510  0.88770  Biso   1.000  H
  H14      1.0000 0.06770  0.90490  0.11230  Biso   1.000  H
  H15      1.0000 0.89290  0.19660  0.85280  Biso   1.000  H
  H16      1.0000 0.10710  0.80340  0.14720  Biso   1.000  H
  N13      1.0000 0.17820  0.14450  0.45940  Biso   1.000  N
  N14      1.0000 0.82180  0.85550  0.54060  Biso   1.000  N
  N15      1.0000 0.04120  0.09270  0.62030  Biso   1.000  N
  N16      1.0000 0.95880  0.90730  0.37970  Biso   1.000  N
  N17      1.0000 0.34680  0.20640  0.14110  Biso   1.000  N
  N18      1.0000 0.65320  0.79360  0.85890  Biso   1.000  N
  N19      1.0000 0.31810  0.12680  0.12670  Biso   1.000  N
  N20      1.0000 0.68190  0.87320  0.87330  Biso   1.000  N
  N21      1.0000 0.29090  0.04760  0.10860  Biso   1.000  N
  N22      1.0000 0.70910  0.95240  0.89140  Biso   1.000  N
  C1       1.0000 0.49950  0.41210  0.19810  Biso   1.000  C
  C2       1.0000 0.50050  0.58790  0.80190  Biso   1.000  C
  H17      1.0000 0.55420  0.37150  0.15670  Biso   1.000  H
  H18      1.0000 0.44580  0.62850  0.84330  Biso   1.000  H
  H19      1.0000 0.57780  0.44380  0.22290  Biso   1.000  H
  H20      1.0000 0.42220  0.55620  0.77710  Biso   1.000  H
  C3       1.0000 0.39440  0.49180  0.16070  Biso   1.000  C
  C4       1.0000 0.60560  0.50820  0.83930  Biso   1.000  C
  H21      1.0000 0.45970  0.54220  0.12980  Biso   1.000  H
  H22      1.0000 0.54030  0.45780  0.87020  Biso   1.000  H
  H23      1.0000 0.32900  0.52490  0.20340  Biso   1.000  H
  H24      1.0000 0.67100  0.47510  0.79660  Biso   1.000  H
  C5       1.0000 0.28840  0.45310  0.10600  Biso   1.000  C
  C6       1.0000 0.71160  0.54690  0.89400  Biso   1.000  C
  H25      1.0000 0.24960  0.50950  0.07210  Biso   1.000  H
  H26      1.0000 0.75040  0.49050  0.92790  Biso   1.000  H
  H27      1.0000 0.34940  0.40670  0.07100  Biso   1.000  H
  H28      1.0000 0.65060  0.59330  0.92900  Biso   1.000  H
  C7       1.0000 0.05300  0.37460  0.09150  Biso   1.000  C
  C8       1.0000 0.94700  0.62540  0.90850  Biso   1.000  C
  H29      1.0000 0.07960  0.38740  0.03610  Biso   1.000  H
  H30      1.0000 0.92040  0.61260  0.96390  Biso   1.000  H
  C9       1.0000 0.90680  0.32580  0.12770  Biso   1.000  C
  C10      1.0000 0.09320  0.67420  0.87230  Biso   1.000  C
  H31      1.0000 0.80870  0.36040  0.13290  Biso   1.000  H
  H32      1.0000 0.19130  0.63960  0.86710  Biso   1.000  H
  C11      1.0000 0.92950  0.21490  0.15550  Biso   1.000  C
  C12      1.0000 0.07050  0.78510  0.84450  Biso   1.000  C
  H33      1.0000 0.82750  0.18580  0.16960  Biso   1.000  H
  H34      1.0000 0.17250  0.81420  0.83040  Biso   1.000  H
  H35      1.0000 0.98730  0.17910  0.11200  Biso   1.000  H
  H36      1.0000 0.01270  0.82090  0.88800  Biso   1.000  H
  C13      1.0000 0.42760  0.97900  0.76100  Biso   1.000  C
  C14      1.0000 0.57240  0.02100  0.23900  Biso   1.000  C
  H37      1.0000 0.43650  0.92340  0.80180  Biso   1.000  H
  H38      1.0000 0.56350  0.07660  0.19820  Biso   1.000  H
  H39      1.0000 0.38570  0.95360  0.71610  Biso   1.000  H
  H40      1.0000 0.61430  0.04640  0.28390  Biso   1.000  H
  C15      1.0000 0.31730  0.05970  0.79510  Biso   1.000  C
  C16      1.0000 0.68270  0.94030  0.20490  Biso   1.000  C
  H41      1.0000 0.32090  0.11870  0.75680  Biso   1.000  H
  H42      1.0000 0.67910  0.88130  0.24320  Biso   1.000  H
  H43      1.0000 0.21090  0.03640  0.80180  Biso   1.000  H
  H44      1.0000 0.78910  0.96360  0.19820  Biso   1.000  H
  C17      1.0000 0.35280  0.08950  0.87390  Biso   1.000  C
  C18      1.0000 0.64720  0.91050  0.12610  Biso   1.000  C
  H45      1.0000 0.26270  0.12900  0.89800  Biso   1.000  H
  H46      1.0000 0.73730  0.87100  0.10200  Biso   1.000  H
  H47      1.0000 0.36520  0.02870  0.90930  Biso   1.000  H
  H48      1.0000 0.63480  0.97130  0.09070  Biso   1.000  H
  C19      1.0000 0.50460  0.18120  0.95070  Biso   1.000  C
  C20      1.0000 0.49540  0.81880  0.04930  Biso   1.000  C
  H49      1.0000 0.41010  0.22230  0.96670  Biso   1.000  H
  H50      1.0000 0.58990  0.77770  0.03330  Biso   1.000  H
  H51      1.0000 0.50520  0.12190  0.98860  Biso   1.000  H
  H52      1.0000 0.49480  0.87810  0.01140  Biso   1.000  H
  C21      1.0000 0.64120  0.23870  0.95790  Biso   1.000  C
  C22      1.0000 0.35880  0.76130  0.04210  Biso   1.000  C
  H53      1.0000 0.62000  0.27450  0.00650  Biso   1.000  H
  H54      1.0000 0.38000  0.72550  0.99350  Biso   1.000  H
  H55      1.0000 0.65600  0.28870  0.91230  Biso   1.000  H
  H56      1.0000 0.34400  0.71130  0.08770  Biso   1.000  H
  C23      1.0000 0.79410  0.17300  0.96110  Biso   1.000  C
  C24      1.0000 0.20590  0.82700  0.03890  Biso   1.000  C
  H57      1.0000 0.87290  0.21090  0.98020  Biso   1.000  H
  H58      1.0000 0.12710  0.78910  0.01980  Biso   1.000  H
  H59      1.0000 0.77440  0.11390  0.99840  Biso   1.000  H
  H60      1.0000 0.22560  0.88610  0.00160  Biso   1.000  H
  C25      1.0000 0.26380  0.04730  0.46840  Biso   1.000  C
  C26      1.0000 0.73620  0.95270  0.53160  Biso   1.000  C
  H61      1.0000 0.36550  0.05030  0.43540  Biso   1.000  H
  H62      1.0000 0.63450  0.94970  0.56460  Biso   1.000  H
  H63      1.0000 0.20570  0.99600  0.44910  Biso   1.000  H
  H64      1.0000 0.79430  0.00400  0.55090  Biso   1.000  H
  C27      1.0000 0.28850  0.01730  0.55590  Biso   1.000  C
  C28      1.0000 0.71150  0.98270  0.44410  Biso   1.000  C
  H65      1.0000 0.35770  0.95690  0.55770  Biso   1.000  H
  H66      1.0000 0.64230  0.04310  0.44230  Biso   1.000  H
  H67      1.0000 0.34100  0.07080  0.57590  Biso   1.000  H
  H68      1.0000 0.65900  0.92920  0.42410  Biso   1.000  H
  C29      1.0000 0.13820  0.99780  0.61110  Biso   1.000  C
  C30      1.0000 0.86180  0.00220  0.38890  Biso   1.000  C
  H69      1.0000 0.07950  0.94910  0.58900  Biso   1.000  H
  H70      1.0000 0.92050  0.05090  0.41100  Biso   1.000  H
  H71      1.0000 0.16300  0.96960  0.66350  Biso   1.000  H
  H72      1.0000 0.83700  0.03040  0.33650  Biso   1.000  H
  C31      1.0000 0.94070  0.10050  0.68230  Biso   1.000  C
  C32      1.0000 0.05930  0.89950  0.31770  Biso   1.000  C
  C33      1.0000 0.84510  0.20160  0.67820  Biso   1.000  C
  C34      1.0000 0.15490  0.79840  0.32180  Biso   1.000  C
  C35      1.0000 0.09330  0.29700  0.39570  Biso   1.000  C
  C36      1.0000 0.90670  0.70300  0.60430  Biso   1.000  C
  C37      1.0000 0.18440  0.19500  0.39220  Biso   1.000  C
  C38      1.0000 0.81560  0.80500  0.60780  Biso   1.000  C
  Cl1      1.0000 0.87090  0.64034  0.17873  Biso   1.000  Cl
  Cl2      1.0000 0.12910  0.35966  0.82127  Biso   1.000  Cl
  O15      1.0000 0.98160  0.63820  0.10780  Biso   1.000  O
  O16      1.0000 0.01840  0.36180  0.89220  Biso   1.000  O
  O17      1.0000 0.89070  0.54940  0.22670  Biso   1.000  O
  O18      1.0000 0.10930  0.45060  0.77330  Biso   1.000  O
  O19      1.0000 0.71580  0.64850  0.15850  Biso   1.000  O
  O20      1.0000 0.28420  0.35150  0.84150  Biso   1.000  O
  O21      1.0000 0.89560  0.72390  0.22110  Biso   1.000  O
  O22      1.0000 0.10440  0.27610  0.77890  Biso   1.000  O
  Cl3      1.0000 0.64860  0.27040  0.42850  Biso   1.000  Cl
  Cl4      1.0000 0.35140  0.72960  0.57150  Biso   1.000  Cl
  O23      1.0000 0.66520  0.37370  0.43940  Biso   1.000  O
  O24      1.0000 0.33480  0.62630  0.56060  Biso   1.000  O
  O25      1.0000 0.71370  0.24380  0.35150  Biso   1.000  O
  O26      1.0000 0.28630  0.75620  0.64850  Biso   1.000  O
  O27      1.0000 0.72460  0.20890  0.48850  Biso   1.000  O
  O28      1.0000 0.27540  0.79110  0.51150  Biso   1.000  O
  O29      1.0000 0.48540  0.25400  0.43740  Biso   1.000  O
  O30      1.0000 0.51460  0.74600  0.56260  Biso   1.000  O
  Na1      1.0000 0.84230  0.42760  0.52970  Biso   1.000  Na
  Na2      1.0000 0.15770  0.57240  0.47030  Biso   1.000  Na
  O31      1.0000 0.93940  0.52960  0.41210  Biso   1.000  O
  O32      1.0000 0.06060  0.47040  0.58790  Biso   1.000  O
  O33      1.0000 0.61740  0.50290  0.59870  Biso   1.000  O
  O34      1.0000 0.38260  0.49710  0.40130  Biso   1.000  O
  O35      1.0000 0.51350  0.65910  0.30710  Biso   1.000  O
  O36      1.0000 0.48650  0.34090  0.69290  Biso   1.000  O
