data_image0
_cell_length_a       11.746
_cell_length_b       24.872
_cell_length_c       13.064
_cell_angle_alpha    90
_cell_angle_beta     96.58
_cell_angle_gamma    90

_symmetry_space_group_name_H-M    "P 1"
_symmetry_int_tables_number       1

loop_
  _symmetry_equiv_pos_as_xyz
  'x, y, z'

loop_
  _atom_site_label
  _atom_site_occupancy
  _atom_site_fract_x
  _atom_site_fract_y
  _atom_site_fract_z
  _atom_site_thermal_displace_type
  _atom_site_B_iso_or_equiv
  _atom_site_type_symbol
  Cu1      1.0000 0.70249  0.00040  0.07437  Biso   1.000  Cu
  Cu2      1.0000 0.29751  0.50040  0.92563  Biso   1.000  Cu
  Cu3      1.0000 0.22596  0.10517  0.29708  Biso   1.000  Cu
  Cu4      1.0000 0.77404  0.60517  0.70292  Biso   1.000  Cu
  Cu5      1.0000 0.82002  0.13636  0.35582  Biso   1.000  Cu
  Cu6      1.0000 0.17998  0.63636  0.64418  Biso   1.000  Cu
  Cu7      1.0000 0.97190  0.95040  0.37703  Biso   1.000  Cu
  Cu8      1.0000 0.02810  0.45040  0.62297  Biso   1.000  Cu
  Cu9      1.0000 0.10828  0.97775  0.00900  Biso   1.000  Cu
  Cu10     1.0000 0.89172  0.47775  0.99100  Biso   1.000  Cu
  Cu11     1.0000 0.94200  0.15872  0.00210  Biso   1.000  Cu
  Cu12     1.0000 0.05800  0.65872  0.99790  Biso   1.000  Cu
  Cl1      1.0000 0.82100  0.04080  0.55320  Biso   1.000  Cl
  Cl2      1.0000 0.17900  0.54080  0.44680  Biso   1.000  Cl
  Cl3      1.0000 0.14950  0.87160  0.20710  Biso   1.000  Cl
  Cl4      1.0000 0.85050  0.37160  0.79290  Biso   1.000  Cl
  Cl5      1.0000 0.09950  0.08600  0.81340  Biso   1.000  Cl
  Cl6      1.0000 0.90050  0.58600  0.18660  Biso   1.000  Cl
  Cl7      1.0000 0.81770  0.24960  0.17330  Biso   1.000  Cl
  Cl8      1.0000 0.18230  0.74960  0.82670  Biso   1.000  Cl
  Cl9      1.0000 0.53160  0.85410  0.76060  Biso   1.000  Cl
  Cl10     1.0000 0.46840  0.35410  0.23940  Biso   1.000  Cl
  Na1      1.0000 0.96370  0.05410  0.18710  Biso   1.000  Na
  Na2      1.0000 0.03630  0.55410  0.81290  Biso   1.000  Na
  O1       1.0000 0.77920  0.08030  0.25760  Biso   1.000  O
  O2       1.0000 0.22080  0.58030  0.74240  Biso   1.000  O
  O3       1.0000 0.63660  0.02610  0.19790  Biso   1.000  O
  O4       1.0000 0.36340  0.52610  0.80210  Biso   1.000  O
  O5       1.0000 0.39320  0.14450  0.37400  Biso   1.000  O
  O6       1.0000 0.60680  0.64450  0.62600  Biso   1.000  O
  O7       1.0000 0.97720  0.13100  0.32360  Biso   1.000  O
  O8       1.0000 0.02280  0.63100  0.67640  Biso   1.000  O
  O9       1.0000 0.14810  0.16950  0.34860  Biso   1.000  O
  O10      1.0000 0.85190  0.66950  0.65140  Biso   1.000  O
  O11      1.0000 0.96520  0.28990  0.58490  Biso   1.000  O
  O12      1.0000 0.03480  0.78990  0.41510  Biso   1.000  O
  O13      1.0000 0.87470  0.96710  0.25040  Biso   1.000  O
  O14      1.0000 0.12530  0.46710  0.74960  Biso   1.000  O
  O15      1.0000 0.73660  0.93300  0.14020  Biso   1.000  O
  O16      1.0000 0.26340  0.43300  0.85980  Biso   1.000  O
  O17      1.0000 0.69900  0.80440  0.43000  Biso   1.000  O
  O18      1.0000 0.30100  0.30440  0.57000  Biso   1.000  O
  O19      1.0000 0.06480  0.01480  0.34980  Biso   1.000  O
  O20      1.0000 0.93520  0.51480  0.65020  Biso   1.000  O
  O21      1.0000 0.20340  0.06770  0.42150  Biso   1.000  O
  O22      1.0000 0.79660  0.56770  0.57850  Biso   1.000  O
  O23      1.0000 0.23760  0.90980  0.68750  Biso   1.000  O
  O24      1.0000 0.76240  0.40980  0.31250  Biso   1.000  O
  O25      1.0000 0.94950  0.99230  0.02640  Biso   1.000  O
  O26      1.0000 0.05050  0.49230  0.97360  Biso   1.000  O
  O27      1.0000 0.77200  0.98150  0.95120  Biso   1.000  O
  O28      1.0000 0.22800  0.48150  0.04880  Biso   1.000  O
  O29      1.0000 0.99680  0.88310  0.68980  Biso   1.000  O
  O30      1.0000 0.00320  0.38310  0.31020  Biso   1.000  O
  O31      1.0000 0.15230  0.02190  0.13220  Biso   1.000  O
  O32      1.0000 0.84770  0.52190  0.86780  Biso   1.000  O
  O33      1.0000 0.30230  0.04650  0.24000  Biso   1.000  O
  O34      1.0000 0.69770  0.54650  0.76000  Biso   1.000  O
  O35      1.0000 0.53370  0.96700  0.99080  Biso   1.000  O
  O36      1.0000 0.46630  0.46700  0.00920  Biso   1.000  O
  O37      1.0000 0.84280  0.10360  0.04180  Biso   1.000  O
  O38      1.0000 0.15720  0.60360  0.95820  Biso   1.000  O
  O39      1.0000 0.66410  0.07270  0.01570  Biso   1.000  O
  O40      1.0000 0.33590  0.57270  0.98430  Biso   1.000  O
  O41      1.0000 0.61500  0.23560  0.78600  Biso   1.000  O
  O42      1.0000 0.38500  0.73560  0.21400  Biso   1.000  O
  O43      1.0000 0.06060  0.13460  0.10650  Biso   1.000  O
  O44      1.0000 0.93940  0.63460  0.89350  Biso   1.000  O
  O45      1.0000 0.24140  0.14660  0.17050  Biso   1.000  O
  O46      1.0000 0.75860  0.64660  0.82950  Biso   1.000  O
  O47      1.0000 0.23400  0.27930  0.88340  Biso   1.000  O
  O48      1.0000 0.76600  0.77930  0.11660  Biso   1.000  O
  O49      1.0000 0.89800  0.07600  0.50800  Biso   1.000  O
  O50      1.0000 0.10200  0.57600  0.49200  Biso   1.000  O
  O51      1.0000 0.74400  0.01690  0.47500  Biso   1.000  O
  O52      1.0000 0.25600  0.51690  0.52500  Biso   1.000  O
  O53      1.0000 0.76000  0.07230  0.61500  Biso   1.000  O
  O54      1.0000 0.24000  0.57230  0.38500  Biso   1.000  O
  O55      1.0000 0.87900  0.00120  0.61000  Biso   1.000  O
  O56      1.0000 0.12100  0.50120  0.39000  Biso   1.000  O
  O57      1.0000 0.07100  0.88190  0.26900  Biso   1.000  O
  O58      1.0000 0.92900  0.38190  0.73100  Biso   1.000  O
  O59      1.0000 0.11300  0.87900  0.10640  Biso   1.000  O
  O60      1.0000 0.88700  0.37900  0.89360  Biso   1.000  O
  O61      1.0000 0.17000  0.81780  0.23500  Biso   1.000  O
  O62      1.0000 0.83000  0.31780  0.76500  Biso   1.000  O
  O63      1.0000 0.24200  0.90670  0.23700  Biso   1.000  O
  O64      1.0000 0.75800  0.40670  0.76300  Biso   1.000  O
  O65      1.0000 0.14500  0.07250  0.91200  Biso   1.000  O
  O66      1.0000 0.85500  0.57250  0.08800  Biso   1.000  O
  O67      1.0000 0.97200  0.09500  0.84200  Biso   1.000  O
  O68      1.0000 0.02800  0.59500  0.15800  Biso   1.000  O
  O69      1.0000 0.10100  0.04240  0.74940  Biso   1.000  O
  O70      1.0000 0.89900  0.54240  0.25060  Biso   1.000  O
  O71      1.0000 0.10300  0.13480  0.76700  Biso   1.000  O
  O72      1.0000 0.89700  0.63480  0.23300  Biso   1.000  O
  O73      1.0000 0.92800  0.23510  0.15400  Biso   1.000  O
  O74      1.0000 0.07200  0.73510  0.84600  Biso   1.000  O
  O75      1.0000 0.75530  0.20220  0.19570  Biso   1.000  O
  O76      1.0000 0.24470  0.70220  0.80430  Biso   1.000  O
  O77      1.0000 0.76100  0.27620  0.08500  Biso   1.000  O
  O78      1.0000 0.23900  0.77620  0.91500  Biso   1.000  O
  O79      1.0000 0.82690  0.28660  0.25910  Biso   1.000  O
  O80      1.0000 0.17310  0.78660  0.74090  Biso   1.000  O
  O81      1.0000 0.54500  0.89400  0.83300  Biso   1.000  O
  O82      1.0000 0.45500  0.39400  0.16700  Biso   1.000  O
  O83      1.0000 0.42500  0.84300  0.77000  Biso   1.000  O
  O84      1.0000 0.57500  0.34300  0.23000  Biso   1.000  O
  O85      1.0000 0.61900  0.81900  0.78600  Biso   1.000  O
  O86      1.0000 0.38100  0.31900  0.21400  Biso   1.000  O
  O87      1.0000 0.57000  0.87700  0.64300  Biso   1.000  O
  O88      1.0000 0.43000  0.37700  0.35700  Biso   1.000  O
  O89      1.0000 0.43600  0.34500  0.93300  Biso   1.000  O
  O90      1.0000 0.56400  0.84500  0.06700  Biso   1.000  O
  O91      1.0000 0.61900  0.30630  0.54200  Biso   1.000  O
  O92      1.0000 0.38100  0.80630  0.45800  Biso   1.000  O
  O93      1.0000 0.62800  0.34600  0.96900  Biso   1.000  O
  O94      1.0000 0.37200  0.84600  0.03100  Biso   1.000  O
  O95      1.0000 0.63200  0.72900  0.27900  Biso   1.000  O
  O96      1.0000 0.36800  0.22900  0.72100  Biso   1.000  O
  N1       1.0000 0.65790  0.13220  0.38980  Biso   1.000  N
  N2       1.0000 0.34210  0.63220  0.61020  Biso   1.000  N
  N3       1.0000 0.87750  0.20380  0.43720  Biso   1.000  N
  N4       1.0000 0.12250  0.70380  0.56280  Biso   1.000  N
  N5       1.0000 0.87290  0.88670  0.38690  Biso   1.000  N
  N6       1.0000 0.12710  0.38670  0.61310  Biso   1.000  N
  N7       1.0000 0.07660  0.94600  0.50740  Biso   1.000  N
  N8       1.0000 0.92340  0.44600  0.49260  Biso   1.000  N
  N9       1.0000 0.04690  0.94450  0.87660  Biso   1.000  N
  N10      1.0000 0.95310  0.44450  0.12340  Biso   1.000  N
  N11      1.0000 0.27390  0.96040  0.01420  Biso   1.000  N
  N12      1.0000 0.72610  0.46040  0.98580  Biso   1.000  N
  N13      1.0000 0.80160  0.18970  0.91880  Biso   1.000  N
  N14      1.0000 0.19840  0.68970  0.08120  Biso   1.000  N
  N15      1.0000 0.06750  0.20400  0.95060  Biso   1.000  N
  N16      1.0000 0.93250  0.70400  0.04940  Biso   1.000  N
  C1       1.0000 0.59660  0.09440  0.31350  Biso   1.000  C
  C2       1.0000 0.40340  0.59440  0.68650  Biso   1.000  C
  C3       1.0000 0.51600  0.13270  0.24250  Biso   1.000  C
  C4       1.0000 0.48400  0.63270  0.75750  Biso   1.000  C
  C5       1.0000 0.47780  0.17150  0.32060  Biso   1.000  C
  C6       1.0000 0.52220  0.67150  0.67940  Biso   1.000  C
  C7       1.0000 0.58750  0.18250  0.39000  Biso   1.000  C
  C8       1.0000 0.41250  0.68250  0.61000  Biso   1.000  C
  C9       1.0000 0.67760  0.06510  0.25300  Biso   1.000  C
  C10      1.0000 0.32240  0.56510  0.74700  Biso   1.000  C
  C11      1.0000 0.99950  0.21130  0.42540  Biso   1.000  C
  C12      1.0000 0.00050  0.71130  0.57460  Biso   1.000  C
  C13      1.0000 0.05970  0.20950  0.53830  Biso   1.000  C
  C14      1.0000 0.94030  0.70950  0.46170  Biso   1.000  C
  C15      1.0000 0.97500  0.23180  0.59890  Biso   1.000  C
  C16      1.0000 0.02500  0.73180  0.40110  Biso   1.000  C
  C17      1.0000 0.86500  0.20480  0.55100  Biso   1.000  C
  C18      1.0000 0.13500  0.70480  0.44900  Biso   1.000  C
  C19      1.0000 0.04350  0.16700  0.36090  Biso   1.000  C
  C20      1.0000 0.95650  0.66700  0.63910  Biso   1.000  C
  C21      1.0000 0.78700  0.88330  0.29140  Biso   1.000  C
  C22      1.0000 0.21300  0.38330  0.70860  Biso   1.000  C
  C23      1.0000 0.67400  0.88210  0.32600  Biso   1.000  C
  C24      1.0000 0.32600  0.38210  0.67400  Biso   1.000  C
  C25      1.0000 0.69000  0.86110  0.43700  Biso   1.000  C
  C26      1.0000 0.31000  0.36110  0.56300  Biso   1.000  C
  C27      1.0000 0.80700  0.88460  0.47800  Biso   1.000  C
  C28      1.0000 0.19300  0.38460  0.52200  Biso   1.000  C
  C29      1.0000 0.80350  0.93060  0.22160  Biso   1.000  C
  C30      1.0000 0.19650  0.43060  0.77840  Biso   1.000  C
  C31      1.0000 0.13900  0.99810  0.52500  Biso   1.000  C
  C32      1.0000 0.86100  0.49810  0.47500  Biso   1.000  C
  C33      1.0000 0.25700  0.98500  0.57500  Biso   1.000  C
  C34      1.0000 0.74300  0.48500  0.42500  Biso   1.000  C
  C35      1.0000 0.26400  0.92420  0.58530  Biso   1.000  C
  C36      1.0000 0.73600  0.42420  0.41470  Biso   1.000  C
  C37      1.0000 0.16500  0.90650  0.50600  Biso   1.000  C
  C38      1.0000 0.83500  0.40650  0.49400  Biso   1.000  C
  C39      1.0000 0.13660  0.02940  0.42490  Biso   1.000  C
  C40      1.0000 0.86340  0.52940  0.57510  Biso   1.000  C
  C41      1.0000 0.92120  0.95910  0.85540  Biso   1.000  C
  C42      1.0000 0.07880  0.45910  0.14460  Biso   1.000  C
  C43      1.0000 0.86100  0.91000  0.80310  Biso   1.000  C
  C44      1.0000 0.13900  0.41000  0.19690  Biso   1.000  C
  C45      1.0000 0.96000  0.87020  0.78490  Biso   1.000  C
  C46      1.0000 0.04000  0.37020  0.21510  Biso   1.000  C
  C47      1.0000 0.05300  0.88550  0.87330  Biso   1.000  C
  C48      1.0000 0.94700  0.38550  0.12670  Biso   1.000  C
  C49      1.0000 0.87600  0.97870  0.95030  Biso   1.000  C
  C50      1.0000 0.12400  0.47870  0.04970  Biso   1.000  C
  C51      1.0000 0.33800  0.99320  0.09660  Biso   1.000  C
  C52      1.0000 0.66200  0.49320  0.90340  Biso   1.000  C
  C53      1.0000 0.40170  0.03510  0.03420  Biso   1.000  C
  C54      1.0000 0.59830  0.53510  0.96580  Biso   1.000  C
  C55      1.0000 0.43740  0.00100  0.94810  Biso   1.000  C
  C56      1.0000 0.56260  0.50100  0.05190  Biso   1.000  C
  C57      1.0000 0.33170  0.96730  0.91820  Biso   1.000  C
  C58      1.0000 0.66830  0.46730  0.08180  Biso   1.000  C
  C59      1.0000 0.25900  0.02160  0.16130  Biso   1.000  C
  C60      1.0000 0.74100  0.52160  0.83870  Biso   1.000  C
  C61      1.0000 0.70080  0.15740  0.94190  Biso   1.000  C
  C62      1.0000 0.29920  0.65740  0.05810  Biso   1.000  C
  C63      1.0000 0.62900  0.14250  0.84100  Biso   1.000  C
  C64      1.0000 0.37100  0.64250  0.15900  Biso   1.000  C
  C65      1.0000 0.66700  0.18680  0.76700  Biso   1.000  C
  C66      1.0000 0.33300  0.68680  0.23300  Biso   1.000  C
  C67      1.0000 0.79200  0.19100  0.80480  Biso   1.000  C
  C68      1.0000 0.20800  0.69100  0.19520  Biso   1.000  C
  C69      1.0000 0.73970  0.10780  0.00400  Biso   1.000  C
  C70      1.0000 0.26030  0.60780  0.99600  Biso   1.000  C
  C71      1.0000 0.17440  0.19410  0.01990  Biso   1.000  C
  C72      1.0000 0.82560  0.69410  0.98010  Biso   1.000  C
  C73      1.0000 0.21200  0.25000  0.05600  Biso   1.000  C
  C74      1.0000 0.78800  0.75000  0.94400  Biso   1.000  C
  C75      1.0000 0.16900  0.28510  0.97000  Biso   1.000  C
  C76      1.0000 0.83100  0.78510  0.03000  Biso   1.000  C
  C77      1.0000 0.05300  0.26330  0.94100  Biso   1.000  C
  C78      1.0000 0.94700  0.76330  0.05900  Biso   1.000  C
  C79      1.0000 0.15640  0.15660  0.10640  Biso   1.000  C
  C80      1.0000 0.84360  0.65660  0.89360  Biso   1.000  C
  H1       1.0000 0.65870  0.11680  0.45640  Biso   1.000  H
  H2       1.0000 0.34130  0.61680  0.54360  Biso   1.000  H
  H3       1.0000 0.55160  0.06940  0.34690  Biso   1.000  H
  H4       1.0000 0.44840  0.56940  0.65310  Biso   1.000  H
  H5       1.0000 0.55740  0.15040  0.19350  Biso   1.000  H
  H6       1.0000 0.44260  0.65040  0.80650  Biso   1.000  H
  H7       1.0000 0.45320  0.11390  0.20720  Biso   1.000  H
  H8       1.0000 0.54680  0.61390  0.79280  Biso   1.000  H
  H9       1.0000 0.44880  0.20350  0.28760  Biso   1.000  H
  H10      1.0000 0.55120  0.70350  0.71240  Biso   1.000  H
  H11      1.0000 0.57200  0.19110  0.45640  Biso   1.000  H
  H12      1.0000 0.42800  0.69110  0.54360  Biso   1.000  H
  H13      1.0000 0.62850  0.21150  0.36210  Biso   1.000  H
  H14      1.0000 0.37150  0.71150  0.63790  Biso   1.000  H
  H15      1.0000 0.83690  0.23420  0.40660  Biso   1.000  H
  H16      1.0000 0.16310  0.73420  0.59340  Biso   1.000  H
  H17      1.0000 0.01120  0.24520  0.39500  Biso   1.000  H
  H18      1.0000 0.98880  0.74520  0.60500  Biso   1.000  H
  H19      1.0000 0.08070  0.17410  0.55880  Biso   1.000  H
  H20      1.0000 0.91930  0.67410  0.44120  Biso   1.000  H
  H21      1.0000 0.12770  0.23160  0.54480  Biso   1.000  H
  H22      1.0000 0.87230  0.73160  0.45520  Biso   1.000  H
  H23      1.0000 0.99170  0.22240  0.67050  Biso   1.000  H
  H24      1.0000 0.00830  0.72240  0.32950  Biso   1.000  H
  H25      1.0000 0.79850  0.22560  0.56490  Biso   1.000  H
  H26      1.0000 0.20150  0.72560  0.43510  Biso   1.000  H
  H27      1.0000 0.85650  0.16960  0.57790  Biso   1.000  H
  H28      1.0000 0.14350  0.66960  0.42210  Biso   1.000  H
  H29      1.0000 0.92130  0.85570  0.38910  Biso   1.000  H
  H30      1.0000 0.07870  0.35570  0.61090  Biso   1.000  H
  H31      1.0000 0.79910  0.85050  0.25550  Biso   1.000  H
  H32      1.0000 0.20090  0.35050  0.74450  Biso   1.000  H
  H33      1.0000 0.63790  0.91790  0.32270  Biso   1.000  H
  H34      1.0000 0.36210  0.41790  0.67730  Biso   1.000  H
  H35      1.0000 0.61970  0.85950  0.28200  Biso   1.000  H
  H36      1.0000 0.38030  0.35950  0.71800  Biso   1.000  H
  H37      1.0000 0.62930  0.87180  0.47730  Biso   1.000  H
  H38      1.0000 0.37070  0.37180  0.52270  Biso   1.000  H
  H39      1.0000 0.84530  0.86190  0.52970  Biso   1.000  H
  H40      1.0000 0.15470  0.36190  0.47030  Biso   1.000  H
  H41      1.0000 0.79980  0.91950  0.50500  Biso   1.000  H
  H42      1.0000 0.20020  0.41950  0.49500  Biso   1.000  H
  H43      1.0000 0.03350  0.93920  0.56370  Biso   1.000  H
  H44      1.0000 0.96650  0.43920  0.43630  Biso   1.000  H
  H45      1.0000 0.10210  0.01970  0.57210  Biso   1.000  H
  H46      1.0000 0.89790  0.51970  0.42790  Biso   1.000  H
  H47      1.0000 0.31520  0.99520  0.52660  Biso   1.000  H
  H48      1.0000 0.68480  0.49520  0.47340  Biso   1.000  H
  H49      1.0000 0.27880  0.00200  0.63640  Biso   1.000  H
  H50      1.0000 0.72120  0.50200  0.36360  Biso   1.000  H
  H51      1.0000 0.33690  0.90920  0.57240  Biso   1.000  H
  H52      1.0000 0.66310  0.40920  0.42760  Biso   1.000  H
  H53      1.0000 0.13800  0.87130  0.52340  Biso   1.000  H
  H54      1.0000 0.86200  0.37130  0.47660  Biso   1.000  H
  H55      1.0000 0.19070  0.90380  0.43900  Biso   1.000  H
  H56      1.0000 0.80930  0.40380  0.56100  Biso   1.000  H
  H57      1.0000 0.08710  0.95880  0.82330  Biso   1.000  H
  H58      1.0000 0.91290  0.45880  0.17670  Biso   1.000  H
  H59      1.0000 0.91460  0.98780  0.80710  Biso   1.000  H
  H60      1.0000 0.08540  0.48780  0.19290  Biso   1.000  H
  H61      1.0000 0.80790  0.89460  0.84640  Biso   1.000  H
  H62      1.0000 0.19210  0.39460  0.15360  Biso   1.000  H
  H63      1.0000 0.81710  0.92000  0.73920  Biso   1.000  H
  H64      1.0000 0.18290  0.42000  0.26080  Biso   1.000  H
  H65      1.0000 0.93570  0.83300  0.78880  Biso   1.000  H
  H66      1.0000 0.06430  0.33300  0.21120  Biso   1.000  H
  H67      1.0000 0.12710  0.87370  0.85730  Biso   1.000  H
  H68      1.0000 0.87290  0.37370  0.14270  Biso   1.000  H
  H69      1.0000 0.03940  0.87000  0.93720  Biso   1.000  H
  H70      1.0000 0.96060  0.37000  0.06280  Biso   1.000  H
  H71      1.0000 0.28290  0.92410  0.03490  Biso   1.000  H
  H72      1.0000 0.71710  0.42410  0.96510  Biso   1.000  H
  H73      1.0000 0.39080  0.97120  0.13780  Biso   1.000  H
  H74      1.0000 0.60920  0.47120  0.86220  Biso   1.000  H
  H75      1.0000 0.35190  0.06370  0.00840  Biso   1.000  H
  H76      1.0000 0.64810  0.56370  0.99160  Biso   1.000  H
  H77      1.0000 0.46580  0.05050  0.07600  Biso   1.000  H
  H78      1.0000 0.53420  0.55050  0.92400  Biso   1.000  H
  H79      1.0000 0.45800  0.02140  0.89160  Biso   1.000  H
  H80      1.0000 0.54200  0.52140  0.10840  Biso   1.000  H
  H81      1.0000 0.35270  0.93250  0.89510  Biso   1.000  H
  H82      1.0000 0.64730  0.43250  0.10490  Biso   1.000  H
  H83      1.0000 0.28260  0.98430  0.86720  Biso   1.000  H
  H84      1.0000 0.71740  0.48430  0.13280  Biso   1.000  H
  H85      1.0000 0.79000  0.22550  0.94280  Biso   1.000  H
  H86      1.0000 0.21000  0.72550  0.05720  Biso   1.000  H
  H87      1.0000 0.65720  0.17890  0.98470  Biso   1.000  H
  H88      1.0000 0.34280  0.67890  0.01530  Biso   1.000  H
  H89      1.0000 0.63610  0.10760  0.82410  Biso   1.000  H
  H90      1.0000 0.36390  0.60760  0.17590  Biso   1.000  H
  H91      1.0000 0.54540  0.14850  0.85310  Biso   1.000  H
  H92      1.0000 0.45460  0.64850  0.14690  Biso   1.000  H
  H93      1.0000 0.65180  0.17470  0.69460  Biso   1.000  H
  H94      1.0000 0.34820  0.67470  0.30540  Biso   1.000  H
  H95      1.0000 0.82120  0.22450  0.78240  Biso   1.000  H
  H96      1.0000 0.17880  0.72450  0.21760  Biso   1.000  H
  H97      1.0000 0.83460  0.16240  0.78020  Biso   1.000  H
  H98      1.0000 0.16540  0.66240  0.21980  Biso   1.000  H
  H99      1.0000 0.07940  0.19030  0.88500  Biso   1.000  H
  H100     1.0000 0.92060  0.69030  0.11500  Biso   1.000  H
  H101     1.0000 0.22920  0.17890  0.98000  Biso   1.000  H
  H102     1.0000 0.77080  0.67890  0.02000  Biso   1.000  H
  H103     1.0000 0.18390  0.25990  0.11740  Biso   1.000  H
  H104     1.0000 0.81610  0.75990  0.88260  Biso   1.000  H
  H105     1.0000 0.29660  0.25140  0.06810  Biso   1.000  H
  H106     1.0000 0.70340  0.75140  0.93190  Biso   1.000  H
  H107     1.0000 0.17090  0.32180  0.99210  Biso   1.000  H
  H108     1.0000 0.82910  0.82180  0.00790  Biso   1.000  H
  H109     1.0000 0.02290  0.27190  0.86860  Biso   1.000  H
  H110     1.0000 0.97710  0.77190  0.13140  Biso   1.000  H
  H111     1.0000 0.99590  0.27590  0.98190  Biso   1.000  H
  H112     1.0000 0.00410  0.77590  0.01810  Biso   1.000  H
