data_image0
_cell_length_a       12.286
_cell_length_b       20.555
_cell_length_c       10.652
_cell_angle_alpha    90
_cell_angle_beta     97.366
_cell_angle_gamma    90

_symmetry_space_group_name_H-M    "P 1"
_symmetry_int_tables_number       1

loop_
  _symmetry_equiv_pos_as_xyz
  'x, y, z'

loop_
  _atom_site_label
  _atom_site_occupancy
  _atom_site_fract_x
  _atom_site_fract_y
  _atom_site_fract_z
  _atom_site_thermal_displace_type
  _atom_site_B_iso_or_equiv
  _atom_site_type_symbol
  Br1      1.0000 0.50475  0.87721  0.91814  Biso   1.000  Br
  Br2      1.0000 0.00475  0.37721  0.91814  Biso   1.000  Br
  Br3      1.0000 0.49525  0.87721  0.58186  Biso   1.000  Br
  Br4      1.0000 0.99525  0.37721  0.58186  Biso   1.000  Br
  Br5      1.0000 0.49525  0.12279  0.08186  Biso   1.000  Br
  Br6      1.0000 0.99525  0.62279  0.08186  Biso   1.000  Br
  Br7      1.0000 0.50475  0.12279  0.41814  Biso   1.000  Br
  Br8      1.0000 0.00475  0.62279  0.41814  Biso   1.000  Br
  Cu1      1.0000 0.50000  0.80387  0.75000  Biso   1.000  Cu
  Cu2      1.0000 0.00000  0.30387  0.75000  Biso   1.000  Cu
  Cu3      1.0000 0.50000  0.19613  0.25000  Biso   1.000  Cu
  Cu4      1.0000 0.00000  0.69613  0.25000  Biso   1.000  Cu
  P1       1.0000 0.37970  0.69365  0.91990  Biso   1.000  P
  P2       1.0000 0.87970  0.19365  0.91990  Biso   1.000  P
  P3       1.0000 0.62030  0.69365  0.58010  Biso   1.000  P
  P4       1.0000 0.12030  0.19365  0.58010  Biso   1.000  P
  P5       1.0000 0.62030  0.30635  0.08010  Biso   1.000  P
  P6       1.0000 0.12030  0.80635  0.08010  Biso   1.000  P
  P7       1.0000 0.37970  0.30635  0.41990  Biso   1.000  P
  P8       1.0000 0.87970  0.80635  0.41990  Biso   1.000  P
  O1       1.0000 0.40630  0.73800  0.81640  Biso   1.000  O
  O2       1.0000 0.90630  0.23800  0.81640  Biso   1.000  O
  O3       1.0000 0.59370  0.73800  0.68360  Biso   1.000  O
  O4       1.0000 0.09370  0.23800  0.68360  Biso   1.000  O
  O5       1.0000 0.59370  0.26200  0.18360  Biso   1.000  O
  O6       1.0000 0.09370  0.76200  0.18360  Biso   1.000  O
  O7       1.0000 0.40630  0.26200  0.31640  Biso   1.000  O
  O8       1.0000 0.90630  0.76200  0.31640  Biso   1.000  O
  C1       1.0000 0.58560  0.70650  0.05170  Biso   1.000  C
  C2       1.0000 0.08560  0.20650  0.05170  Biso   1.000  C
  C3       1.0000 0.41440  0.70650  0.44830  Biso   1.000  C
  C4       1.0000 0.91440  0.20650  0.44830  Biso   1.000  C
  C5       1.0000 0.41440  0.29350  0.94830  Biso   1.000  C
  C6       1.0000 0.91440  0.79350  0.94830  Biso   1.000  C
  C7       1.0000 0.58560  0.29350  0.55170  Biso   1.000  C
  C8       1.0000 0.08560  0.79350  0.55170  Biso   1.000  C
  C9       1.0000 0.68180  0.68310  0.12370  Biso   1.000  C
  C10      1.0000 0.18180  0.18310  0.12370  Biso   1.000  C
  C11      1.0000 0.31820  0.68310  0.37630  Biso   1.000  C
  C12      1.0000 0.81820  0.18310  0.37630  Biso   1.000  C
  C13      1.0000 0.31820  0.31690  0.87630  Biso   1.000  C
  C14      1.0000 0.81820  0.81690  0.87630  Biso   1.000  C
  C15      1.0000 0.68180  0.31690  0.62370  Biso   1.000  C
  C16      1.0000 0.18180  0.81690  0.62370  Biso   1.000  C
  C17      1.0000 0.69000  0.61980  0.16200  Biso   1.000  C
  C18      1.0000 0.19000  0.11980  0.16200  Biso   1.000  C
  C19      1.0000 0.31000  0.61980  0.33800  Biso   1.000  C
  C20      1.0000 0.81000  0.11980  0.33800  Biso   1.000  C
  C21      1.0000 0.31000  0.38020  0.83800  Biso   1.000  C
  C22      1.0000 0.81000  0.88020  0.83800  Biso   1.000  C
  C23      1.0000 0.69000  0.38020  0.66200  Biso   1.000  C
  C24      1.0000 0.19000  0.88020  0.66200  Biso   1.000  C
  C25      1.0000 0.60560  0.57620  0.12730  Biso   1.000  C
  C26      1.0000 0.10560  0.07620  0.12730  Biso   1.000  C
  C27      1.0000 0.39440  0.57620  0.37270  Biso   1.000  C
  C28      1.0000 0.89440  0.07620  0.37270  Biso   1.000  C
  C29      1.0000 0.39440  0.42380  0.87270  Biso   1.000  C
  C30      1.0000 0.89440  0.92380  0.87270  Biso   1.000  C
  C31      1.0000 0.60560  0.42380  0.62730  Biso   1.000  C
  C32      1.0000 0.10560  0.92380  0.62730  Biso   1.000  C
  C33      1.0000 0.50990  0.59770  0.05240  Biso   1.000  C
  C34      1.0000 0.00990  0.09770  0.05240  Biso   1.000  C
  C35      1.0000 0.49010  0.59770  0.44760  Biso   1.000  C
  C36      1.0000 0.99010  0.09770  0.44760  Biso   1.000  C
  C37      1.0000 0.49010  0.40230  0.94760  Biso   1.000  C
  C38      1.0000 0.99010  0.90230  0.94760  Biso   1.000  C
  C39      1.0000 0.50990  0.40230  0.55240  Biso   1.000  C
  C40      1.0000 0.00990  0.90230  0.55240  Biso   1.000  C
  C41      1.0000 0.50080  0.66170  0.01510  Biso   1.000  C
  C42      1.0000 0.00080  0.16170  0.01510  Biso   1.000  C
  C43      1.0000 0.49920  0.66170  0.48490  Biso   1.000  C
  C44      1.0000 0.99920  0.16170  0.48490  Biso   1.000  C
  C45      1.0000 0.49920  0.33830  0.98490  Biso   1.000  C
  C46      1.0000 0.99920  0.83830  0.98490  Biso   1.000  C
  C47      1.0000 0.50080  0.33830  0.51510  Biso   1.000  C
  C48      1.0000 0.00080  0.83830  0.51510  Biso   1.000  C
  C49      1.0000 0.22840  0.59080  0.91830  Biso   1.000  C
  C50      1.0000 0.72840  0.09080  0.91830  Biso   1.000  C
  C51      1.0000 0.77160  0.59080  0.58170  Biso   1.000  C
  C52      1.0000 0.27160  0.09080  0.58170  Biso   1.000  C
  C53      1.0000 0.77160  0.40920  0.08170  Biso   1.000  C
  C54      1.0000 0.27160  0.90920  0.08170  Biso   1.000  C
  C55      1.0000 0.22840  0.40920  0.41830  Biso   1.000  C
  C56      1.0000 0.72840  0.90920  0.41830  Biso   1.000  C
  C57      1.0000 0.16280  0.54250  0.85850  Biso   1.000  C
  C58      1.0000 0.66280  0.04250  0.85850  Biso   1.000  C
  C59      1.0000 0.83720  0.54250  0.64150  Biso   1.000  C
  C60      1.0000 0.33720  0.04250  0.64150  Biso   1.000  C
  C61      1.0000 0.83720  0.45750  0.14150  Biso   1.000  C
  C62      1.0000 0.33720  0.95750  0.14150  Biso   1.000  C
  C63      1.0000 0.16280  0.45750  0.35850  Biso   1.000  C
  C64      1.0000 0.66280  0.95750  0.35850  Biso   1.000  C
  C65      1.0000 0.16480  0.52980  0.73350  Biso   1.000  C
  C66      1.0000 0.66480  0.02980  0.73350  Biso   1.000  C
  C67      1.0000 0.83520  0.52980  0.76650  Biso   1.000  C
  C68      1.0000 0.33520  0.02980  0.76650  Biso   1.000  C
  C69      1.0000 0.83520  0.47020  0.26650  Biso   1.000  C
  C70      1.0000 0.33520  0.97020  0.26650  Biso   1.000  C
  C71      1.0000 0.16480  0.47020  0.23350  Biso   1.000  C
  C72      1.0000 0.66480  0.97020  0.23350  Biso   1.000  C
  C73      1.0000 0.23220  0.56530  0.66600  Biso   1.000  C
  C74      1.0000 0.73220  0.06530  0.66600  Biso   1.000  C
  C75      1.0000 0.76780  0.56530  0.83400  Biso   1.000  C
  C76      1.0000 0.26780  0.06530  0.83400  Biso   1.000  C
  C77      1.0000 0.76780  0.43470  0.33400  Biso   1.000  C
  C78      1.0000 0.26780  0.93470  0.33400  Biso   1.000  C
  C79      1.0000 0.23220  0.43470  0.16600  Biso   1.000  C
  C80      1.0000 0.73220  0.93470  0.16600  Biso   1.000  C
  C81      1.0000 0.29970  0.61270  0.72370  Biso   1.000  C
  C82      1.0000 0.79970  0.11270  0.72370  Biso   1.000  C
  C83      1.0000 0.70030  0.61270  0.77630  Biso   1.000  C
  C84      1.0000 0.20030  0.11270  0.77630  Biso   1.000  C
  C85      1.0000 0.70030  0.38730  0.27630  Biso   1.000  C
  C86      1.0000 0.20030  0.88730  0.27630  Biso   1.000  C
  C87      1.0000 0.29970  0.38730  0.22370  Biso   1.000  C
  C88      1.0000 0.79970  0.88730  0.22370  Biso   1.000  C
  C89      1.0000 0.29730  0.62700  0.85160  Biso   1.000  C
  C90      1.0000 0.79730  0.12700  0.85160  Biso   1.000  C
  C91      1.0000 0.70270  0.62700  0.64840  Biso   1.000  C
  C92      1.0000 0.20270  0.12700  0.64840  Biso   1.000  C
  C93      1.0000 0.70270  0.37300  0.14840  Biso   1.000  C
  C94      1.0000 0.20270  0.87300  0.14840  Biso   1.000  C
  C95      1.0000 0.29730  0.37300  0.35160  Biso   1.000  C
  C96      1.0000 0.79730  0.87300  0.35160  Biso   1.000  C
  C97      1.0000 0.30420  0.73480  0.03170  Biso   1.000  C
  C98      1.0000 0.80420  0.23480  0.03170  Biso   1.000  C
  C99      1.0000 0.69580  0.73480  0.46830  Biso   1.000  C
  C100     1.0000 0.19580  0.23480  0.46830  Biso   1.000  C
  C101     1.0000 0.69580  0.26520  0.96830  Biso   1.000  C
  C102     1.0000 0.19580  0.76520  0.96830  Biso   1.000  C
  C103     1.0000 0.30420  0.26520  0.53170  Biso   1.000  C
  C104     1.0000 0.80420  0.76520  0.53170  Biso   1.000  C
  H1       1.0000 0.57730  0.75330  0.02960  Biso   1.000  H
  H2       1.0000 0.07730  0.25330  0.02960  Biso   1.000  H
  H3       1.0000 0.42270  0.75330  0.47040  Biso   1.000  H
  H4       1.0000 0.92270  0.25330  0.47040  Biso   1.000  H
  H5       1.0000 0.42270  0.24670  0.97040  Biso   1.000  H
  H6       1.0000 0.92270  0.74670  0.97040  Biso   1.000  H
  H7       1.0000 0.57730  0.24670  0.52960  Biso   1.000  H
  H8       1.0000 0.07730  0.74670  0.52960  Biso   1.000  H
  H9       1.0000 0.74690  0.70870  0.14700  Biso   1.000  H
  H10      1.0000 0.24690  0.20870  0.14700  Biso   1.000  H
  H11      1.0000 0.25310  0.70870  0.35300  Biso   1.000  H
  H12      1.0000 0.75310  0.20870  0.35300  Biso   1.000  H
  H13      1.0000 0.25310  0.29130  0.85300  Biso   1.000  H
  H14      1.0000 0.75310  0.79130  0.85300  Biso   1.000  H
  H15      1.0000 0.74690  0.29130  0.64700  Biso   1.000  H
  H16      1.0000 0.24690  0.79130  0.64700  Biso   1.000  H
  H17      1.0000 0.75150  0.60360  0.21890  Biso   1.000  H
  H18      1.0000 0.25150  0.10360  0.21890  Biso   1.000  H
  H19      1.0000 0.24850  0.60360  0.28110  Biso   1.000  H
  H20      1.0000 0.74850  0.10360  0.28110  Biso   1.000  H
  H21      1.0000 0.24850  0.39640  0.78110  Biso   1.000  H
  H22      1.0000 0.74850  0.89640  0.78110  Biso   1.000  H
  H23      1.0000 0.75150  0.39640  0.71890  Biso   1.000  H
  H24      1.0000 0.25150  0.89640  0.71890  Biso   1.000  H
  H25      1.0000 0.61120  0.52730  0.15650  Biso   1.000  H
  H26      1.0000 0.11120  0.02730  0.15650  Biso   1.000  H
  H27      1.0000 0.38880  0.52730  0.34350  Biso   1.000  H
  H28      1.0000 0.88880  0.02730  0.34350  Biso   1.000  H
  H29      1.0000 0.38880  0.47270  0.84350  Biso   1.000  H
  H30      1.0000 0.88880  0.97270  0.84350  Biso   1.000  H
  H31      1.0000 0.61120  0.47270  0.65650  Biso   1.000  H
  H32      1.0000 0.11120  0.97270  0.65650  Biso   1.000  H
  H33      1.0000 0.44790  0.56870  0.02920  Biso   1.000  H
  H34      1.0000 0.94790  0.06870  0.02920  Biso   1.000  H
  H35      1.0000 0.55210  0.56870  0.47080  Biso   1.000  H
  H36      1.0000 0.05210  0.06870  0.47080  Biso   1.000  H
  H37      1.0000 0.55210  0.43130  0.97080  Biso   1.000  H
  H38      1.0000 0.05210  0.93130  0.97080  Biso   1.000  H
  H39      1.0000 0.44790  0.43130  0.52920  Biso   1.000  H
  H40      1.0000 0.94790  0.93130  0.52920  Biso   1.000  H
  H41      1.0000 0.22530  0.59880  0.00890  Biso   1.000  H
  H42      1.0000 0.72530  0.09880  0.00890  Biso   1.000  H
  H43      1.0000 0.77470  0.59880  0.49110  Biso   1.000  H
  H44      1.0000 0.27470  0.09880  0.49110  Biso   1.000  H
  H45      1.0000 0.77470  0.40120  0.99110  Biso   1.000  H
  H46      1.0000 0.27470  0.90120  0.99110  Biso   1.000  H
  H47      1.0000 0.22530  0.40120  0.50890  Biso   1.000  H
  H48      1.0000 0.72530  0.90120  0.50890  Biso   1.000  H
  H49      1.0000 0.11440  0.51930  0.90950  Biso   1.000  H
  H50      1.0000 0.61440  0.01930  0.90950  Biso   1.000  H
  H51      1.0000 0.88560  0.51930  0.59050  Biso   1.000  H
  H52      1.0000 0.38560  0.01930  0.59050  Biso   1.000  H
  H53      1.0000 0.88560  0.48070  0.09050  Biso   1.000  H
  H54      1.0000 0.38560  0.98070  0.09050  Biso   1.000  H
  H55      1.0000 0.11440  0.48070  0.40950  Biso   1.000  H
  H56      1.0000 0.61440  0.98070  0.40950  Biso   1.000  H
  H57      1.0000 0.11790  0.49440  0.69390  Biso   1.000  H
  H58      1.0000 0.61790  0.99440  0.69390  Biso   1.000  H
  H59      1.0000 0.88210  0.49440  0.80610  Biso   1.000  H
  H60      1.0000 0.38210  0.99440  0.80610  Biso   1.000  H
  H61      1.0000 0.88210  0.50560  0.30610  Biso   1.000  H
  H62      1.0000 0.38210  0.00560  0.30610  Biso   1.000  H
  H63      1.0000 0.11790  0.50560  0.19390  Biso   1.000  H
  H64      1.0000 0.61790  0.00560  0.19390  Biso   1.000  H
  H65      1.0000 0.23340  0.55170  0.57940  Biso   1.000  H
  H66      1.0000 0.73340  0.05170  0.57940  Biso   1.000  H
  H67      1.0000 0.76660  0.55170  0.92060  Biso   1.000  H
  H68      1.0000 0.26660  0.05170  0.92060  Biso   1.000  H
  H69      1.0000 0.76660  0.44830  0.42060  Biso   1.000  H
  H70      1.0000 0.26660  0.94830  0.42060  Biso   1.000  H
  H71      1.0000 0.23340  0.44830  0.07940  Biso   1.000  H
  H72      1.0000 0.73340  0.94830  0.07940  Biso   1.000  H
  H73      1.0000 0.35150  0.63260  0.67280  Biso   1.000  H
  H74      1.0000 0.85150  0.13260  0.67280  Biso   1.000  H
  H75      1.0000 0.64850  0.63260  0.82720  Biso   1.000  H
  H76      1.0000 0.14850  0.13260  0.82720  Biso   1.000  H
  H77      1.0000 0.64850  0.36740  0.32720  Biso   1.000  H
  H78      1.0000 0.14850  0.86740  0.32720  Biso   1.000  H
  H79      1.0000 0.35150  0.36740  0.17280  Biso   1.000  H
  H80      1.0000 0.85150  0.86740  0.17280  Biso   1.000  H
  H81      1.0000 0.28890  0.70720  0.09920  Biso   1.000  H
  H82      1.0000 0.78890  0.20720  0.09920  Biso   1.000  H
  H83      1.0000 0.71110  0.70720  0.40080  Biso   1.000  H
  H84      1.0000 0.21110  0.20720  0.40080  Biso   1.000  H
  H85      1.0000 0.71110  0.29280  0.90080  Biso   1.000  H
  H86      1.0000 0.21110  0.79280  0.90080  Biso   1.000  H
  H87      1.0000 0.28890  0.29280  0.59920  Biso   1.000  H
  H88      1.0000 0.78890  0.79280  0.59920  Biso   1.000  H
  H89      1.0000 0.34720  0.77170  0.07180  Biso   1.000  H
  H90      1.0000 0.84720  0.27170  0.07180  Biso   1.000  H
  H91      1.0000 0.65280  0.77170  0.42820  Biso   1.000  H
  H92      1.0000 0.15280  0.27170  0.42820  Biso   1.000  H
  H93      1.0000 0.65280  0.22830  0.92820  Biso   1.000  H
  H94      1.0000 0.15280  0.72830  0.92820  Biso   1.000  H
  H95      1.0000 0.34720  0.22830  0.57180  Biso   1.000  H
  H96      1.0000 0.84720  0.72830  0.57180  Biso   1.000  H
