data_image0
_cell_length_a       7.0348
_cell_length_b       20.642
_cell_length_c       27.4
_cell_angle_alpha    90
_cell_angle_beta     95.327
_cell_angle_gamma    90

_symmetry_space_group_name_H-M    "P 1"
_symmetry_int_tables_number       1

loop_
  _symmetry_equiv_pos_as_xyz
  'x, y, z'

loop_
  _atom_site_label
  _atom_site_occupancy
  _atom_site_fract_x
  _atom_site_fract_y
  _atom_site_fract_z
  _atom_site_thermal_displace_type
  _atom_site_B_iso_or_equiv
  _atom_site_type_symbol
  Cu1      1.0000 0.24180  0.61972  0.38550  Biso   1.000  Cu
  Cu2      1.0000 0.75820  0.11972  0.11450  Biso   1.000  Cu
  Cu3      1.0000 0.75820  0.38028  0.61450  Biso   1.000  Cu
  Cu4      1.0000 0.24180  0.88028  0.88550  Biso   1.000  Cu
  Cu5      1.0000 0.22940  0.39077  0.34362  Biso   1.000  Cu
  Cu6      1.0000 0.77060  0.89077  0.15638  Biso   1.000  Cu
  Cu7      1.0000 0.77060  0.60923  0.65638  Biso   1.000  Cu
  Cu8      1.0000 0.22940  0.10923  0.84362  Biso   1.000  Cu
  Cu9      1.0000 0.24650  0.82581  0.47015  Biso   1.000  Cu
  Cu10     1.0000 0.75350  0.32581  0.02985  Biso   1.000  Cu
  Cu11     1.0000 0.75350  0.17419  0.52985  Biso   1.000  Cu
  Cu12     1.0000 0.24650  0.67419  0.97015  Biso   1.000  Cu
  Cl1      1.0000 0.73710  0.64852  0.39280  Biso   1.000  Cl
  Cl2      1.0000 0.26290  0.14852  0.10720  Biso   1.000  Cl
  Cl3      1.0000 0.26290  0.35148  0.60720  Biso   1.000  Cl
  Cl4      1.0000 0.73710  0.85148  0.89280  Biso   1.000  Cl
  Cl5      1.0000 0.72650  0.38880  0.31906  Biso   1.000  Cl
  Cl6      1.0000 0.27350  0.88880  0.18094  Biso   1.000  Cl
  Cl7      1.0000 0.27350  0.61120  0.68094  Biso   1.000  Cl
  Cl8      1.0000 0.72650  0.11120  0.81906  Biso   1.000  Cl
  Cl9      1.0000 0.74330  0.87751  0.48042  Biso   1.000  Cl
  Cl10     1.0000 0.25670  0.37751  0.01958  Biso   1.000  Cl
  Cl11     1.0000 0.25670  0.12249  0.51958  Biso   1.000  Cl
  Cl12     1.0000 0.74330  0.62249  0.98042  Biso   1.000  Cl
  N1       1.0000 0.25280  0.58600  0.45060  Biso   1.000  N
  N2       1.0000 0.74720  0.08600  0.04940  Biso   1.000  N
  N3       1.0000 0.74720  0.41400  0.54940  Biso   1.000  N
  N4       1.0000 0.25280  0.91400  0.95060  Biso   1.000  N
  N5       1.0000 0.24020  0.52280  0.37190  Biso   1.000  N
  N6       1.0000 0.75980  0.02280  0.12810  Biso   1.000  N
  N7       1.0000 0.75980  0.47720  0.62810  Biso   1.000  N
  N8       1.0000 0.24020  0.97720  0.87190  Biso   1.000  N
  N9       1.0000 0.23510  0.48300  0.33180  Biso   1.000  N
  N10      1.0000 0.76490  0.98300  0.16820  Biso   1.000  N
  N11      1.0000 0.76490  0.51700  0.66820  Biso   1.000  N
  N12      1.0000 0.23510  0.01700  0.83180  Biso   1.000  N
  N13      1.0000 0.21830  0.38890  0.27040  Biso   1.000  N
  N14      1.0000 0.78170  0.88890  0.22960  Biso   1.000  N
  N15      1.0000 0.78170  0.61110  0.72960  Biso   1.000  N
  N16      1.0000 0.21830  0.11110  0.77040  Biso   1.000  N
  N17      1.0000 0.25250  0.70220  0.42580  Biso   1.000  N
  N18      1.0000 0.74750  0.20220  0.07420  Biso   1.000  N
  N19      1.0000 0.74750  0.29780  0.57420  Biso   1.000  N
  N20      1.0000 0.25250  0.79780  0.92580  Biso   1.000  N
  N21      1.0000 0.25530  0.76820  0.41510  Biso   1.000  N
  N22      1.0000 0.74470  0.26820  0.08490  Biso   1.000  N
  N23      1.0000 0.74470  0.23180  0.58490  Biso   1.000  N
  N24      1.0000 0.25530  0.73180  0.91510  Biso   1.000  N
  N25      1.0000 0.24260  0.89250  0.41630  Biso   1.000  N
  N26      1.0000 0.75740  0.39250  0.08370  Biso   1.000  N
  N27      1.0000 0.75740  0.10750  0.58370  Biso   1.000  N
  N28      1.0000 0.24260  0.60750  0.91630  Biso   1.000  N
  O1       1.0000 0.24890  0.42360  0.41220  Biso   1.000  O
  O2       1.0000 0.75110  0.92360  0.08780  Biso   1.000  O
  O3       1.0000 0.75110  0.57640  0.58780  Biso   1.000  O
  O4       1.0000 0.24890  0.07640  0.91220  Biso   1.000  O
  O5       1.0000 0.25390  0.74110  0.50460  Biso   1.000  O
  O6       1.0000 0.74610  0.24110  0.99540  Biso   1.000  O
  O7       1.0000 0.74610  0.25890  0.49540  Biso   1.000  O
  O8       1.0000 0.25390  0.75890  0.00460  Biso   1.000  O
  O9       1.0000 0.56520  0.61560  0.37750  Biso   1.000  O
  O10      1.0000 0.43480  0.11560  0.12250  Biso   1.000  O
  O11      1.0000 0.43480  0.38440  0.62250  Biso   1.000  O
  O12      1.0000 0.56520  0.88440  0.87750  Biso   1.000  O
  O13      1.0000 0.88340  0.60980  0.38090  Biso   1.000  O
  O14      1.0000 0.11660  0.10980  0.11910  Biso   1.000  O
  O15      1.0000 0.11660  0.39020  0.61910  Biso   1.000  O
  O16      1.0000 0.88340  0.89020  0.88090  Biso   1.000  O
  O17      1.0000 0.73700  0.70980  0.37590  Biso   1.000  O
  O18      1.0000 0.26300  0.20980  0.12410  Biso   1.000  O
  O19      1.0000 0.26300  0.29020  0.62410  Biso   1.000  O
  O20      1.0000 0.73700  0.79020  0.87590  Biso   1.000  O
  O21      1.0000 0.74300  0.65550  0.44490  Biso   1.000  O
  O22      1.0000 0.25700  0.15550  0.05510  Biso   1.000  O
  O23      1.0000 0.25700  0.34450  0.55510  Biso   1.000  O
  O24      1.0000 0.74300  0.84450  0.94490  Biso   1.000  O
  O25      1.0000 0.56880  0.38680  0.34820  Biso   1.000  O
  O26      1.0000 0.43120  0.88680  0.15180  Biso   1.000  O
  O27      1.0000 0.43120  0.61320  0.65180  Biso   1.000  O
  O28      1.0000 0.56880  0.11320  0.84820  Biso   1.000  O
  O29      1.0000 0.89350  0.39320  0.35010  Biso   1.000  O
  O30      1.0000 0.10650  0.89320  0.14990  Biso   1.000  O
  O31      1.0000 0.10650  0.60680  0.64990  Biso   1.000  O
  O32      1.0000 0.89350  0.10680  0.85010  Biso   1.000  O
  O33      1.0000 0.72900  0.33370  0.29140  Biso   1.000  O
  O34      1.0000 0.27100  0.83370  0.20860  Biso   1.000  O
  O35      1.0000 0.27100  0.66630  0.70860  Biso   1.000  O
  O36      1.0000 0.72900  0.16630  0.79140  Biso   1.000  O
  O37      1.0000 0.70100  0.43790  0.28400  Biso   1.000  O
  O38      1.0000 0.29900  0.93790  0.21600  Biso   1.000  O
  O39      1.0000 0.29900  0.56210  0.71600  Biso   1.000  O
  O40      1.0000 0.70100  0.06210  0.78400  Biso   1.000  O
  O41      1.0000 0.58700  0.83390  0.48380  Biso   1.000  O
  O42      1.0000 0.41300  0.33390  0.01620  Biso   1.000  O
  O43      1.0000 0.41300  0.16610  0.51620  Biso   1.000  O
  O44      1.0000 0.58700  0.66610  0.98380  Biso   1.000  O
  O45      1.0000 0.88050  0.84110  0.45910  Biso   1.000  O
  O46      1.0000 0.11950  0.34110  0.04090  Biso   1.000  O
  O47      1.0000 0.11950  0.15890  0.54090  Biso   1.000  O
  O48      1.0000 0.88050  0.65890  0.95910  Biso   1.000  O
  O49      1.0000 0.82810  0.89450  0.52950  Biso   1.000  O
  O50      1.0000 0.17190  0.39450  0.97050  Biso   1.000  O
  O51      1.0000 0.17190  0.10550  0.47050  Biso   1.000  O
  O52      1.0000 0.82810  0.60550  0.02950  Biso   1.000  O
  O53      1.0000 0.67400  0.93200  0.45500  Biso   1.000  O
  O54      1.0000 0.32600  0.43200  0.04500  Biso   1.000  O
  O55      1.0000 0.32600  0.06800  0.54500  Biso   1.000  O
  O56      1.0000 0.67400  0.56800  0.95500  Biso   1.000  O
  O57      1.0000 0.19360  0.65460  0.32050  Biso   1.000  O
  O58      1.0000 0.80640  0.15460  0.17950  Biso   1.000  O
  O59      1.0000 0.80640  0.34540  0.67950  Biso   1.000  O
  O60      1.0000 0.19360  0.84540  0.82050  Biso   1.000  O
  H1       1.0000 0.09780  0.67340  0.30550  Biso   1.000  H
  H2       1.0000 0.90220  0.17340  0.19450  Biso   1.000  H
  H3       1.0000 0.90220  0.32660  0.69450  Biso   1.000  H
  H4       1.0000 0.09780  0.82660  0.80550  Biso   1.000  H
  H5       1.0000 0.28840  0.66330  0.30460  Biso   1.000  H
  H6       1.0000 0.71160  0.16330  0.19540  Biso   1.000  H
  H7       1.0000 0.71160  0.33670  0.69540  Biso   1.000  H
  H8       1.0000 0.28840  0.83670  0.80460  Biso   1.000  H
  O61      1.0000 0.23510  0.29900  0.35880  Biso   1.000  O
  O62      1.0000 0.76490  0.79900  0.14120  Biso   1.000  O
  O63      1.0000 0.76490  0.70100  0.64120  Biso   1.000  O
  O64      1.0000 0.23510  0.20100  0.85880  Biso   1.000  O
  H9       1.0000 0.17680  0.27170  0.34160  Biso   1.000  H
  H10      1.0000 0.82320  0.77170  0.15840  Biso   1.000  H
  H11      1.0000 0.82320  0.72830  0.65840  Biso   1.000  H
  H12      1.0000 0.17680  0.22830  0.84160  Biso   1.000  H
  O65      1.0000 0.21940  0.88040  0.52610  Biso   1.000  O
  O66      1.0000 0.78060  0.38040  0.97390  Biso   1.000  O
  O67      1.0000 0.78060  0.11960  0.47390  Biso   1.000  O
  O68      1.0000 0.21940  0.61960  0.02610  Biso   1.000  O
  H13      1.0000 0.10610  0.88680  0.52920  Biso   1.000  H
  H14      1.0000 0.89390  0.38680  0.97080  Biso   1.000  H
  H15      1.0000 0.89390  0.11320  0.47080  Biso   1.000  H
  H16      1.0000 0.10610  0.61320  0.02920  Biso   1.000  H
  C1       1.0000 0.25090  0.48470  0.41170  Biso   1.000  C
  C2       1.0000 0.74910  0.98470  0.08830  Biso   1.000  C
  C3       1.0000 0.74910  0.51530  0.58830  Biso   1.000  C
  C4       1.0000 0.25090  0.01530  0.91170  Biso   1.000  C
  C5       1.0000 0.25050  0.52140  0.45710  Biso   1.000  C
  C6       1.0000 0.74950  0.02140  0.04290  Biso   1.000  C
  C7       1.0000 0.74950  0.47860  0.54290  Biso   1.000  C
  C8       1.0000 0.25050  0.97860  0.95710  Biso   1.000  C
  C9       1.0000 0.25190  0.49630  0.50550  Biso   1.000  C
  C10      1.0000 0.74810  0.99630  0.99450  Biso   1.000  C
  C11      1.0000 0.74810  0.50370  0.49450  Biso   1.000  C
  C12      1.0000 0.25190  0.00370  0.00550  Biso   1.000  C
  H17      1.0000 0.25100  0.45180  0.51080  Biso   1.000  H
  H18      1.0000 0.74900  0.95180  0.98920  Biso   1.000  H
  H19      1.0000 0.74900  0.54820  0.48920  Biso   1.000  H
  H20      1.0000 0.25100  0.04820  0.01080  Biso   1.000  H
  C13      1.0000 0.25450  0.53750  0.54350  Biso   1.000  C
  C14      1.0000 0.74550  0.03750  0.95650  Biso   1.000  C
  C15      1.0000 0.74550  0.46250  0.45650  Biso   1.000  C
  C16      1.0000 0.25450  0.96250  0.04350  Biso   1.000  C
  H21      1.0000 0.24980  0.52090  0.57490  Biso   1.000  H
  H22      1.0000 0.75020  0.02090  0.92510  Biso   1.000  H
  H23      1.0000 0.75020  0.47910  0.42510  Biso   1.000  H
  H24      1.0000 0.24980  0.97910  0.07490  Biso   1.000  H
  C17      1.0000 0.26390  0.60370  0.53750  Biso   1.000  C
  C18      1.0000 0.73610  0.10370  0.96250  Biso   1.000  C
  C19      1.0000 0.73610  0.39630  0.46250  Biso   1.000  C
  C20      1.0000 0.26390  0.89630  0.03750  Biso   1.000  C
  H25      1.0000 0.27550  0.63150  0.56430  Biso   1.000  H
  H26      1.0000 0.72450  0.13150  0.93570  Biso   1.000  H
  H27      1.0000 0.72450  0.36850  0.43570  Biso   1.000  H
  H28      1.0000 0.27550  0.86850  0.06430  Biso   1.000  H
  C21      1.0000 0.25530  0.62750  0.48900  Biso   1.000  C
  C22      1.0000 0.74470  0.12750  0.01100  Biso   1.000  C
  C23      1.0000 0.74470  0.37250  0.51100  Biso   1.000  C
  C24      1.0000 0.25530  0.87250  0.98900  Biso   1.000  C
  C25      1.0000 0.25530  0.69550  0.47400  Biso   1.000  C
  C26      1.0000 0.74470  0.19550  0.02600  Biso   1.000  C
  C27      1.0000 0.74470  0.30450  0.52600  Biso   1.000  C
  C28      1.0000 0.25530  0.80450  0.97400  Biso   1.000  C
  C29      1.0000 0.22610  0.50220  0.28700  Biso   1.000  C
  C30      1.0000 0.77390  0.00220  0.21300  Biso   1.000  C
  C31      1.0000 0.77390  0.49780  0.71300  Biso   1.000  C
  C32      1.0000 0.22610  0.99780  0.78700  Biso   1.000  C
  H29      1.0000 0.22450  0.54560  0.27790  Biso   1.000  H
  H30      1.0000 0.77550  0.04560  0.22210  Biso   1.000  H
  H31      1.0000 0.77550  0.45440  0.72210  Biso   1.000  H
  H32      1.0000 0.22450  0.95440  0.77790  Biso   1.000  H
  C33      1.0000 0.21870  0.44850  0.25160  Biso   1.000  C
  C34      1.0000 0.78130  0.94850  0.24840  Biso   1.000  C
  C35      1.0000 0.78130  0.55150  0.74840  Biso   1.000  C
  C36      1.0000 0.21870  0.05150  0.75160  Biso   1.000  C
  C37      1.0000 0.23300  0.46120  0.20180  Biso   1.000  C
  C38      1.0000 0.76700  0.96120  0.29820  Biso   1.000  C
  C39      1.0000 0.76700  0.53880  0.79820  Biso   1.000  C
  C40      1.0000 0.23300  0.03880  0.70180  Biso   1.000  C
  H33      1.0000 0.24540  0.50310  0.19000  Biso   1.000  H
  H34      1.0000 0.75460  0.00310  0.31000  Biso   1.000  H
  H35      1.0000 0.75460  0.49690  0.81000  Biso   1.000  H
  H36      1.0000 0.24540  0.99690  0.69000  Biso   1.000  H
  C41      1.0000 0.22900  0.40490  0.16980  Biso   1.000  C
  C42      1.0000 0.77100  0.90490  0.33020  Biso   1.000  C
  C43      1.0000 0.77100  0.59510  0.83020  Biso   1.000  C
  C44      1.0000 0.22900  0.09510  0.66980  Biso   1.000  C
  H37      1.0000 0.23210  0.40980  0.13620  Biso   1.000  H
  H38      1.0000 0.76790  0.90980  0.36380  Biso   1.000  H
  H39      1.0000 0.76790  0.59020  0.86380  Biso   1.000  H
  H40      1.0000 0.23210  0.09020  0.63620  Biso   1.000  H
  C45      1.0000 0.21900  0.34550  0.18970  Biso   1.000  C
  C46      1.0000 0.78100  0.84550  0.31030  Biso   1.000  C
  C47      1.0000 0.78100  0.65450  0.81030  Biso   1.000  C
  C48      1.0000 0.21900  0.15450  0.68970  Biso   1.000  C
  H41      1.0000 0.21560  0.30920  0.16950  Biso   1.000  H
  H42      1.0000 0.78440  0.80920  0.33050  Biso   1.000  H
  H43      1.0000 0.78440  0.69080  0.83050  Biso   1.000  H
  H44      1.0000 0.21560  0.19080  0.66950  Biso   1.000  H
  C49      1.0000 0.21410  0.33790  0.23950  Biso   1.000  C
  C50      1.0000 0.78590  0.83790  0.26050  Biso   1.000  C
  C51      1.0000 0.78590  0.66210  0.76050  Biso   1.000  C
  C52      1.0000 0.21410  0.16210  0.73950  Biso   1.000  C
  H45      1.0000 0.20760  0.29620  0.25220  Biso   1.000  H
  H46      1.0000 0.79240  0.79620  0.24780  Biso   1.000  H
  H47      1.0000 0.79240  0.70380  0.74780  Biso   1.000  H
  H48      1.0000 0.20760  0.20380  0.75220  Biso   1.000  H
  C53      1.0000 0.26700  0.79370  0.37410  Biso   1.000  C
  C54      1.0000 0.73300  0.29370  0.12590  Biso   1.000  C
  C55      1.0000 0.73300  0.20630  0.62590  Biso   1.000  C
  C56      1.0000 0.26700  0.70630  0.87410  Biso   1.000  C
  H49      1.0000 0.27710  0.76910  0.34600  Biso   1.000  H
  H50      1.0000 0.72290  0.26910  0.15400  Biso   1.000  H
  H51      1.0000 0.72290  0.23090  0.65400  Biso   1.000  H
  H52      1.0000 0.27710  0.73090  0.84600  Biso   1.000  H
  C57      1.0000 0.26530  0.86520  0.37290  Biso   1.000  C
  C58      1.0000 0.73470  0.36520  0.12710  Biso   1.000  C
  C59      1.0000 0.73470  0.13480  0.62710  Biso   1.000  C
  C60      1.0000 0.26530  0.63480  0.87290  Biso   1.000  C
  C61      1.0000 0.27470  0.90160  0.33010  Biso   1.000  C
  C62      1.0000 0.72530  0.40160  0.16990  Biso   1.000  C
  C63      1.0000 0.72530  0.09840  0.66990  Biso   1.000  C
  C64      1.0000 0.27470  0.59840  0.83010  Biso   1.000  C
  H53      1.0000 0.28510  0.88140  0.30010  Biso   1.000  H
  H54      1.0000 0.71490  0.38140  0.19990  Biso   1.000  H
  H55      1.0000 0.71490  0.11860  0.69990  Biso   1.000  H
  H56      1.0000 0.28510  0.61860  0.80010  Biso   1.000  H
  C65      1.0000 0.26800  0.96700  0.33350  Biso   1.000  C
  C66      1.0000 0.73200  0.46700  0.16650  Biso   1.000  C
  C67      1.0000 0.73200  0.03300  0.66650  Biso   1.000  C
  C68      1.0000 0.26800  0.53300  0.83350  Biso   1.000  C
  H57      1.0000 0.27480  0.99250  0.30570  Biso   1.000  H
  H58      1.0000 0.72520  0.49250  0.19430  Biso   1.000  H
  H59      1.0000 0.72520  0.00750  0.69430  Biso   1.000  H
  H60      1.0000 0.27480  0.50750  0.80570  Biso   1.000  H
  C69      1.0000 0.25200  0.99500  0.37770  Biso   1.000  C
  C70      1.0000 0.74800  0.49500  0.12230  Biso   1.000  C
  C71      1.0000 0.74800  0.00500  0.62230  Biso   1.000  C
  C72      1.0000 0.25200  0.50500  0.87770  Biso   1.000  C
  H61      1.0000 0.25250  0.03980  0.38060  Biso   1.000  H
  H62      1.0000 0.74750  0.53980  0.11940  Biso   1.000  H
  H63      1.0000 0.74750  0.96020  0.61940  Biso   1.000  H
  H64      1.0000 0.25250  0.46020  0.88060  Biso   1.000  H
  C73      1.0000 0.23540  0.95650  0.41890  Biso   1.000  C
  C74      1.0000 0.76460  0.45650  0.08110  Biso   1.000  C
  C75      1.0000 0.76460  0.04350  0.58110  Biso   1.000  C
  C76      1.0000 0.23540  0.54350  0.91890  Biso   1.000  C
  H65      1.0000 0.21870  0.97610  0.44870  Biso   1.000  H
  H66      1.0000 0.78130  0.47610  0.05130  Biso   1.000  H
  H67      1.0000 0.78130  0.02390  0.55130  Biso   1.000  H
  H68      1.0000 0.21870  0.52390  0.94870  Biso   1.000  H
  C77      1.0000 0.29000  0.27070  0.40570  Biso   1.000  C
  C78      1.0000 0.71000  0.77070  0.09430  Biso   1.000  C
  C79      1.0000 0.71000  0.72930  0.59430  Biso   1.000  C
  C80      1.0000 0.29000  0.22930  0.90570  Biso   1.000  C
  H69      1.0000 0.31860  0.22520  0.40130  Biso   1.000  H
  H70      1.0000 0.68140  0.72520  0.09870  Biso   1.000  H
  H71      1.0000 0.68140  0.77480  0.59870  Biso   1.000  H
  H72      1.0000 0.31860  0.27480  0.90130  Biso   1.000  H
  H73      1.0000 0.40530  0.29160  0.42010  Biso   1.000  H
  H74      1.0000 0.59470  0.79160  0.07990  Biso   1.000  H
  H75      1.0000 0.59470  0.70840  0.57990  Biso   1.000  H
  H76      1.0000 0.40530  0.20840  0.92010  Biso   1.000  H
  C81      1.0000 0.14600  0.27620  0.43860  Biso   1.000  C
  C82      1.0000 0.85400  0.77620  0.06140  Biso   1.000  C
  C83      1.0000 0.85400  0.72380  0.56140  Biso   1.000  C
  C84      1.0000 0.14600  0.22380  0.93860  Biso   1.000  C
  H77      1.0000 0.09660  0.31960  0.43750  Biso   1.000  H
  H78      1.0000 0.90340  0.81960  0.06250  Biso   1.000  H
  H79      1.0000 0.90340  0.68040  0.56250  Biso   1.000  H
  H80      1.0000 0.09660  0.18040  0.93750  Biso   1.000  H
  H81      1.0000 0.19970  0.26660  0.47130  Biso   1.000  H
  H82      1.0000 0.80030  0.76660  0.02870  Biso   1.000  H
  H83      1.0000 0.80030  0.73340  0.52870  Biso   1.000  H
  H84      1.0000 0.19970  0.23340  0.97130  Biso   1.000  H
  H85      1.0000 0.04470  0.24630  0.42920  Biso   1.000  H
  H86      1.0000 0.95530  0.74630  0.07080  Biso   1.000  H
  H87      1.0000 0.95530  0.75370  0.57080  Biso   1.000  H
  H88      1.0000 0.04470  0.25370  0.92920  Biso   1.000  H
  C85      1.0000 0.32300  0.87210  0.57230  Biso   1.000  C
  C86      1.0000 0.67700  0.37210  0.92770  Biso   1.000  C
  C87      1.0000 0.67700  0.12790  0.42770  Biso   1.000  C
  C88      1.0000 0.32300  0.62790  0.07230  Biso   1.000  C
  H89      1.0000 0.45750  0.87910  0.56860  Biso   1.000  H
  H90      1.0000 0.54250  0.37910  0.93140  Biso   1.000  H
  H91      1.0000 0.54250  0.12090  0.43140  Biso   1.000  H
  H92      1.0000 0.45750  0.62090  0.06860  Biso   1.000  H
  H93      1.0000 0.30870  0.82760  0.58260  Biso   1.000  H
  H94      1.0000 0.69130  0.32760  0.91740  Biso   1.000  H
  H95      1.0000 0.69130  0.17240  0.41740  Biso   1.000  H
  H96      1.0000 0.30870  0.67240  0.08260  Biso   1.000  H
  C89      1.0000 0.26700  0.91470  0.61090  Biso   1.000  C
  C90      1.0000 0.73300  0.41470  0.88910  Biso   1.000  C
  C91      1.0000 0.73300  0.08530  0.38910  Biso   1.000  C
  C92      1.0000 0.26700  0.58530  0.11090  Biso   1.000  C
  H97      1.0000 0.33400  0.95520  0.60970  Biso   1.000  H
  H98      1.0000 0.66600  0.45520  0.89030  Biso   1.000  H
  H99      1.0000 0.66600  0.04480  0.39030  Biso   1.000  H
  H100     1.0000 0.33400  0.54480  0.10970  Biso   1.000  H
  H101     1.0000 0.29820  0.89470  0.64220  Biso   1.000  H
  H102     1.0000 0.70180  0.39470  0.85780  Biso   1.000  H
  H103     1.0000 0.70180  0.10530  0.35780  Biso   1.000  H
  H104     1.0000 0.29820  0.60530  0.14220  Biso   1.000  H
  H105     1.0000 0.13200  0.92250  0.60620  Biso   1.000  H
  H106     1.0000 0.86800  0.42250  0.89380  Biso   1.000  H
  H107     1.0000 0.86800  0.07750  0.39380  Biso   1.000  H
  H108     1.0000 0.13200  0.57750  0.10620  Biso   1.000  H
  Cl13     1.0000 0.11340  0.15090  0.29148  Biso   1.000  Cl
  Cl14     1.0000 0.88660  0.65090  0.20852  Biso   1.000  Cl
  Cl15     1.0000 0.88660  0.84910  0.70852  Biso   1.000  Cl
  Cl16     1.0000 0.11340  0.34910  0.79148  Biso   1.000  Cl
  O69      1.0000 0.01400  0.20600  0.30990  Biso   1.000  O
  O70      1.0000 0.98600  0.70600  0.19010  Biso   1.000  O
  O71      1.0000 0.98600  0.79400  0.69010  Biso   1.000  O
  O72      1.0000 0.01400  0.29400  0.80990  Biso   1.000  O
  O73      1.0000 0.29500  0.14250  0.31680  Biso   1.000  O
  O74      1.0000 0.70500  0.64250  0.18320  Biso   1.000  O
  O75      1.0000 0.70500  0.85750  0.68320  Biso   1.000  O
  O76      1.0000 0.29500  0.35750  0.81680  Biso   1.000  O
  O77      1.0000 0.00800  0.09480  0.28880  Biso   1.000  O
  O78      1.0000 0.99200  0.59480  0.21120  Biso   1.000  O
  O79      1.0000 0.99200  0.90520  0.71120  Biso   1.000  O
  O80      1.0000 0.00800  0.40520  0.78880  Biso   1.000  O
  O81      1.0000 0.14800  0.17620  0.24370  Biso   1.000  O
  O82      1.0000 0.85200  0.67620  0.25630  Biso   1.000  O
  O83      1.0000 0.85200  0.82380  0.75630  Biso   1.000  O
  O84      1.0000 0.14800  0.32380  0.74370  Biso   1.000  O
  O85      1.0000 0.41000  0.70880  0.26390  Biso   1.000  O
  O86      1.0000 0.59000  0.20880  0.23610  Biso   1.000  O
  O87      1.0000 0.59000  0.29120  0.73610  Biso   1.000  O
  O88      1.0000 0.41000  0.79120  0.76390  Biso   1.000  O
  H109     1.0000 0.52350  0.70120  0.25720  Biso   1.000  H
  H110     1.0000 0.47650  0.20120  0.24280  Biso   1.000  H
  H111     1.0000 0.47650  0.29880  0.74280  Biso   1.000  H
  H112     1.0000 0.52350  0.79880  0.75720  Biso   1.000  H
  H113     1.0000 0.36670  0.73870  0.24460  Biso   1.000  H
  H114     1.0000 0.63330  0.23870  0.25540  Biso   1.000  H
  H115     1.0000 0.63330  0.26130  0.75540  Biso   1.000  H
  H116     1.0000 0.36670  0.76130  0.74460  Biso   1.000  H
