data_image0
_cell_length_a       9.775
_cell_length_b       7.8534
_cell_length_c       19.614
_cell_angle_alpha    90
_cell_angle_beta     92.367
_cell_angle_gamma    90

_symmetry_space_group_name_H-M    "P 1"
_symmetry_int_tables_number       1

loop_
  _symmetry_equiv_pos_as_xyz
  'x, y, z'

loop_
  _atom_site_label
  _atom_site_occupancy
  _atom_site_fract_x
  _atom_site_fract_y
  _atom_site_fract_z
  _atom_site_thermal_displace_type
  _atom_site_B_iso_or_equiv
  _atom_site_type_symbol
  Cu1      1.0000 0.64346  0.75904  0.14162  Biso   1.000  Cu
  Cu2      1.0000 0.14346  0.74096  0.64162  Biso   1.000  Cu
  Cu3      1.0000 0.35654  0.24096  0.85838  Biso   1.000  Cu
  Cu4      1.0000 0.85654  0.25904  0.35838  Biso   1.000  Cu
  O1       1.0000 0.47074  0.64570  0.11511  Biso   1.000  O
  O2       1.0000 0.97074  0.85430  0.61511  Biso   1.000  O
  O3       1.0000 0.52926  0.35430  0.88489  Biso   1.000  O
  O4       1.0000 0.02926  0.14570  0.38489  Biso   1.000  O
  O5       1.0000 0.25659  0.62910  0.14897  Biso   1.000  O
  O6       1.0000 0.75659  0.87090  0.64897  Biso   1.000  O
  O7       1.0000 0.74341  0.37090  0.85103  Biso   1.000  O
  O8       1.0000 0.24341  0.12910  0.35103  Biso   1.000  O
  O9       1.0000 0.79760  0.88370  0.18393  Biso   1.000  O
  O10      1.0000 0.29760  0.61630  0.68393  Biso   1.000  O
  O11      1.0000 0.20240  0.11630  0.81607  Biso   1.000  O
  O12      1.0000 0.70240  0.38370  0.31607  Biso   1.000  O
  O13      1.0000 0.84739  0.06450  0.26783  Biso   1.000  O
  O14      1.0000 0.34739  0.43550  0.76783  Biso   1.000  O
  O15      1.0000 0.15261  0.93550  0.73217  Biso   1.000  O
  O16      1.0000 0.65261  0.56450  0.23217  Biso   1.000  O
  N1       1.0000 0.78830  0.56940  0.96449  Biso   1.000  N
  N2       1.0000 0.28830  0.93060  0.46449  Biso   1.000  N
  N3       1.0000 0.21170  0.43060  0.03551  Biso   1.000  N
  N4       1.0000 0.71170  0.06940  0.53551  Biso   1.000  N
  H1       1.0000 0.77880  0.50860  0.92810  Biso   1.000  H
  H2       1.0000 0.27880  0.99140  0.42810  Biso   1.000  H
  H3       1.0000 0.22120  0.49140  0.07190  Biso   1.000  H
  H4       1.0000 0.72120  0.00860  0.57190  Biso   1.000  H
  N5       1.0000 0.74630  0.67780  0.06382  Biso   1.000  N
  N6       1.0000 0.24630  0.82220  0.56382  Biso   1.000  N
  N7       1.0000 0.25370  0.32220  0.93618  Biso   1.000  N
  N8       1.0000 0.75370  0.17780  0.43618  Biso   1.000  N
  N9       1.0000 0.52486  0.92840  0.19054  Biso   1.000  N
  N10      1.0000 0.02486  0.57160  0.69054  Biso   1.000  N
  N11      1.0000 0.47514  0.07160  0.80946  Biso   1.000  N
  N12      1.0000 0.97514  0.42840  0.30946  Biso   1.000  N
  C1       1.0000 0.70280  0.57260  0.01563  Biso   1.000  C
  C2       1.0000 0.20280  0.92740  0.51563  Biso   1.000  C
  C3       1.0000 0.29720  0.42740  0.98437  Biso   1.000  C
  C4       1.0000 0.79720  0.07260  0.48437  Biso   1.000  C
  H5       1.0000 0.62280  0.50880  0.01700  Biso   1.000  H
  H6       1.0000 0.12280  0.99120  0.51700  Biso   1.000  H
  H7       1.0000 0.37720  0.49120  0.98300  Biso   1.000  H
  H8       1.0000 0.87720  0.00880  0.48300  Biso   1.000  H
  C5       1.0000 0.86700  0.74560  0.04168  Biso   1.000  C
  C6       1.0000 0.36700  0.75440  0.54168  Biso   1.000  C
  C7       1.0000 0.13300  0.25440  0.95832  Biso   1.000  C
  C8       1.0000 0.63300  0.24560  0.45832  Biso   1.000  C
  H9       1.0000 0.92140  0.82450  0.06560  Biso   1.000  H
  H10      1.0000 0.42140  0.67550  0.56560  Biso   1.000  H
  H11      1.0000 0.07860  0.17550  0.93440  Biso   1.000  H
  H12      1.0000 0.57860  0.32450  0.43440  Biso   1.000  H
  C9       1.0000 0.89420  0.67990  0.97963  Biso   1.000  C
  C10      1.0000 0.39420  0.82010  0.47963  Biso   1.000  C
  C11      1.0000 0.10580  0.32010  0.02037  Biso   1.000  C
  C12      1.0000 0.60580  0.17990  0.52037  Biso   1.000  C
  C13      1.0000 0.40710  0.81970  0.20904  Biso   1.000  C
  C14      1.0000 0.90710  0.68030  0.70904  Biso   1.000  C
  C15      1.0000 0.59290  0.18030  0.79096  Biso   1.000  C
  C16      1.0000 0.09290  0.31970  0.29096  Biso   1.000  C
  H13      1.0000 0.32740  0.89080  0.21530  Biso   1.000  H
  H14      1.0000 0.82740  0.60920  0.71530  Biso   1.000  H
  H15      1.0000 0.67260  0.10920  0.78470  Biso   1.000  H
  H16      1.0000 0.17260  0.39080  0.28470  Biso   1.000  H
  H17      1.0000 0.42900  0.76180  0.25180  Biso   1.000  H
  H18      1.0000 0.92900  0.73820  0.75180  Biso   1.000  H
  H19      1.0000 0.57100  0.23820  0.74820  Biso   1.000  H
  H20      1.0000 0.07100  0.26180  0.24820  Biso   1.000  H
  C17      1.0000 0.37430  0.68830  0.15343  Biso   1.000  C
  C18      1.0000 0.87430  0.81170  0.65343  Biso   1.000  C
  C19      1.0000 0.62570  0.31170  0.84657  Biso   1.000  C
  C20      1.0000 0.12570  0.18830  0.34657  Biso   1.000  C
  C21      1.0000 0.61380  0.97880  0.25073  Biso   1.000  C
  C22      1.0000 0.11380  0.52120  0.75073  Biso   1.000  C
  C23      1.0000 0.38620  0.02120  0.74927  Biso   1.000  C
  C24      1.0000 0.88620  0.47880  0.24927  Biso   1.000  C
  H21      1.0000 0.60040  0.90000  0.28790  Biso   1.000  H
  H22      1.0000 0.10040  0.60000  0.78790  Biso   1.000  H
  H23      1.0000 0.39960  0.10000  0.71210  Biso   1.000  H
  H24      1.0000 0.89960  0.40000  0.21210  Biso   1.000  H
  H25      1.0000 0.58800  0.09160  0.26570  Biso   1.000  H
  H26      1.0000 0.08800  0.40840  0.76570  Biso   1.000  H
  H27      1.0000 0.41200  0.90840  0.73430  Biso   1.000  H
  H28      1.0000 0.91200  0.59160  0.23430  Biso   1.000  H
  C25      1.0000 0.76460  0.97910  0.23323  Biso   1.000  C
  C26      1.0000 0.26460  0.52090  0.73323  Biso   1.000  C
  C27      1.0000 0.23540  0.02090  0.76677  Biso   1.000  C
  C28      1.0000 0.73540  0.47910  0.26677  Biso   1.000  C
  C29      1.0000 0.47980  0.08250  0.14728  Biso   1.000  C
  C30      1.0000 0.97980  0.41750  0.64728  Biso   1.000  C
  C31      1.0000 0.52020  0.91750  0.85272  Biso   1.000  C
  C32      1.0000 0.02020  0.58250  0.35272  Biso   1.000  C
  C33      1.0000 0.60650  0.17500  0.12293  Biso   1.000  C
  C34      1.0000 0.10650  0.32500  0.62293  Biso   1.000  C
  C35      1.0000 0.39350  0.82500  0.87707  Biso   1.000  C
  C36      1.0000 0.89350  0.67500  0.37707  Biso   1.000  C
  H29      1.0000 0.66150  0.21260  0.16170  Biso   1.000  H
  H30      1.0000 0.16150  0.28740  0.66170  Biso   1.000  H
  H31      1.0000 0.33850  0.78740  0.83830  Biso   1.000  H
  H32      1.0000 0.83850  0.71260  0.33830  Biso   1.000  H
  H33      1.0000 0.57860  0.27170  0.09580  Biso   1.000  H
  H34      1.0000 0.07860  0.22830  0.59580  Biso   1.000  H
  H35      1.0000 0.42140  0.72830  0.90420  Biso   1.000  H
  H36      1.0000 0.92140  0.77170  0.40420  Biso   1.000  H
  H37      1.0000 0.65900  0.09900  0.09600  Biso   1.000  H
  H38      1.0000 0.15900  0.40100  0.59600  Biso   1.000  H
  H39      1.0000 0.34100  0.90100  0.90400  Biso   1.000  H
  H40      1.0000 0.84100  0.59900  0.40400  Biso   1.000  H
  C37      1.0000 0.39550  0.02290  0.08401  Biso   1.000  C
  C38      1.0000 0.89550  0.47710  0.58401  Biso   1.000  C
  C39      1.0000 0.60450  0.97710  0.91599  Biso   1.000  C
  C40      1.0000 0.10450  0.52290  0.41599  Biso   1.000  C
  H41      1.0000 0.44790  0.94210  0.05920  Biso   1.000  H
  H42      1.0000 0.94790  0.55790  0.55920  Biso   1.000  H
  H43      1.0000 0.55210  0.05790  0.94080  Biso   1.000  H
  H44      1.0000 0.05210  0.44210  0.44080  Biso   1.000  H
  H45      1.0000 0.37360  0.11900  0.05530  Biso   1.000  H
  H46      1.0000 0.87360  0.38100  0.55530  Biso   1.000  H
  H47      1.0000 0.62640  0.88100  0.94470  Biso   1.000  H
  H48      1.0000 0.12640  0.61900  0.44470  Biso   1.000  H
  H49      1.0000 0.31250  0.97020  0.09790  Biso   1.000  H
  H50      1.0000 0.81250  0.52980  0.59790  Biso   1.000  H
  H51      1.0000 0.68750  0.02980  0.90210  Biso   1.000  H
  H52      1.0000 0.18750  0.47020  0.40210  Biso   1.000  H
  C41      1.0000 0.39310  0.20610  0.18777  Biso   1.000  C
  C42      1.0000 0.89310  0.29390  0.68777  Biso   1.000  C
  C43      1.0000 0.60690  0.79390  0.81223  Biso   1.000  C
  C44      1.0000 0.10690  0.70610  0.31223  Biso   1.000  C
  H53      1.0000 0.31330  0.14840  0.20280  Biso   1.000  H
  H54      1.0000 0.81330  0.35160  0.70280  Biso   1.000  H
  H55      1.0000 0.68670  0.85160  0.79720  Biso   1.000  H
  H56      1.0000 0.18670  0.64840  0.29720  Biso   1.000  H
  H57      1.0000 0.36570  0.30040  0.15920  Biso   1.000  H
  H58      1.0000 0.86570  0.19960  0.65920  Biso   1.000  H
  H59      1.0000 0.63430  0.69960  0.84080  Biso   1.000  H
  H60      1.0000 0.13430  0.80040  0.34080  Biso   1.000  H
  H61      1.0000 0.44610  0.24730  0.22670  Biso   1.000  H
  H62      1.0000 0.94610  0.25270  0.72670  Biso   1.000  H
  H63      1.0000 0.55390  0.75270  0.77330  Biso   1.000  H
  H64      1.0000 0.05390  0.74730  0.27330  Biso   1.000  H
  C45      1.0000 0.00720  0.71300  0.93287  Biso   1.000  C
  C46      1.0000 0.50720  0.78700  0.43287  Biso   1.000  C
  C47      1.0000 0.99280  0.28700  0.06713  Biso   1.000  C
  C48      1.0000 0.49280  0.21300  0.56713  Biso   1.000  C
  H65      1.0000 0.07820  0.77710  0.95650  Biso   1.000  H
  H66      1.0000 0.57820  0.72290  0.45650  Biso   1.000  H
  H67      1.0000 0.92180  0.22290  0.04350  Biso   1.000  H
  H68      1.0000 0.42180  0.27710  0.54350  Biso   1.000  H
  H69      1.0000 0.97270  0.77650  0.89400  Biso   1.000  H
  H70      1.0000 0.47270  0.72350  0.39400  Biso   1.000  H
  H71      1.0000 0.02730  0.22350  0.10600  Biso   1.000  H
  H72      1.0000 0.52730  0.27650  0.60600  Biso   1.000  H
  H73      1.0000 0.04380  0.60650  0.91790  Biso   1.000  H
  H74      1.0000 0.54380  0.89350  0.41790  Biso   1.000  H
  H75      1.0000 0.95620  0.39350  0.08210  Biso   1.000  H
  H76      1.0000 0.45620  0.10650  0.58210  Biso   1.000  H
  O17      1.0000 0.08420  0.94360  0.16087  Biso   1.000  O
  O18      1.0000 0.58420  0.55640  0.66087  Biso   1.000  O
  O19      1.0000 0.91580  0.05640  0.83913  Biso   1.000  O
  O20      1.0000 0.41580  0.44360  0.33913  Biso   1.000  O
  H77      1.0000 0.11670  0.80470  0.16040  Biso   1.000  H
  H78      1.0000 0.61670  0.69530  0.66040  Biso   1.000  H
  H79      1.0000 0.88330  0.19530  0.83960  Biso   1.000  H
  H80      1.0000 0.38330  0.30470  0.33960  Biso   1.000  H
  H81      1.0000 0.99950  0.97340  0.19070  Biso   1.000  H
  H82      1.0000 0.49950  0.52660  0.69070  Biso   1.000  H
  H83      1.0000 0.00050  0.02660  0.80930  Biso   1.000  H
  H84      1.0000 0.50050  0.47340  0.30930  Biso   1.000  H
