data_image0
_cell_length_a       16.4943
_cell_length_b       7.9801
_cell_length_c       23.805
_cell_angle_alpha    90
_cell_angle_beta     90
_cell_angle_gamma    90

_symmetry_space_group_name_H-M    "P 1"
_symmetry_int_tables_number       1

loop_
  _symmetry_equiv_pos_as_xyz
  'x, y, z'

loop_
  _atom_site_label
  _atom_site_occupancy
  _atom_site_fract_x
  _atom_site_fract_y
  _atom_site_fract_z
  _atom_site_thermal_displace_type
  _atom_site_B_iso_or_equiv
  _atom_site_type_symbol
  Cu1      1.0000 0.86566  0.27319  0.58198  Biso   1.000  Cu
  Cu2      1.0000 0.36566  0.27319  0.91802  Biso   1.000  Cu
  Cu3      1.0000 0.63434  0.77319  0.58198  Biso   1.000  Cu
  Cu4      1.0000 0.86566  0.22681  0.08198  Biso   1.000  Cu
  Cu5      1.0000 0.13434  0.72681  0.41802  Biso   1.000  Cu
  Cu6      1.0000 0.63434  0.72681  0.08198  Biso   1.000  Cu
  Cu7      1.0000 0.36566  0.22681  0.41802  Biso   1.000  Cu
  Cu8      1.0000 0.13434  0.77319  0.91802  Biso   1.000  Cu
  O1       1.0000 0.96511  0.14560  0.59348  Biso   1.000  O
  O2       1.0000 0.46511  0.14560  0.90652  Biso   1.000  O
  O3       1.0000 0.53489  0.64560  0.59348  Biso   1.000  O
  O4       1.0000 0.96511  0.35440  0.09348  Biso   1.000  O
  O5       1.0000 0.03489  0.85440  0.40652  Biso   1.000  O
  O6       1.0000 0.53489  0.85440  0.09348  Biso   1.000  O
  O7       1.0000 0.46511  0.35440  0.40652  Biso   1.000  O
  O8       1.0000 0.03489  0.64560  0.90652  Biso   1.000  O
  O9       1.0000 0.06115  0.10760  0.65768  Biso   1.000  O
  O10      1.0000 0.56115  0.10760  0.84232  Biso   1.000  O
  O11      1.0000 0.43885  0.60760  0.65768  Biso   1.000  O
  O12      1.0000 0.06115  0.39240  0.15768  Biso   1.000  O
  O13      1.0000 0.93885  0.89240  0.34232  Biso   1.000  O
  O14      1.0000 0.43885  0.89240  0.15768  Biso   1.000  O
  O15      1.0000 0.56115  0.39240  0.34232  Biso   1.000  O
  O16      1.0000 0.93885  0.60760  0.84232  Biso   1.000  O
  O17      1.0000 0.76892  0.41220  0.58533  Biso   1.000  O
  O18      1.0000 0.26892  0.41220  0.91467  Biso   1.000  O
  O19      1.0000 0.73108  0.91220  0.58533  Biso   1.000  O
  O20      1.0000 0.76892  0.08780  0.08533  Biso   1.000  O
  O21      1.0000 0.23108  0.58780  0.41467  Biso   1.000  O
  O22      1.0000 0.73108  0.58780  0.08533  Biso   1.000  O
  O23      1.0000 0.26892  0.08780  0.41467  Biso   1.000  O
  O24      1.0000 0.23108  0.91220  0.91467  Biso   1.000  O
  O25      1.0000 0.70349  0.58010  0.64459  Biso   1.000  O
  O26      1.0000 0.20349  0.58010  0.85541  Biso   1.000  O
  O27      1.0000 0.79651  0.08010  0.64459  Biso   1.000  O
  O28      1.0000 0.70349  0.91990  0.14459  Biso   1.000  O
  O29      1.0000 0.29651  0.41990  0.35541  Biso   1.000  O
  O30      1.0000 0.79651  0.41990  0.14459  Biso   1.000  O
  O31      1.0000 0.20349  0.91990  0.35541  Biso   1.000  O
  O32      1.0000 0.29651  0.08010  0.85541  Biso   1.000  O
  N1       1.0000 0.85600  0.06920  0.42484  Biso   1.000  N
  N2       1.0000 0.35600  0.06920  0.07516  Biso   1.000  N
  N3       1.0000 0.64400  0.56920  0.42484  Biso   1.000  N
  N4       1.0000 0.85600  0.43080  0.92484  Biso   1.000  N
  N5       1.0000 0.14400  0.93080  0.57516  Biso   1.000  N
  N6       1.0000 0.64400  0.93080  0.92484  Biso   1.000  N
  N7       1.0000 0.35600  0.43080  0.57516  Biso   1.000  N
  N8       1.0000 0.14400  0.56920  0.07516  Biso   1.000  N
  H1       1.0000 0.87580  0.00820  0.39840  Biso   1.000  H
  H2       1.0000 0.37580  0.00820  0.10160  Biso   1.000  H
  H3       1.0000 0.62420  0.50820  0.39840  Biso   1.000  H
  H4       1.0000 0.87580  0.49180  0.89840  Biso   1.000  H
  H5       1.0000 0.12420  0.99180  0.60160  Biso   1.000  H
  H6       1.0000 0.62420  0.99180  0.89840  Biso   1.000  H
  H7       1.0000 0.37580  0.49180  0.60160  Biso   1.000  H
  H8       1.0000 0.12420  0.50820  0.10160  Biso   1.000  H
  N9       1.0000 0.84158  0.18710  0.50685  Biso   1.000  N
  N10      1.0000 0.34158  0.18710  0.99315  Biso   1.000  N
  N11      1.0000 0.65842  0.68710  0.50685  Biso   1.000  N
  N12      1.0000 0.84158  0.31290  0.00685  Biso   1.000  N
  N13      1.0000 0.15842  0.81290  0.49315  Biso   1.000  N
  N14      1.0000 0.65842  0.81290  0.00685  Biso   1.000  N
  N15      1.0000 0.34158  0.31290  0.49315  Biso   1.000  N
  N16      1.0000 0.15842  0.68710  0.99315  Biso   1.000  N
  N17      1.0000 0.90953  0.42810  0.64303  Biso   1.000  N
  N18      1.0000 0.40953  0.42810  0.85697  Biso   1.000  N
  N19      1.0000 0.59047  0.92810  0.64303  Biso   1.000  N
  N20      1.0000 0.90953  0.07190  0.14303  Biso   1.000  N
  N21      1.0000 0.09047  0.57190  0.35697  Biso   1.000  N
  N22      1.0000 0.59047  0.57190  0.14303  Biso   1.000  N
  N23      1.0000 0.40953  0.07190  0.35697  Biso   1.000  N
  N24      1.0000 0.09047  0.92810  0.85697  Biso   1.000  N
  C1       1.0000 0.88560  0.08380  0.47700  Biso   1.000  C
  C2       1.0000 0.38560  0.08380  0.02300  Biso   1.000  C
  C3       1.0000 0.61440  0.58380  0.47700  Biso   1.000  C
  C4       1.0000 0.88560  0.41620  0.97700  Biso   1.000  C
  C5       1.0000 0.11440  0.91620  0.52300  Biso   1.000  C
  C6       1.0000 0.61440  0.91620  0.97700  Biso   1.000  C
  C7       1.0000 0.38560  0.41620  0.52300  Biso   1.000  C
  C8       1.0000 0.11440  0.58380  0.02300  Biso   1.000  C
  H9       1.0000 0.93120  0.02780  0.49020  Biso   1.000  H
  H10      1.0000 0.43120  0.02780  0.00980  Biso   1.000  H
  H11      1.0000 0.56880  0.52780  0.49020  Biso   1.000  H
  H12      1.0000 0.93120  0.47220  0.99020  Biso   1.000  H
  H13      1.0000 0.06880  0.97220  0.50980  Biso   1.000  H
  H14      1.0000 0.56880  0.97220  0.99020  Biso   1.000  H
  H15      1.0000 0.43120  0.47220  0.50980  Biso   1.000  H
  H16      1.0000 0.06880  0.52780  0.00980  Biso   1.000  H
  C9       1.0000 0.78060  0.24090  0.47210  Biso   1.000  C
  C10      1.0000 0.28060  0.24090  0.02790  Biso   1.000  C
  C11      1.0000 0.71940  0.74090  0.47210  Biso   1.000  C
  C12      1.0000 0.78060  0.25910  0.97210  Biso   1.000  C
  C13      1.0000 0.21940  0.75910  0.52790  Biso   1.000  C
  C14      1.0000 0.71940  0.75910  0.97210  Biso   1.000  C
  C15      1.0000 0.28060  0.25910  0.52790  Biso   1.000  C
  C16      1.0000 0.21940  0.74090  0.02790  Biso   1.000  C
  H17      1.0000 0.73960  0.31520  0.48210  Biso   1.000  H
  H18      1.0000 0.23960  0.31520  0.01790  Biso   1.000  H
  H19      1.0000 0.76040  0.81520  0.48210  Biso   1.000  H
  H20      1.0000 0.73960  0.18480  0.98210  Biso   1.000  H
  H21      1.0000 0.26040  0.68480  0.51790  Biso   1.000  H
  H22      1.0000 0.76040  0.68480  0.98210  Biso   1.000  H
  H23      1.0000 0.23960  0.18480  0.51790  Biso   1.000  H
  H24      1.0000 0.26040  0.81520  0.01790  Biso   1.000  H
  C17      1.0000 0.78920  0.16880  0.42113  Biso   1.000  C
  C18      1.0000 0.28920  0.16880  0.07887  Biso   1.000  C
  C19      1.0000 0.71080  0.66880  0.42113  Biso   1.000  C
  C20      1.0000 0.78920  0.33120  0.92113  Biso   1.000  C
  C21      1.0000 0.21080  0.83120  0.57887  Biso   1.000  C
  C22      1.0000 0.71080  0.83120  0.92113  Biso   1.000  C
  C23      1.0000 0.28920  0.33120  0.57887  Biso   1.000  C
  C24      1.0000 0.21080  0.66880  0.07887  Biso   1.000  C
  H25      1.0000 0.75620  0.18430  0.38990  Biso   1.000  H
  H26      1.0000 0.25620  0.18430  0.11010  Biso   1.000  H
  H27      1.0000 0.74380  0.68430  0.38990  Biso   1.000  H
  H28      1.0000 0.75620  0.31570  0.88990  Biso   1.000  H
  H29      1.0000 0.24380  0.81570  0.61010  Biso   1.000  H
  H30      1.0000 0.74380  0.81570  0.88990  Biso   1.000  H
  H31      1.0000 0.25620  0.31570  0.61010  Biso   1.000  H
  H32      1.0000 0.24380  0.68430  0.11010  Biso   1.000  H
  C25      1.0000 0.96000  0.31210  0.67694  Biso   1.000  C
  C26      1.0000 0.46000  0.31210  0.82306  Biso   1.000  C
  C27      1.0000 0.54000  0.81210  0.67694  Biso   1.000  C
  C28      1.0000 0.96000  0.18790  0.17694  Biso   1.000  C
  C29      1.0000 0.04000  0.68790  0.32306  Biso   1.000  C
  C30      1.0000 0.54000  0.68790  0.17694  Biso   1.000  C
  C31      1.0000 0.46000  0.18790  0.32306  Biso   1.000  C
  C32      1.0000 0.04000  0.81210  0.82306  Biso   1.000  C
  H33      1.0000 0.00190  0.37530  0.69610  Biso   1.000  H
  H34      1.0000 0.50190  0.37530  0.80390  Biso   1.000  H
  H35      1.0000 0.49810  0.87530  0.69610  Biso   1.000  H
  H36      1.0000 0.00190  0.12470  0.19610  Biso   1.000  H
  H37      1.0000 0.99810  0.62470  0.30390  Biso   1.000  H
  H38      1.0000 0.49810  0.62470  0.19610  Biso   1.000  H
  H39      1.0000 0.50190  0.12470  0.30390  Biso   1.000  H
  H40      1.0000 0.99810  0.87530  0.80390  Biso   1.000  H
  H41      1.0000 0.92650  0.25860  0.70520  Biso   1.000  H
  H42      1.0000 0.42650  0.25860  0.79480  Biso   1.000  H
  H43      1.0000 0.57350  0.75860  0.70520  Biso   1.000  H
  H44      1.0000 0.92650  0.24140  0.20520  Biso   1.000  H
  H45      1.0000 0.07350  0.74140  0.29480  Biso   1.000  H
  H46      1.0000 0.57350  0.74140  0.20520  Biso   1.000  H
  H47      1.0000 0.42650  0.24140  0.29480  Biso   1.000  H
  H48      1.0000 0.07350  0.75860  0.79480  Biso   1.000  H
  C33      1.0000 0.99900  0.17830  0.64003  Biso   1.000  C
  C34      1.0000 0.49900  0.17830  0.85997  Biso   1.000  C
  C35      1.0000 0.50100  0.67830  0.64003  Biso   1.000  C
  C36      1.0000 0.99900  0.32170  0.14003  Biso   1.000  C
  C37      1.0000 0.00100  0.82170  0.35997  Biso   1.000  C
  C38      1.0000 0.50100  0.82170  0.14003  Biso   1.000  C
  C39      1.0000 0.49900  0.32170  0.35997  Biso   1.000  C
  C40      1.0000 0.00100  0.67830  0.85997  Biso   1.000  C
  C41      1.0000 0.83330  0.48080  0.67198  Biso   1.000  C
  C42      1.0000 0.33330  0.48080  0.82802  Biso   1.000  C
  C43      1.0000 0.66670  0.98080  0.67198  Biso   1.000  C
  C44      1.0000 0.83330  0.01920  0.17198  Biso   1.000  C
  C45      1.0000 0.16670  0.51920  0.32802  Biso   1.000  C
  C46      1.0000 0.66670  0.51920  0.17198  Biso   1.000  C
  C47      1.0000 0.33330  0.01920  0.32802  Biso   1.000  C
  C48      1.0000 0.16670  0.98080  0.82802  Biso   1.000  C
  H49      1.0000 0.82000  0.39970  0.70090  Biso   1.000  H
  H50      1.0000 0.32000  0.39970  0.79910  Biso   1.000  H
  H51      1.0000 0.68000  0.89970  0.70090  Biso   1.000  H
  H52      1.0000 0.82000  0.10030  0.20090  Biso   1.000  H
  H53      1.0000 0.18000  0.60030  0.29910  Biso   1.000  H
  H54      1.0000 0.68000  0.60030  0.20090  Biso   1.000  H
  H55      1.0000 0.32000  0.10030  0.29910  Biso   1.000  H
  H56      1.0000 0.18000  0.89970  0.79910  Biso   1.000  H
  H57      1.0000 0.84170  0.58840  0.69000  Biso   1.000  H
  H58      1.0000 0.34170  0.58840  0.81000  Biso   1.000  H
  H59      1.0000 0.65830  0.08840  0.69000  Biso   1.000  H
  H60      1.0000 0.84170  0.91160  0.19000  Biso   1.000  H
  H61      1.0000 0.15830  0.41160  0.31000  Biso   1.000  H
  H62      1.0000 0.65830  0.41160  0.19000  Biso   1.000  H
  H63      1.0000 0.34170  0.91160  0.31000  Biso   1.000  H
  H64      1.0000 0.15830  0.08840  0.81000  Biso   1.000  H
  C49      1.0000 0.76300  0.49410  0.63081  Biso   1.000  C
  C50      1.0000 0.26300  0.49410  0.86919  Biso   1.000  C
  C51      1.0000 0.73700  0.99410  0.63081  Biso   1.000  C
  C52      1.0000 0.76300  0.00590  0.13081  Biso   1.000  C
  C53      1.0000 0.23700  0.50590  0.36919  Biso   1.000  C
  C54      1.0000 0.73700  0.50590  0.13081  Biso   1.000  C
  C55      1.0000 0.26300  0.00590  0.36919  Biso   1.000  C
  C56      1.0000 0.23700  0.99410  0.86919  Biso   1.000  C
  C57      1.0000 0.95840  0.57810  0.62135  Biso   1.000  C
  C58      1.0000 0.45840  0.57810  0.87865  Biso   1.000  C
  C59      1.0000 0.54160  0.07810  0.62135  Biso   1.000  C
  C60      1.0000 0.95840  0.92190  0.12135  Biso   1.000  C
  C61      1.0000 0.04160  0.42190  0.37865  Biso   1.000  C
  C62      1.0000 0.54160  0.42190  0.12135  Biso   1.000  C
  C63      1.0000 0.45840  0.92190  0.37865  Biso   1.000  C
  C64      1.0000 0.04160  0.07810  0.87865  Biso   1.000  C
  C65      1.0000 0.90730  0.67910  0.57950  Biso   1.000  C
  C66      1.0000 0.40730  0.67910  0.92050  Biso   1.000  C
  C67      1.0000 0.59270  0.17910  0.57950  Biso   1.000  C
  C68      1.0000 0.90730  0.82090  0.07950  Biso   1.000  C
  C69      1.0000 0.09270  0.32090  0.42050  Biso   1.000  C
  C70      1.0000 0.59270  0.32090  0.07950  Biso   1.000  C
  C71      1.0000 0.40730  0.82090  0.42050  Biso   1.000  C
  C72      1.0000 0.09270  0.17910  0.92050  Biso   1.000  C
  H65      1.0000 0.89050  0.60780  0.54920  Biso   1.000  H
  H66      1.0000 0.39050  0.60780  0.95080  Biso   1.000  H
  H67      1.0000 0.60950  0.10780  0.54920  Biso   1.000  H
  H68      1.0000 0.89050  0.89220  0.04920  Biso   1.000  H
  H69      1.0000 0.10950  0.39220  0.45080  Biso   1.000  H
  H70      1.0000 0.60950  0.39220  0.04920  Biso   1.000  H
  H71      1.0000 0.39050  0.89220  0.45080  Biso   1.000  H
  H72      1.0000 0.10950  0.10780  0.95080  Biso   1.000  H
  H73      1.0000 0.86040  0.72270  0.59840  Biso   1.000  H
  H74      1.0000 0.36040  0.72270  0.90160  Biso   1.000  H
  H75      1.0000 0.63960  0.22270  0.59840  Biso   1.000  H
  H76      1.0000 0.86040  0.77730  0.09840  Biso   1.000  H
  H77      1.0000 0.13960  0.27730  0.40160  Biso   1.000  H
  H78      1.0000 0.63960  0.27730  0.09840  Biso   1.000  H
  H79      1.0000 0.36040  0.77730  0.40160  Biso   1.000  H
  H80      1.0000 0.13960  0.22270  0.90160  Biso   1.000  H
  H81      1.0000 0.93900  0.77010  0.56490  Biso   1.000  H
  H82      1.0000 0.43900  0.77010  0.93510  Biso   1.000  H
  H83      1.0000 0.56100  0.27010  0.56490  Biso   1.000  H
  H84      1.0000 0.93900  0.72990  0.06490  Biso   1.000  H
  H85      1.0000 0.06100  0.22990  0.43510  Biso   1.000  H
  H86      1.0000 0.56100  0.22990  0.06490  Biso   1.000  H
  H87      1.0000 0.43900  0.72990  0.43510  Biso   1.000  H
  H88      1.0000 0.06100  0.27010  0.93510  Biso   1.000  H
  C73      1.0000 0.03360  0.51480  0.59020  Biso   1.000  C
  C74      1.0000 0.53360  0.51480  0.90980  Biso   1.000  C
  C75      1.0000 0.46640  0.01480  0.59020  Biso   1.000  C
  C76      1.0000 0.03360  0.98520  0.09020  Biso   1.000  C
  C77      1.0000 0.96640  0.48520  0.40980  Biso   1.000  C
  C78      1.0000 0.46640  0.48520  0.09020  Biso   1.000  C
  C79      1.0000 0.53360  0.98520  0.40980  Biso   1.000  C
  C80      1.0000 0.96640  0.01480  0.90980  Biso   1.000  C
  H89      1.0000 0.06960  0.46130  0.61630  Biso   1.000  H
  H90      1.0000 0.56960  0.46130  0.88370  Biso   1.000  H
  H91      1.0000 0.43040  0.96130  0.61630  Biso   1.000  H
  H92      1.0000 0.06960  0.03870  0.11630  Biso   1.000  H
  H93      1.0000 0.93040  0.53870  0.38370  Biso   1.000  H
  H94      1.0000 0.43040  0.53870  0.11630  Biso   1.000  H
  H95      1.0000 0.56960  0.03870  0.38370  Biso   1.000  H
  H96      1.0000 0.93040  0.96130  0.88370  Biso   1.000  H
  H97      1.0000 0.01780  0.43580  0.56180  Biso   1.000  H
  H98      1.0000 0.51780  0.43580  0.93820  Biso   1.000  H
  H99      1.0000 0.48220  0.93580  0.56180  Biso   1.000  H
  H100     1.0000 0.01780  0.06420  0.06180  Biso   1.000  H
  H101     1.0000 0.98220  0.56420  0.43820  Biso   1.000  H
  H102     1.0000 0.48220  0.56420  0.06180  Biso   1.000  H
  H103     1.0000 0.51780  0.06420  0.43820  Biso   1.000  H
  H104     1.0000 0.98220  0.93580  0.93820  Biso   1.000  H
  H105     1.0000 0.06080  0.60780  0.57290  Biso   1.000  H
  H106     1.0000 0.56080  0.60780  0.92710  Biso   1.000  H
  H107     1.0000 0.43920  0.10780  0.57290  Biso   1.000  H
  H108     1.0000 0.06080  0.89220  0.07290  Biso   1.000  H
  H109     1.0000 0.93920  0.39220  0.42710  Biso   1.000  H
  H110     1.0000 0.43920  0.39220  0.07290  Biso   1.000  H
  H111     1.0000 0.56080  0.89220  0.42710  Biso   1.000  H
  H112     1.0000 0.93920  0.10780  0.92710  Biso   1.000  H
  C81      1.0000 0.98510  0.69110  0.67020  Biso   1.000  C
  C82      1.0000 0.48510  0.69110  0.82980  Biso   1.000  C
  C83      1.0000 0.51490  0.19110  0.67020  Biso   1.000  C
  C84      1.0000 0.98510  0.80890  0.17020  Biso   1.000  C
  C85      1.0000 0.01490  0.30890  0.32980  Biso   1.000  C
  C86      1.0000 0.51490  0.30890  0.17020  Biso   1.000  C
  C87      1.0000 0.48510  0.80890  0.32980  Biso   1.000  C
  C88      1.0000 0.01490  0.19110  0.82980  Biso   1.000  C
  H113     1.0000 0.93810  0.73670  0.68840  Biso   1.000  H
  H114     1.0000 0.43810  0.73670  0.81160  Biso   1.000  H
  H115     1.0000 0.56190  0.23670  0.68840  Biso   1.000  H
  H116     1.0000 0.93810  0.76330  0.18840  Biso   1.000  H
  H117     1.0000 0.06190  0.26330  0.31160  Biso   1.000  H
  H118     1.0000 0.56190  0.26330  0.18840  Biso   1.000  H
  H119     1.0000 0.43810  0.76330  0.31160  Biso   1.000  H
  H120     1.0000 0.06190  0.23670  0.81160  Biso   1.000  H
  H121     1.0000 0.01580  0.62650  0.69680  Biso   1.000  H
  H122     1.0000 0.51580  0.62650  0.80320  Biso   1.000  H
  H123     1.0000 0.48420  0.12650  0.69680  Biso   1.000  H
  H124     1.0000 0.01580  0.87350  0.19680  Biso   1.000  H
  H125     1.0000 0.98420  0.37350  0.30320  Biso   1.000  H
  H126     1.0000 0.48420  0.37350  0.19680  Biso   1.000  H
  H127     1.0000 0.51580  0.87350  0.30320  Biso   1.000  H
  H128     1.0000 0.98420  0.12650  0.80320  Biso   1.000  H
  H129     1.0000 0.01800  0.78080  0.65600  Biso   1.000  H
  H130     1.0000 0.51800  0.78080  0.84400  Biso   1.000  H
  H131     1.0000 0.48200  0.28080  0.65600  Biso   1.000  H
  H132     1.0000 0.01800  0.71920  0.15600  Biso   1.000  H
  H133     1.0000 0.98200  0.21920  0.34400  Biso   1.000  H
  H134     1.0000 0.48200  0.21920  0.15600  Biso   1.000  H
  H135     1.0000 0.51800  0.71920  0.34400  Biso   1.000  H
  H136     1.0000 0.98200  0.28080  0.84400  Biso   1.000  H
  O33      1.0000 0.82840  0.07750  0.75913  Biso   1.000  O
  O34      1.0000 0.32840  0.07750  0.74087  Biso   1.000  O
  O35      1.0000 0.67160  0.57750  0.75913  Biso   1.000  O
  O36      1.0000 0.82840  0.42250  0.25913  Biso   1.000  O
  O37      1.0000 0.17160  0.92250  0.24087  Biso   1.000  O
  O38      1.0000 0.67160  0.92250  0.25913  Biso   1.000  O
  O39      1.0000 0.32840  0.42250  0.24087  Biso   1.000  O
  O40      1.0000 0.17160  0.57750  0.74087  Biso   1.000  O
  H137     1.0000 0.78600  0.15250  0.77860  Biso   1.000  H
  H138     1.0000 0.28600  0.15250  0.72140  Biso   1.000  H
  H139     1.0000 0.71400  0.65250  0.77860  Biso   1.000  H
  H140     1.0000 0.78600  0.34750  0.27860  Biso   1.000  H
  H141     1.0000 0.21400  0.84750  0.22140  Biso   1.000  H
  H142     1.0000 0.71400  0.84750  0.27860  Biso   1.000  H
  H143     1.0000 0.28600  0.34750  0.22140  Biso   1.000  H
  H144     1.0000 0.21400  0.65250  0.72140  Biso   1.000  H
  H145     1.0000 0.79710  0.95250  0.75180  Biso   1.000  H
  H146     1.0000 0.29710  0.95250  0.74820  Biso   1.000  H
  H147     1.0000 0.70290  0.45250  0.75180  Biso   1.000  H
  H148     1.0000 0.79710  0.54750  0.25180  Biso   1.000  H
  H149     1.0000 0.20290  0.04750  0.24820  Biso   1.000  H
  H150     1.0000 0.70290  0.04750  0.25180  Biso   1.000  H
  H151     1.0000 0.29710  0.54750  0.24820  Biso   1.000  H
  H152     1.0000 0.20290  0.45250  0.74820  Biso   1.000  H
  O41      1.0000 0.69630  0.25630  0.79451  Biso   1.000  O
  O42      1.0000 0.19630  0.25630  0.70549  Biso   1.000  O
  O43      1.0000 0.80370  0.75630  0.79451  Biso   1.000  O
  O44      1.0000 0.69630  0.24370  0.29451  Biso   1.000  O
  O45      1.0000 0.30370  0.74370  0.20549  Biso   1.000  O
  O46      1.0000 0.80370  0.74370  0.29451  Biso   1.000  O
  O47      1.0000 0.19630  0.24370  0.20549  Biso   1.000  O
  O48      1.0000 0.30370  0.75630  0.70549  Biso   1.000  O
  H153     1.0000 0.66120  0.20620  0.78130  Biso   1.000  H
  H154     1.0000 0.16120  0.20620  0.71870  Biso   1.000  H
  H155     1.0000 0.83880  0.70620  0.78130  Biso   1.000  H
  H156     1.0000 0.66120  0.29380  0.28130  Biso   1.000  H
  H157     1.0000 0.33880  0.79380  0.21870  Biso   1.000  H
  H158     1.0000 0.83880  0.79380  0.28130  Biso   1.000  H
  H159     1.0000 0.16120  0.29380  0.21870  Biso   1.000  H
  H160     1.0000 0.33880  0.70620  0.71870  Biso   1.000  H
  H161     1.0000 0.67920  0.32020  0.81710  Biso   1.000  H
  H162     1.0000 0.17920  0.32020  0.68290  Biso   1.000  H
  H163     1.0000 0.82080  0.82020  0.81710  Biso   1.000  H
  H164     1.0000 0.67920  0.17980  0.31710  Biso   1.000  H
  H165     1.0000 0.32080  0.67980  0.18290  Biso   1.000  H
  H166     1.0000 0.82080  0.67980  0.31710  Biso   1.000  H
  H167     1.0000 0.17920  0.17980  0.18290  Biso   1.000  H
  H168     1.0000 0.32080  0.82020  0.68290  Biso   1.000  H
