data_image0
_cell_length_a       25.0574
_cell_length_b       6.8244
_cell_length_c       24.2133
_cell_angle_alpha    90
_cell_angle_beta     116.8
_cell_angle_gamma    90

_symmetry_space_group_name_H-M    "P 1"
_symmetry_int_tables_number       1

loop_
  _symmetry_equiv_pos_as_xyz
  'x, y, z'

loop_
  _atom_site_label
  _atom_site_occupancy
  _atom_site_fract_x
  _atom_site_fract_y
  _atom_site_fract_z
  _atom_site_thermal_displace_type
  _atom_site_B_iso_or_equiv
  _atom_site_type_symbol
  Cu1      1.0000 0.18408  0.32646  0.65914  Biso   1.000  Cu
  Cu2      1.0000 0.81592  0.32646  0.84086  Biso   1.000  Cu
  Cu3      1.0000 0.68408  0.82646  0.65914  Biso   1.000  Cu
  Cu4      1.0000 0.31592  0.82646  0.84086  Biso   1.000  Cu
  Cu5      1.0000 0.81592  0.67354  0.34086  Biso   1.000  Cu
  Cu6      1.0000 0.18408  0.67354  0.15914  Biso   1.000  Cu
  Cu7      1.0000 0.31592  0.17354  0.34086  Biso   1.000  Cu
  Cu8      1.0000 0.68408  0.17354  0.15914  Biso   1.000  Cu
  C1       1.0000 0.23724  0.45130  0.77892  Biso   1.000  C
  C2       1.0000 0.76276  0.45130  0.72108  Biso   1.000  C
  C3       1.0000 0.73724  0.95130  0.77892  Biso   1.000  C
  C4       1.0000 0.26276  0.95130  0.72108  Biso   1.000  C
  C5       1.0000 0.76276  0.54870  0.22108  Biso   1.000  C
  C6       1.0000 0.23724  0.54870  0.27892  Biso   1.000  C
  C7       1.0000 0.26276  0.04870  0.22108  Biso   1.000  C
  C8       1.0000 0.73724  0.04870  0.27892  Biso   1.000  C
  C9       1.0000 0.17976  0.34740  0.76898  Biso   1.000  C
  C10      1.0000 0.82024  0.34740  0.73102  Biso   1.000  C
  C11      1.0000 0.67976  0.84740  0.76898  Biso   1.000  C
  C12      1.0000 0.32024  0.84740  0.73102  Biso   1.000  C
  C13      1.0000 0.82024  0.65260  0.23102  Biso   1.000  C
  C14      1.0000 0.17976  0.65260  0.26898  Biso   1.000  C
  C15      1.0000 0.32024  0.15260  0.23102  Biso   1.000  C
  C16      1.0000 0.67976  0.15260  0.26898  Biso   1.000  C
  O1       1.0000 0.24823  0.44730  0.73257  Biso   1.000  O
  O2       1.0000 0.75177  0.44730  0.76743  Biso   1.000  O
  O3       1.0000 0.74823  0.94730  0.73257  Biso   1.000  O
  O4       1.0000 0.25177  0.94730  0.76743  Biso   1.000  O
  O5       1.0000 0.75177  0.55270  0.26743  Biso   1.000  O
  O6       1.0000 0.24823  0.55270  0.23257  Biso   1.000  O
  O7       1.0000 0.25177  0.05270  0.26743  Biso   1.000  O
  O8       1.0000 0.74823  0.05270  0.23257  Biso   1.000  O
  O9       1.0000 0.26829  0.53170  0.82884  Biso   1.000  O
  O10      1.0000 0.73171  0.53170  0.67116  Biso   1.000  O
  O11      1.0000 0.76829  0.03170  0.82884  Biso   1.000  O
  O12      1.0000 0.23171  0.03170  0.67116  Biso   1.000  O
  O13      1.0000 0.73171  0.46830  0.17116  Biso   1.000  O
  O14      1.0000 0.26829  0.46830  0.32884  Biso   1.000  O
  O15      1.0000 0.23171  0.96830  0.17116  Biso   1.000  O
  O16      1.0000 0.76829  0.96830  0.32884  Biso   1.000  O
  O17      1.0000 0.16660  0.33460  0.81184  Biso   1.000  O
  O18      1.0000 0.83340  0.33460  0.68816  Biso   1.000  O
  O19      1.0000 0.66660  0.83460  0.81184  Biso   1.000  O
  O20      1.0000 0.33340  0.83460  0.68816  Biso   1.000  O
  O21      1.0000 0.83340  0.66540  0.18816  Biso   1.000  O
  O22      1.0000 0.16660  0.66540  0.31184  Biso   1.000  O
  O23      1.0000 0.33340  0.16540  0.18816  Biso   1.000  O
  O24      1.0000 0.66660  0.16540  0.31184  Biso   1.000  O
  O25      1.0000 0.14864  0.28200  0.71464  Biso   1.000  O
  O26      1.0000 0.85136  0.28200  0.78536  Biso   1.000  O
  O27      1.0000 0.64864  0.78200  0.71464  Biso   1.000  O
  O28      1.0000 0.35136  0.78200  0.78536  Biso   1.000  O
  O29      1.0000 0.85136  0.71800  0.28536  Biso   1.000  O
  O30      1.0000 0.14864  0.71800  0.21464  Biso   1.000  O
  O31      1.0000 0.35136  0.21800  0.28536  Biso   1.000  O
  O32      1.0000 0.64864  0.21800  0.21464  Biso   1.000  O
  N1       1.0000 0.28414  0.41650  0.56512  Biso   1.000  N
  N2       1.0000 0.71586  0.41650  0.93488  Biso   1.000  N
  N3       1.0000 0.78414  0.91650  0.56512  Biso   1.000  N
  N4       1.0000 0.21586  0.91650  0.93488  Biso   1.000  N
  N5       1.0000 0.71586  0.58350  0.43488  Biso   1.000  N
  N6       1.0000 0.28414  0.58350  0.06512  Biso   1.000  N
  N7       1.0000 0.21586  0.08350  0.43488  Biso   1.000  N
  N8       1.0000 0.78414  0.08350  0.06512  Biso   1.000  N
  C17      1.0000 0.27386  0.37980  0.61244  Biso   1.000  C
  C18      1.0000 0.72614  0.37980  0.88756  Biso   1.000  C
  C19      1.0000 0.77386  0.87980  0.61244  Biso   1.000  C
  C20      1.0000 0.22614  0.87980  0.88756  Biso   1.000  C
  C21      1.0000 0.72614  0.62020  0.38756  Biso   1.000  C
  C22      1.0000 0.27386  0.62020  0.11244  Biso   1.000  C
  C23      1.0000 0.22614  0.12020  0.38756  Biso   1.000  C
  C24      1.0000 0.77386  0.12020  0.11244  Biso   1.000  C
  H1       1.0000 0.30250  0.32050  0.64810  Biso   1.000  H
  H2       1.0000 0.69750  0.32050  0.85190  Biso   1.000  H
  H3       1.0000 0.80250  0.82050  0.64810  Biso   1.000  H
  H4       1.0000 0.19750  0.82050  0.85190  Biso   1.000  H
  H5       1.0000 0.69750  0.67950  0.35190  Biso   1.000  H
  H6       1.0000 0.30250  0.67950  0.14810  Biso   1.000  H
  H7       1.0000 0.19750  0.17950  0.35190  Biso   1.000  H
  H8       1.0000 0.80250  0.17950  0.14810  Biso   1.000  H
  N9       1.0000 0.21950  0.43210  0.60705  Biso   1.000  N
  N10      1.0000 0.78050  0.43210  0.89295  Biso   1.000  N
  N11      1.0000 0.71950  0.93210  0.60705  Biso   1.000  N
  N12      1.0000 0.28050  0.93210  0.89295  Biso   1.000  N
  N13      1.0000 0.78050  0.56790  0.39295  Biso   1.000  N
  N14      1.0000 0.21950  0.56790  0.10705  Biso   1.000  N
  N15      1.0000 0.28050  0.06790  0.39295  Biso   1.000  N
  N16      1.0000 0.71950  0.06790  0.10705  Biso   1.000  N
  C25      1.0000 0.19214  0.51330  0.55067  Biso   1.000  C
  C26      1.0000 0.80786  0.51330  0.94933  Biso   1.000  C
  C27      1.0000 0.69214  0.01330  0.55067  Biso   1.000  C
  C28      1.0000 0.30786  0.01330  0.94933  Biso   1.000  C
  C29      1.0000 0.80786  0.48670  0.44933  Biso   1.000  C
  C30      1.0000 0.19214  0.48670  0.05067  Biso   1.000  C
  C31      1.0000 0.30786  0.98670  0.44933  Biso   1.000  C
  C32      1.0000 0.69214  0.98670  0.05067  Biso   1.000  C
  N17      1.0000 0.13843  0.59370  0.52269  Biso   1.000  N
  N18      1.0000 0.86157  0.59370  0.97731  Biso   1.000  N
  N19      1.0000 0.63843  0.09370  0.52269  Biso   1.000  N
  N20      1.0000 0.36157  0.09370  0.97731  Biso   1.000  N
  N21      1.0000 0.86157  0.40630  0.47731  Biso   1.000  N
  N22      1.0000 0.13843  0.40630  0.02269  Biso   1.000  N
  N23      1.0000 0.36157  0.90630  0.47731  Biso   1.000  N
  N24      1.0000 0.63843  0.90630  0.02269  Biso   1.000  N
  C33      1.0000 0.12341  0.64980  0.46454  Biso   1.000  C
  C34      1.0000 0.87659  0.64980  0.03546  Biso   1.000  C
  C35      1.0000 0.62341  0.14980  0.46454  Biso   1.000  C
  C36      1.0000 0.37659  0.14980  0.03546  Biso   1.000  C
  C37      1.0000 0.87659  0.35020  0.53546  Biso   1.000  C
  C38      1.0000 0.12341  0.35020  0.96454  Biso   1.000  C
  C39      1.0000 0.37659  0.85020  0.53546  Biso   1.000  C
  C40      1.0000 0.62341  0.85020  0.96454  Biso   1.000  C
  H9       1.0000 0.08580  0.70570  0.44230  Biso   1.000  H
  H10      1.0000 0.91420  0.70570  0.05770  Biso   1.000  H
  H11      1.0000 0.58580  0.20570  0.44230  Biso   1.000  H
  H12      1.0000 0.41420  0.20570  0.05770  Biso   1.000  H
  H13      1.0000 0.91420  0.29430  0.55770  Biso   1.000  H
  H14      1.0000 0.08580  0.29430  0.94230  Biso   1.000  H
  H15      1.0000 0.41420  0.79430  0.55770  Biso   1.000  H
  H16      1.0000 0.58580  0.79430  0.94230  Biso   1.000  H
  C41      1.0000 0.15883  0.63180  0.43473  Biso   1.000  C
  C42      1.0000 0.84117  0.63180  0.06527  Biso   1.000  C
  C43      1.0000 0.65883  0.13180  0.43473  Biso   1.000  C
  C44      1.0000 0.34117  0.13180  0.06527  Biso   1.000  C
  C45      1.0000 0.84117  0.36820  0.56527  Biso   1.000  C
  C46      1.0000 0.15883  0.36820  0.93473  Biso   1.000  C
  C47      1.0000 0.34117  0.86820  0.56527  Biso   1.000  C
  C48      1.0000 0.65883  0.86820  0.93473  Biso   1.000  C
  H17      1.0000 0.14420  0.67020  0.39360  Biso   1.000  H
  H18      1.0000 0.85580  0.67020  0.10640  Biso   1.000  H
  H19      1.0000 0.64420  0.17020  0.39360  Biso   1.000  H
  H20      1.0000 0.35580  0.17020  0.10640  Biso   1.000  H
  H21      1.0000 0.85580  0.32980  0.60640  Biso   1.000  H
  H22      1.0000 0.14420  0.32980  0.89360  Biso   1.000  H
  H23      1.0000 0.35580  0.82980  0.60640  Biso   1.000  H
  H24      1.0000 0.64420  0.82980  0.89360  Biso   1.000  H
  C49      1.0000 0.21595  0.55690  0.46570  Biso   1.000  C
  C50      1.0000 0.78405  0.55690  0.03430  Biso   1.000  C
  C51      1.0000 0.71595  0.05690  0.46570  Biso   1.000  C
  C52      1.0000 0.28405  0.05690  0.03430  Biso   1.000  C
  C53      1.0000 0.78405  0.44310  0.53430  Biso   1.000  C
  C54      1.0000 0.21595  0.44310  0.96570  Biso   1.000  C
  C55      1.0000 0.28405  0.94310  0.53430  Biso   1.000  C
  C56      1.0000 0.71595  0.94310  0.96570  Biso   1.000  C
  N25      1.0000 0.25609  0.53920  0.44444  Biso   1.000  N
  N26      1.0000 0.74391  0.53920  0.05556  Biso   1.000  N
  N27      1.0000 0.75609  0.03920  0.44444  Biso   1.000  N
  N28      1.0000 0.24391  0.03920  0.05556  Biso   1.000  N
  N29      1.0000 0.74391  0.46080  0.55556  Biso   1.000  N
  N30      1.0000 0.25609  0.46080  0.94444  Biso   1.000  N
  N31      1.0000 0.24391  0.96080  0.55556  Biso   1.000  N
  N32      1.0000 0.75609  0.96080  0.94444  Biso   1.000  N
  H25      1.0000 0.29090  0.49180  0.46780  Biso   1.000  H
  H26      1.0000 0.70910  0.49180  0.03220  Biso   1.000  H
  H27      1.0000 0.79090  0.99180  0.46780  Biso   1.000  H
  H28      1.0000 0.20910  0.99180  0.03220  Biso   1.000  H
  H29      1.0000 0.70910  0.50820  0.53220  Biso   1.000  H
  H30      1.0000 0.29090  0.50820  0.96780  Biso   1.000  H
  H31      1.0000 0.20910  0.00820  0.53220  Biso   1.000  H
  H32      1.0000 0.79090  0.00820  0.96780  Biso   1.000  H
  H33      1.0000 0.24730  0.57510  0.40730  Biso   1.000  H
  H34      1.0000 0.75270  0.57510  0.09270  Biso   1.000  H
  H35      1.0000 0.74730  0.07510  0.40730  Biso   1.000  H
  H36      1.0000 0.25270  0.07510  0.09270  Biso   1.000  H
  H37      1.0000 0.75270  0.42490  0.59270  Biso   1.000  H
  H38      1.0000 0.24730  0.42490  0.90730  Biso   1.000  H
  H39      1.0000 0.25270  0.92490  0.59270  Biso   1.000  H
  H40      1.0000 0.74730  0.92490  0.90730  Biso   1.000  H
  N33      1.0000 0.23079  0.49920  0.52454  Biso   1.000  N
  N34      1.0000 0.76921  0.49920  0.97546  Biso   1.000  N
  N35      1.0000 0.73079  0.99920  0.52454  Biso   1.000  N
  N36      1.0000 0.26921  0.99920  0.97546  Biso   1.000  N
  N37      1.0000 0.76921  0.50080  0.47546  Biso   1.000  N
  N38      1.0000 0.23079  0.50080  0.02454  Biso   1.000  N
  N39      1.0000 0.26921  0.00080  0.47546  Biso   1.000  N
  N40      1.0000 0.73079  0.00080  0.02454  Biso   1.000  N
  N41      1.0000 0.00523  0.28650  0.54066  Biso   1.000  N
  N42      1.0000 0.99477  0.28650  0.95934  Biso   1.000  N
  N43      1.0000 0.50523  0.78650  0.54066  Biso   1.000  N
  N44      1.0000 0.49477  0.78650  0.95934  Biso   1.000  N
  N45      1.0000 0.99477  0.71350  0.45934  Biso   1.000  N
  N46      1.0000 0.00523  0.71350  0.04066  Biso   1.000  N
  N47      1.0000 0.49477  0.21350  0.45934  Biso   1.000  N
  N48      1.0000 0.50523  0.21350  0.04066  Biso   1.000  N
  C57      1.0000 0.05470  0.29580  0.59241  Biso   1.000  C
  C58      1.0000 0.94530  0.29580  0.90759  Biso   1.000  C
  C59      1.0000 0.55470  0.79580  0.59241  Biso   1.000  C
  C60      1.0000 0.44530  0.79580  0.90759  Biso   1.000  C
  C61      1.0000 0.94530  0.70420  0.40759  Biso   1.000  C
  C62      1.0000 0.05470  0.70420  0.09241  Biso   1.000  C
  C63      1.0000 0.44530  0.20420  0.40759  Biso   1.000  C
  C64      1.0000 0.55470  0.20420  0.09241  Biso   1.000  C
  H41      1.0000 0.05460  0.33020  0.62950  Biso   1.000  H
  H42      1.0000 0.94540  0.33020  0.87050  Biso   1.000  H
  H43      1.0000 0.55460  0.83020  0.62950  Biso   1.000  H
  H44      1.0000 0.44540  0.83020  0.87050  Biso   1.000  H
  H45      1.0000 0.94540  0.66980  0.37050  Biso   1.000  H
  H46      1.0000 0.05460  0.66980  0.12950  Biso   1.000  H
  H47      1.0000 0.44540  0.16980  0.37050  Biso   1.000  H
  H48      1.0000 0.55460  0.16980  0.12950  Biso   1.000  H
  N49      1.0000 0.10589  0.25320  0.58939  Biso   1.000  N
  N50      1.0000 0.89411  0.25320  0.91061  Biso   1.000  N
  N51      1.0000 0.60589  0.75320  0.58939  Biso   1.000  N
  N52      1.0000 0.39411  0.75320  0.91061  Biso   1.000  N
  N53      1.0000 0.89411  0.74680  0.41061  Biso   1.000  N
  N54      1.0000 0.10589  0.74680  0.08939  Biso   1.000  N
  N55      1.0000 0.39411  0.24680  0.41061  Biso   1.000  N
  N56      1.0000 0.60589  0.24680  0.08939  Biso   1.000  N
  C65      1.0000 0.08790  0.20980  0.52956  Biso   1.000  C
  C66      1.0000 0.91210  0.20980  0.97044  Biso   1.000  C
  C67      1.0000 0.58790  0.70980  0.52956  Biso   1.000  C
  C68      1.0000 0.41210  0.70980  0.97044  Biso   1.000  C
  C69      1.0000 0.91210  0.79020  0.47044  Biso   1.000  C
  C70      1.0000 0.08790  0.79020  0.02956  Biso   1.000  C
  C71      1.0000 0.41210  0.29020  0.47044  Biso   1.000  C
  C72      1.0000 0.58790  0.29020  0.02956  Biso   1.000  C
  N57      1.0000 0.11930  0.15420  0.50042  Biso   1.000  N
  N58      1.0000 0.88070  0.15420  0.99958  Biso   1.000  N
  N59      1.0000 0.61930  0.65420  0.50042  Biso   1.000  N
  N60      1.0000 0.38070  0.65420  0.99958  Biso   1.000  N
  N61      1.0000 0.88070  0.84580  0.49958  Biso   1.000  N
  N62      1.0000 0.11930  0.84580  0.00042  Biso   1.000  N
  N63      1.0000 0.38070  0.34580  0.49958  Biso   1.000  N
  N64      1.0000 0.61930  0.34580  0.00042  Biso   1.000  N
  C73      1.0000 0.08637  0.13370  0.43915  Biso   1.000  C
  C74      1.0000 0.91363  0.13370  0.06085  Biso   1.000  C
  C75      1.0000 0.58637  0.63370  0.43915  Biso   1.000  C
  C76      1.0000 0.41363  0.63370  0.06085  Biso   1.000  C
  C77      1.0000 0.91363  0.86630  0.56085  Biso   1.000  C
  C78      1.0000 0.08637  0.86630  0.93915  Biso   1.000  C
  C79      1.0000 0.41363  0.36630  0.56085  Biso   1.000  C
  C80      1.0000 0.58637  0.36630  0.93915  Biso   1.000  C
  H49      1.0000 0.10680  0.10040  0.41660  Biso   1.000  H
  H50      1.0000 0.89320  0.10040  0.08340  Biso   1.000  H
  H51      1.0000 0.60680  0.60040  0.41660  Biso   1.000  H
  H52      1.0000 0.39320  0.60040  0.08340  Biso   1.000  H
  H53      1.0000 0.89320  0.89960  0.58340  Biso   1.000  H
  H54      1.0000 0.10680  0.89960  0.91660  Biso   1.000  H
  H55      1.0000 0.39320  0.39960  0.58340  Biso   1.000  H
  H56      1.0000 0.60680  0.39960  0.91660  Biso   1.000  H
  C81      1.0000 0.02554  0.15680  0.40631  Biso   1.000  C
  C82      1.0000 0.97446  0.15680  0.09369  Biso   1.000  C
  C83      1.0000 0.52554  0.65680  0.40631  Biso   1.000  C
  C84      1.0000 0.47446  0.65680  0.09369  Biso   1.000  C
  C85      1.0000 0.97446  0.84320  0.59369  Biso   1.000  C
  C86      1.0000 0.02554  0.84320  0.90631  Biso   1.000  C
  C87      1.0000 0.47446  0.34320  0.59369  Biso   1.000  C
  C88      1.0000 0.52554  0.34320  0.90631  Biso   1.000  C
  H57      1.0000 0.00660  0.13930  0.36360  Biso   1.000  H
  H58      1.0000 0.99340  0.13930  0.13640  Biso   1.000  H
  H59      1.0000 0.50660  0.63930  0.36360  Biso   1.000  H
  H60      1.0000 0.49340  0.63930  0.13640  Biso   1.000  H
  H61      1.0000 0.99340  0.86070  0.63640  Biso   1.000  H
  H62      1.0000 0.00660  0.86070  0.86360  Biso   1.000  H
  H63      1.0000 0.49340  0.36070  0.63640  Biso   1.000  H
  H64      1.0000 0.50660  0.36070  0.86360  Biso   1.000  H
  C89      1.0000 0.99254  0.20710  0.43790  Biso   1.000  C
  C90      1.0000 0.00746  0.20710  0.06210  Biso   1.000  C
  C91      1.0000 0.49254  0.70710  0.43790  Biso   1.000  C
  C92      1.0000 0.50746  0.70710  0.06210  Biso   1.000  C
  C93      1.0000 0.00746  0.79290  0.56210  Biso   1.000  C
  C94      1.0000 0.99254  0.79290  0.93790  Biso   1.000  C
  C95      1.0000 0.50746  0.29290  0.56210  Biso   1.000  C
  C96      1.0000 0.49254  0.29290  0.93790  Biso   1.000  C
  N65      1.0000 0.93432  0.23200  0.41484  Biso   1.000  N
  N66      1.0000 0.06568  0.23200  0.08516  Biso   1.000  N
  N67      1.0000 0.43432  0.73200  0.41484  Biso   1.000  N
  N68      1.0000 0.56568  0.73200  0.08516  Biso   1.000  N
  N69      1.0000 0.06568  0.76800  0.58516  Biso   1.000  N
  N70      1.0000 0.93432  0.76800  0.91484  Biso   1.000  N
  N71      1.0000 0.56568  0.26800  0.58516  Biso   1.000  N
  N72      1.0000 0.43432  0.26800  0.91484  Biso   1.000  N
  H65      1.0000 0.91870  0.26300  0.43880  Biso   1.000  H
  H66      1.0000 0.08130  0.26300  0.06120  Biso   1.000  H
  H67      1.0000 0.41870  0.76300  0.43880  Biso   1.000  H
  H68      1.0000 0.58130  0.76300  0.06120  Biso   1.000  H
  H69      1.0000 0.08130  0.73700  0.56120  Biso   1.000  H
  H70      1.0000 0.91870  0.73700  0.93880  Biso   1.000  H
  H71      1.0000 0.58130  0.23700  0.56120  Biso   1.000  H
  H72      1.0000 0.41870  0.23700  0.93880  Biso   1.000  H
  H73      1.0000 0.91190  0.21710  0.37580  Biso   1.000  H
  H74      1.0000 0.08810  0.21710  0.12420  Biso   1.000  H
  H75      1.0000 0.41190  0.71710  0.37580  Biso   1.000  H
  H76      1.0000 0.58810  0.71710  0.12420  Biso   1.000  H
  H77      1.0000 0.08810  0.78290  0.62420  Biso   1.000  H
  H78      1.0000 0.91190  0.78290  0.87580  Biso   1.000  H
  H79      1.0000 0.58810  0.28290  0.62420  Biso   1.000  H
  H80      1.0000 0.41190  0.28290  0.87580  Biso   1.000  H
  N73      1.0000 0.02695  0.23160  0.49997  Biso   1.000  N
  N74      1.0000 0.97305  0.23160  0.00003  Biso   1.000  N
  N75      1.0000 0.52695  0.73160  0.49997  Biso   1.000  N
  N76      1.0000 0.47305  0.73160  0.00003  Biso   1.000  N
  N77      1.0000 0.97305  0.76840  0.50003  Biso   1.000  N
  N78      1.0000 0.02695  0.76840  0.99997  Biso   1.000  N
  N79      1.0000 0.47305  0.26840  0.50003  Biso   1.000  N
  N80      1.0000 0.52695  0.26840  0.99997  Biso   1.000  N
  O33      1.0000 0.12748  0.83470  0.71639  Biso   1.000  O
  O34      1.0000 0.87252  0.83470  0.78361  Biso   1.000  O
  O35      1.0000 0.62748  0.33470  0.71639  Biso   1.000  O
  O36      1.0000 0.37252  0.33470  0.78361  Biso   1.000  O
  O37      1.0000 0.87252  0.16530  0.28361  Biso   1.000  O
  O38      1.0000 0.12748  0.16530  0.21639  Biso   1.000  O
  O39      1.0000 0.37252  0.66530  0.28361  Biso   1.000  O
  O40      1.0000 0.62748  0.66530  0.21639  Biso   1.000  O
  O41      1.0000 0.06100  0.33310  0.27650  Biso   1.000  O
  O42      1.0000 0.93900  0.33310  0.22350  Biso   1.000  O
  O43      1.0000 0.56100  0.83310  0.27650  Biso   1.000  O
  O44      1.0000 0.43900  0.83310  0.22350  Biso   1.000  O
  O45      1.0000 0.93900  0.66690  0.72350  Biso   1.000  O
  O46      1.0000 0.06100  0.66690  0.77650  Biso   1.000  O
  O47      1.0000 0.43900  0.16690  0.72350  Biso   1.000  O
  O48      1.0000 0.56100  0.16690  0.77650  Biso   1.000  O
  O49      1.0000 0.43650  0.58950  0.72000  Biso   1.000  O
  O50      1.0000 0.56350  0.58950  0.78000  Biso   1.000  O
  O51      1.0000 0.93650  0.08950  0.72000  Biso   1.000  O
  O52      1.0000 0.06350  0.08950  0.78000  Biso   1.000  O
  O53      1.0000 0.56350  0.41050  0.28000  Biso   1.000  O
  O54      1.0000 0.43650  0.41050  0.22000  Biso   1.000  O
  O55      1.0000 0.06350  0.91050  0.28000  Biso   1.000  O
  O56      1.0000 0.93650  0.91050  0.22000  Biso   1.000  O
