data_image0
_cell_length_a       7.2299
_cell_length_b       11.3987
_cell_length_c       12.7792
_cell_angle_alpha    90
_cell_angle_beta     117.793
_cell_angle_gamma    90

_symmetry_space_group_name_H-M    "P 1"
_symmetry_int_tables_number       1

loop_
  _symmetry_equiv_pos_as_xyz
  'x, y, z'

loop_
  _atom_site_label
  _atom_site_occupancy
  _atom_site_fract_x
  _atom_site_fract_y
  _atom_site_fract_z
  _atom_site_thermal_displace_type
  _atom_site_B_iso_or_equiv
  _atom_site_type_symbol
  Cu1      1.0000 0.50000  0.29669  0.75000  Biso   1.000  Cu
  Cu2      1.0000 0.50000  0.70331  0.25000  Biso   1.000  Cu
  O1       1.0000 0.70900  0.42120  0.83140  Biso   1.000  O
  O2       1.0000 0.29100  0.42120  0.66860  Biso   1.000  O
  O3       1.0000 0.29100  0.57880  0.16860  Biso   1.000  O
  O4       1.0000 0.70900  0.57880  0.33140  Biso   1.000  O
  O5       1.0000 0.75040  0.36520  0.67870  Biso   1.000  O
  O6       1.0000 0.24960  0.36520  0.82130  Biso   1.000  O
  O7       1.0000 0.24960  0.63480  0.32130  Biso   1.000  O
  O8       1.0000 0.75040  0.63480  0.17870  Biso   1.000  O
  N1       1.0000 0.25850  0.02030  0.51510  Biso   1.000  N
  N2       1.0000 0.74150  0.02030  0.98490  Biso   1.000  N
  N3       1.0000 0.74150  0.97970  0.48490  Biso   1.000  N
  N4       1.0000 0.25850  0.97970  0.01510  Biso   1.000  N
  N5       1.0000 0.19680  0.86760  0.38320  Biso   1.000  N
  N6       1.0000 0.80320  0.86760  0.11680  Biso   1.000  N
  N7       1.0000 0.80320  0.13240  0.61680  Biso   1.000  N
  N8       1.0000 0.19680  0.13240  0.88320  Biso   1.000  N
  N9       1.0000 0.33980  0.18190  0.62300  Biso   1.000  N
  N10      1.0000 0.66020  0.18190  0.87700  Biso   1.000  N
  N11      1.0000 0.66020  0.81810  0.37700  Biso   1.000  N
  N12      1.0000 0.33980  0.81810  0.12300  Biso   1.000  N
  C1       1.0000 0.33200  0.19740  0.51340  Biso   1.000  C
  C2       1.0000 0.66800  0.19740  0.98660  Biso   1.000  C
  C3       1.0000 0.66800  0.80260  0.48660  Biso   1.000  C
  C4       1.0000 0.33200  0.80260  0.01340  Biso   1.000  C
  H1       1.0000 0.35980  0.26950  0.48970  Biso   1.000  H
  H2       1.0000 0.64020  0.26950  0.01030  Biso   1.000  H
  H3       1.0000 0.64020  0.73050  0.51030  Biso   1.000  H
  H4       1.0000 0.35980  0.73050  0.98970  Biso   1.000  H
  N13      1.0000 0.26730  0.00570  0.70410  Biso   1.000  N
  N14      1.0000 0.73270  0.00570  0.79590  Biso   1.000  N
  N15      1.0000 0.73270  0.99430  0.29590  Biso   1.000  N
  N16      1.0000 0.26730  0.99430  0.20410  Biso   1.000  N
  N17      1.0000 0.28340  0.10520  0.44540  Biso   1.000  N
  N18      1.0000 0.71660  0.10520  0.05460  Biso   1.000  N
  N19      1.0000 0.71660  0.89480  0.55460  Biso   1.000  N
  N20      1.0000 0.28340  0.89480  0.94540  Biso   1.000  N
  C5       1.0000 0.28970  0.06810  0.62050  Biso   1.000  C
  C6       1.0000 0.71030  0.06810  0.87950  Biso   1.000  C
  C7       1.0000 0.71030  0.93190  0.37950  Biso   1.000  C
  C8       1.0000 0.28970  0.93190  0.12050  Biso   1.000  C
  C9       1.0000 0.79540  0.43470  0.76330  Biso   1.000  C
  C10      1.0000 0.20460  0.43470  0.73670  Biso   1.000  C
  C11      1.0000 0.20460  0.56530  0.23670  Biso   1.000  C
  C12      1.0000 0.79540  0.56530  0.26330  Biso   1.000  C
  C13      1.0000 0.21750  0.90490  0.48690  Biso   1.000  C
  C14      1.0000 0.78250  0.90490  0.01310  Biso   1.000  C
  C15      1.0000 0.78250  0.09510  0.51310  Biso   1.000  C
  C16      1.0000 0.21750  0.09510  0.98690  Biso   1.000  C
  C17      1.0000 0.22680  0.89180  0.67730  Biso   1.000  C
  C18      1.0000 0.77320  0.89180  0.82270  Biso   1.000  C
  C19      1.0000 0.77320  0.10820  0.32270  Biso   1.000  C
  C20      1.0000 0.22680  0.10820  0.17730  Biso   1.000  C
  H5       1.0000 0.21370  0.84480  0.73300  Biso   1.000  H
  H6       1.0000 0.78630  0.84480  0.76700  Biso   1.000  H
  H7       1.0000 0.78630  0.15520  0.26700  Biso   1.000  H
  H8       1.0000 0.21370  0.15520  0.23300  Biso   1.000  H
  C21      1.0000 0.94170  0.53540  0.78700  Biso   1.000  C
  C22      1.0000 0.05830  0.53540  0.71300  Biso   1.000  C
  C23      1.0000 0.05830  0.46460  0.21300  Biso   1.000  C
  C24      1.0000 0.94170  0.46460  0.28700  Biso   1.000  C
  H9       1.0000 0.04360  0.53450  0.87010  Biso   1.000  H
  H10      1.0000 0.95640  0.53450  0.62990  Biso   1.000  H
  H11      1.0000 0.95640  0.46550  0.12990  Biso   1.000  H
  H12      1.0000 0.04360  0.46550  0.37010  Biso   1.000  H
  H13      1.0000 0.86290  0.60780  0.77190  Biso   1.000  H
  H14      1.0000 0.13710  0.60780  0.72810  Biso   1.000  H
  H15      1.0000 0.13710  0.39220  0.22810  Biso   1.000  H
  H16      1.0000 0.86290  0.39220  0.27190  Biso   1.000  H
  C25      1.0000 0.20280  0.83770  0.57560  Biso   1.000  C
  C26      1.0000 0.79720  0.83770  0.92440  Biso   1.000  C
  C27      1.0000 0.79720  0.16230  0.42440  Biso   1.000  C
  C28      1.0000 0.20280  0.16230  0.07560  Biso   1.000  C
  H17      1.0000 0.17700  0.75750  0.56520  Biso   1.000  H
  H18      1.0000 0.82300  0.75750  0.93480  Biso   1.000  H
  H19      1.0000 0.82300  0.24250  0.43480  Biso   1.000  H
  H20      1.0000 0.17700  0.24250  0.06520  Biso   1.000  H
  H21      1.0000 0.16600  0.78400  0.36500  Biso   1.000  H
  H22      1.0000 0.83400  0.78400  0.13500  Biso   1.000  H
  H23      1.0000 0.83400  0.21600  0.63500  Biso   1.000  H
  H24      1.0000 0.16600  0.21600  0.86500  Biso   1.000  H
  H25      1.0000 0.20000  0.93200  0.34400  Biso   1.000  H
  H26      1.0000 0.80000  0.93200  0.15600  Biso   1.000  H
  H27      1.0000 0.80000  0.06800  0.65600  Biso   1.000  H
  H28      1.0000 0.20000  0.06800  0.84400  Biso   1.000  H
  O9       1.0000 0.44300  0.40270  0.07010  Biso   1.000  O
  O10      1.0000 0.55700  0.40270  0.42990  Biso   1.000  O
  O11      1.0000 0.55700  0.59730  0.92990  Biso   1.000  O
  O12      1.0000 0.44300  0.59730  0.57010  Biso   1.000  O
  H29      1.0000 0.42200  0.46000  0.10700  Biso   1.000  H
  H30      1.0000 0.57800  0.46000  0.39300  Biso   1.000  H
  H31      1.0000 0.57800  0.54000  0.89300  Biso   1.000  H
  H32      1.0000 0.42200  0.54000  0.60700  Biso   1.000  H
  H33      1.0000 0.44900  0.32800  0.07600  Biso   1.000  H
  H34      1.0000 0.55100  0.32800  0.42400  Biso   1.000  H
  H35      1.0000 0.55100  0.67200  0.92400  Biso   1.000  H
  H36      1.0000 0.44900  0.67200  0.57600  Biso   1.000  H
