data_image0
_cell_length_a       19.274
_cell_length_b       21.054
_cell_length_c       12.956
_cell_angle_alpha    90
_cell_angle_beta     90
_cell_angle_gamma    90

_symmetry_space_group_name_H-M    "P 1"
_symmetry_int_tables_number       1

loop_
  _symmetry_equiv_pos_as_xyz
  'x, y, z'

loop_
  _atom_site_label
  _atom_site_occupancy
  _atom_site_fract_x
  _atom_site_fract_y
  _atom_site_fract_z
  _atom_site_thermal_displace_type
  _atom_site_B_iso_or_equiv
  _atom_site_type_symbol
  Cu1      1.0000 0.00000  0.50000  0.08531  Biso   1.000  Cu
  Cu2      1.0000 0.50000  0.00000  0.58531  Biso   1.000  Cu
  Cu3      1.0000 0.50000  0.00000  0.08531  Biso   1.000  Cu
  Cu4      1.0000 0.00000  0.50000  0.58531  Biso   1.000  Cu
  Cu5      1.0000 0.29992  0.60846  0.00000  Biso   1.000  Cu
  Cu6      1.0000 0.79992  0.10846  0.50000  Biso   1.000  Cu
  Cu7      1.0000 0.20008  0.10846  0.00000  Biso   1.000  Cu
  Cu8      1.0000 0.70008  0.60846  0.50000  Biso   1.000  Cu
  Cu9      1.0000 0.79992  0.89154  0.00000  Biso   1.000  Cu
  Cu10     1.0000 0.29992  0.39154  0.50000  Biso   1.000  Cu
  Cu11     1.0000 0.70008  0.39154  0.00000  Biso   1.000  Cu
  Cu12     1.0000 0.20008  0.89154  0.50000  Biso   1.000  Cu
  Cu13     1.0000 0.31095  0.60188  0.23781  Biso   1.000  Cu
  Cu14     1.0000 0.81095  0.10188  0.73781  Biso   1.000  Cu
  Cu15     1.0000 0.18905  0.10188  0.23781  Biso   1.000  Cu
  Cu16     1.0000 0.68905  0.60188  0.73781  Biso   1.000  Cu
  Cu17     1.0000 0.81095  0.89812  0.23781  Biso   1.000  Cu
  Cu18     1.0000 0.31095  0.39812  0.73781  Biso   1.000  Cu
  Cu19     1.0000 0.68905  0.39812  0.23781  Biso   1.000  Cu
  Cu20     1.0000 0.18905  0.89812  0.73781  Biso   1.000  Cu
  Cu21     1.0000 0.98850  0.23806  0.05111  Biso   1.000  Cu
  Cu22     1.0000 0.48850  0.73806  0.55111  Biso   1.000  Cu
  Cu23     1.0000 0.51150  0.73806  0.05111  Biso   1.000  Cu
  Cu24     1.0000 0.01150  0.23806  0.55111  Biso   1.000  Cu
  Cu25     1.0000 0.48850  0.26194  0.05111  Biso   1.000  Cu
  Cu26     1.0000 0.98850  0.76194  0.55111  Biso   1.000  Cu
  Cu27     1.0000 0.01150  0.76194  0.05111  Biso   1.000  Cu
  Cu28     1.0000 0.51150  0.26194  0.55111  Biso   1.000  Cu
  O1       1.0000 0.08370  0.26900  0.05440  Biso   1.000  O
  O2       1.0000 0.58370  0.76900  0.55440  Biso   1.000  O
  O3       1.0000 0.41630  0.76900  0.05440  Biso   1.000  O
  O4       1.0000 0.91630  0.26900  0.55440  Biso   1.000  O
  O5       1.0000 0.58370  0.23100  0.05440  Biso   1.000  O
  O6       1.0000 0.08370  0.73100  0.55440  Biso   1.000  O
  O7       1.0000 0.91630  0.73100  0.05440  Biso   1.000  O
  O8       1.0000 0.41630  0.23100  0.55440  Biso   1.000  O
  O9       1.0000 0.05330  0.30770  0.20760  Biso   1.000  O
  O10      1.0000 0.55330  0.80770  0.70760  Biso   1.000  O
  O11      1.0000 0.44670  0.80770  0.20760  Biso   1.000  O
  O12      1.0000 0.94670  0.30770  0.70760  Biso   1.000  O
  O13      1.0000 0.55330  0.19230  0.20760  Biso   1.000  O
  O14      1.0000 0.05330  0.69230  0.70760  Biso   1.000  O
  O15      1.0000 0.94670  0.69230  0.20760  Biso   1.000  O
  O16      1.0000 0.44670  0.19230  0.70760  Biso   1.000  O
  O17      1.0000 0.07560  0.44110  0.08140  Biso   1.000  O
  O18      1.0000 0.57560  0.94110  0.58140  Biso   1.000  O
  O19      1.0000 0.42440  0.94110  0.08140  Biso   1.000  O
  O20      1.0000 0.92440  0.44110  0.58140  Biso   1.000  O
  O21      1.0000 0.57560  0.05890  0.08140  Biso   1.000  O
  O22      1.0000 0.07560  0.55890  0.58140  Biso   1.000  O
  O23      1.0000 0.92440  0.55890  0.08140  Biso   1.000  O
  O24      1.0000 0.42440  0.05890  0.58140  Biso   1.000  O
  O25      1.0000 0.09220  0.45800  0.24790  Biso   1.000  O
  O26      1.0000 0.59220  0.95800  0.74790  Biso   1.000  O
  O27      1.0000 0.40780  0.95800  0.24790  Biso   1.000  O
  O28      1.0000 0.90780  0.45800  0.74790  Biso   1.000  O
  O29      1.0000 0.59220  0.04200  0.24790  Biso   1.000  O
  O30      1.0000 0.09220  0.54200  0.74790  Biso   1.000  O
  O31      1.0000 0.90780  0.54200  0.24790  Biso   1.000  O
  O32      1.0000 0.40780  0.04200  0.74790  Biso   1.000  O
  O33      1.0000 0.29490  0.50900  0.24110  Biso   1.000  O
  O34      1.0000 0.79490  0.00900  0.74110  Biso   1.000  O
  O35      1.0000 0.20510  0.00900  0.24110  Biso   1.000  O
  O36      1.0000 0.70510  0.50900  0.74110  Biso   1.000  O
  O37      1.0000 0.79490  0.99100  0.24110  Biso   1.000  O
  O38      1.0000 0.29490  0.49100  0.74110  Biso   1.000  O
  O39      1.0000 0.70510  0.49100  0.24110  Biso   1.000  O
  O40      1.0000 0.20510  0.99100  0.74110  Biso   1.000  O
  O41      1.0000 0.20910  0.53150  0.13230  Biso   1.000  O
  O42      1.0000 0.70910  0.03150  0.63230  Biso   1.000  O
  O43      1.0000 0.29090  0.03150  0.13230  Biso   1.000  O
  O44      1.0000 0.79090  0.53150  0.63230  Biso   1.000  O
  O45      1.0000 0.70910  0.96850  0.13230  Biso   1.000  O
  O46      1.0000 0.20910  0.46850  0.63230  Biso   1.000  O
  O47      1.0000 0.79090  0.46850  0.13230  Biso   1.000  O
  O48      1.0000 0.29090  0.96850  0.63230  Biso   1.000  O
  O49      1.0000 0.38290  0.45160  0.06850  Biso   1.000  O
  O50      1.0000 0.88290  0.95160  0.56850  Biso   1.000  O
  O51      1.0000 0.11710  0.95160  0.06850  Biso   1.000  O
  O52      1.0000 0.61710  0.45160  0.56850  Biso   1.000  O
  O53      1.0000 0.88290  0.04840  0.06850  Biso   1.000  O
  O54      1.0000 0.38290  0.54840  0.56850  Biso   1.000  O
  O55      1.0000 0.61710  0.54840  0.06850  Biso   1.000  O
  O56      1.0000 0.11710  0.04840  0.56850  Biso   1.000  O
  O57      1.0000 0.41070  0.40210  0.21300  Biso   1.000  O
  O58      1.0000 0.91070  0.90210  0.71300  Biso   1.000  O
  O59      1.0000 0.08930  0.90210  0.21300  Biso   1.000  O
  O60      1.0000 0.58930  0.40210  0.71300  Biso   1.000  O
  O61      1.0000 0.91070  0.09790  0.21300  Biso   1.000  O
  O62      1.0000 0.41070  0.59790  0.71300  Biso   1.000  O
  O63      1.0000 0.58930  0.59790  0.21300  Biso   1.000  O
  O64      1.0000 0.08930  0.09790  0.71300  Biso   1.000  O
  O65      1.0000 0.89690  0.20220  0.05640  Biso   1.000  O
  O66      1.0000 0.39690  0.70220  0.55640  Biso   1.000  O
  O67      1.0000 0.60310  0.70220  0.05640  Biso   1.000  O
  O68      1.0000 0.10310  0.20220  0.55640  Biso   1.000  O
  O69      1.0000 0.39690  0.29780  0.05640  Biso   1.000  O
  O70      1.0000 0.89690  0.79780  0.55640  Biso   1.000  O
  O71      1.0000 0.10310  0.79780  0.05640  Biso   1.000  O
  O72      1.0000 0.60310  0.29780  0.55640  Biso   1.000  O
  O73      1.0000 0.36630  0.23390  0.18390  Biso   1.000  O
  O74      1.0000 0.86630  0.73390  0.68390  Biso   1.000  O
  O75      1.0000 0.13370  0.73390  0.18390  Biso   1.000  O
  O76      1.0000 0.63370  0.23390  0.68390  Biso   1.000  O
  O77      1.0000 0.86630  0.26610  0.18390  Biso   1.000  O
  O78      1.0000 0.36630  0.76610  0.68390  Biso   1.000  O
  O79      1.0000 0.63370  0.76610  0.18390  Biso   1.000  O
  O80      1.0000 0.13370  0.26610  0.68390  Biso   1.000  O
  O81      1.0000 0.26630  0.69150  0.05650  Biso   1.000  O
  O82      1.0000 0.76630  0.19150  0.55650  Biso   1.000  O
  O83      1.0000 0.23370  0.19150  0.05650  Biso   1.000  O
  O84      1.0000 0.73370  0.69150  0.55650  Biso   1.000  O
  O85      1.0000 0.76630  0.80850  0.05650  Biso   1.000  O
  O86      1.0000 0.26630  0.30850  0.55650  Biso   1.000  O
  O87      1.0000 0.73370  0.30850  0.05650  Biso   1.000  O
  O88      1.0000 0.23370  0.80850  0.55650  Biso   1.000  O
  O89      1.0000 0.30580  0.69540  0.21860  Biso   1.000  O
  O90      1.0000 0.80580  0.19540  0.71860  Biso   1.000  O
  O91      1.0000 0.19420  0.19540  0.21860  Biso   1.000  O
  O92      1.0000 0.69420  0.69540  0.71860  Biso   1.000  O
  O93      1.0000 0.80580  0.80460  0.21860  Biso   1.000  O
  O94      1.0000 0.30580  0.30460  0.71860  Biso   1.000  O
  O95      1.0000 0.69420  0.30460  0.21860  Biso   1.000  O
  O96      1.0000 0.19420  0.80460  0.71860  Biso   1.000  O
  C1       1.0000 0.16680  0.32920  0.14510  Biso   1.000  C
  C2       1.0000 0.66680  0.82920  0.64510  Biso   1.000  C
  C3       1.0000 0.33320  0.82920  0.14510  Biso   1.000  C
  C4       1.0000 0.83320  0.32920  0.64510  Biso   1.000  C
  C5       1.0000 0.66680  0.17080  0.14510  Biso   1.000  C
  C6       1.0000 0.16680  0.67080  0.64510  Biso   1.000  C
  C7       1.0000 0.83320  0.67080  0.14510  Biso   1.000  C
  C8       1.0000 0.33320  0.17080  0.64510  Biso   1.000  C
  C9       1.0000 0.17360  0.39450  0.15620  Biso   1.000  C
  C10      1.0000 0.67360  0.89450  0.65620  Biso   1.000  C
  C11      1.0000 0.32640  0.89450  0.15620  Biso   1.000  C
  C12      1.0000 0.82640  0.39450  0.65620  Biso   1.000  C
  C13      1.0000 0.67360  0.10550  0.15620  Biso   1.000  C
  C14      1.0000 0.17360  0.60550  0.65620  Biso   1.000  C
  C15      1.0000 0.82640  0.60550  0.15620  Biso   1.000  C
  C16      1.0000 0.32640  0.10550  0.65620  Biso   1.000  C
  C17      1.0000 0.23870  0.42270  0.16070  Biso   1.000  C
  C18      1.0000 0.73870  0.92270  0.66070  Biso   1.000  C
  C19      1.0000 0.26130  0.92270  0.16070  Biso   1.000  C
  C20      1.0000 0.76130  0.42270  0.66070  Biso   1.000  C
  C21      1.0000 0.73870  0.07730  0.16070  Biso   1.000  C
  C22      1.0000 0.23870  0.57730  0.66070  Biso   1.000  C
  C23      1.0000 0.76130  0.57730  0.16070  Biso   1.000  C
  C24      1.0000 0.26130  0.07730  0.66070  Biso   1.000  C
  C25      1.0000 0.29740  0.38450  0.14700  Biso   1.000  C
  C26      1.0000 0.79740  0.88450  0.64700  Biso   1.000  C
  C27      1.0000 0.20260  0.88450  0.14700  Biso   1.000  C
  C28      1.0000 0.70260  0.38450  0.64700  Biso   1.000  C
  C29      1.0000 0.79740  0.11550  0.14700  Biso   1.000  C
  C30      1.0000 0.29740  0.61550  0.64700  Biso   1.000  C
  C31      1.0000 0.70260  0.61550  0.14700  Biso   1.000  C
  C32      1.0000 0.20260  0.11550  0.64700  Biso   1.000  C
  C33      1.0000 0.29190  0.31890  0.13800  Biso   1.000  C
  C34      1.0000 0.79190  0.81890  0.63800  Biso   1.000  C
  C35      1.0000 0.20810  0.81890  0.13800  Biso   1.000  C
  C36      1.0000 0.70810  0.31890  0.63800  Biso   1.000  C
  C37      1.0000 0.79190  0.18110  0.13800  Biso   1.000  C
  C38      1.0000 0.29190  0.68110  0.63800  Biso   1.000  C
  C39      1.0000 0.70810  0.68110  0.13800  Biso   1.000  C
  C40      1.0000 0.20810  0.18110  0.63800  Biso   1.000  C
  C41      1.0000 0.22650  0.29090  0.13880  Biso   1.000  C
  C42      1.0000 0.72650  0.79090  0.63880  Biso   1.000  C
  C43      1.0000 0.27350  0.79090  0.13880  Biso   1.000  C
  C44      1.0000 0.77350  0.29090  0.63880  Biso   1.000  C
  C45      1.0000 0.72650  0.20910  0.13880  Biso   1.000  C
  C46      1.0000 0.22650  0.70910  0.63880  Biso   1.000  C
  C47      1.0000 0.77350  0.70910  0.13880  Biso   1.000  C
  C48      1.0000 0.27350  0.20910  0.63880  Biso   1.000  C
  C49      1.0000 0.09500  0.30000  0.13700  Biso   1.000  C
  C50      1.0000 0.59500  0.80000  0.63700  Biso   1.000  C
  C51      1.0000 0.40500  0.80000  0.13700  Biso   1.000  C
  C52      1.0000 0.90500  0.30000  0.63700  Biso   1.000  C
  C53      1.0000 0.59500  0.20000  0.13700  Biso   1.000  C
  C54      1.0000 0.09500  0.70000  0.63700  Biso   1.000  C
  C55      1.0000 0.90500  0.70000  0.13700  Biso   1.000  C
  C56      1.0000 0.40500  0.20000  0.63700  Biso   1.000  C
  C57      1.0000 0.10920  0.43480  0.16680  Biso   1.000  C
  C58      1.0000 0.60920  0.93480  0.66680  Biso   1.000  C
  C59      1.0000 0.39080  0.93480  0.16680  Biso   1.000  C
  C60      1.0000 0.89080  0.43480  0.66680  Biso   1.000  C
  C61      1.0000 0.60920  0.06520  0.16680  Biso   1.000  C
  C62      1.0000 0.10920  0.56520  0.66680  Biso   1.000  C
  C63      1.0000 0.89080  0.56520  0.16680  Biso   1.000  C
  C64      1.0000 0.39080  0.06520  0.66680  Biso   1.000  C
  C65      1.0000 0.24690  0.49330  0.17730  Biso   1.000  C
  C66      1.0000 0.74690  0.99330  0.67730  Biso   1.000  C
  C67      1.0000 0.25310  0.99330  0.17730  Biso   1.000  C
  C68      1.0000 0.75310  0.49330  0.67730  Biso   1.000  C
  C69      1.0000 0.74690  0.00670  0.17730  Biso   1.000  C
  C70      1.0000 0.24690  0.50670  0.67730  Biso   1.000  C
  C71      1.0000 0.75310  0.50670  0.17730  Biso   1.000  C
  C72      1.0000 0.25310  0.00670  0.67730  Biso   1.000  C
  C73      1.0000 0.36960  0.41560  0.14250  Biso   1.000  C
  C74      1.0000 0.86960  0.91560  0.64250  Biso   1.000  C
  C75      1.0000 0.13040  0.91560  0.14250  Biso   1.000  C
  C76      1.0000 0.63040  0.41560  0.64250  Biso   1.000  C
  C77      1.0000 0.86960  0.08440  0.14250  Biso   1.000  C
  C78      1.0000 0.36960  0.58440  0.64250  Biso   1.000  C
  C79      1.0000 0.63040  0.58440  0.14250  Biso   1.000  C
  C80      1.0000 0.13040  0.08440  0.64250  Biso   1.000  C
  C81      1.0000 0.35590  0.27940  0.12750  Biso   1.000  C
  C82      1.0000 0.85590  0.77940  0.62750  Biso   1.000  C
  C83      1.0000 0.14410  0.77940  0.12750  Biso   1.000  C
  C84      1.0000 0.64410  0.27940  0.62750  Biso   1.000  C
  C85      1.0000 0.85590  0.22060  0.12750  Biso   1.000  C
  C86      1.0000 0.35590  0.72060  0.62750  Biso   1.000  C
  C87      1.0000 0.64410  0.72060  0.12750  Biso   1.000  C
  C88      1.0000 0.14410  0.22060  0.62750  Biso   1.000  C
  C89      1.0000 0.21790  0.21950  0.13690  Biso   1.000  C
  C90      1.0000 0.71790  0.71950  0.63690  Biso   1.000  C
  C91      1.0000 0.28210  0.71950  0.13690  Biso   1.000  C
  C92      1.0000 0.78210  0.21950  0.63690  Biso   1.000  C
  C93      1.0000 0.71790  0.28050  0.13690  Biso   1.000  C
  C94      1.0000 0.21790  0.78050  0.63690  Biso   1.000  C
  C95      1.0000 0.78210  0.78050  0.13690  Biso   1.000  C
  C96      1.0000 0.28210  0.28050  0.63690  Biso   1.000  C
  O97      1.0000 0.06750  0.57290  0.11590  Biso   1.000  O
  O98      1.0000 0.56750  0.07290  0.61590  Biso   1.000  O
  O99      1.0000 0.43250  0.07290  0.11590  Biso   1.000  O
  O100     1.0000 0.93250  0.57290  0.61590  Biso   1.000  O
  O101     1.0000 0.56750  0.92710  0.11590  Biso   1.000  O
  O102     1.0000 0.06750  0.42710  0.61590  Biso   1.000  O
  O103     1.0000 0.93250  0.42710  0.11590  Biso   1.000  O
  O104     1.0000 0.43250  0.92710  0.61590  Biso   1.000  O
  O105     1.0000 0.00000  0.50000  0.91850  Biso   1.000  O
  O106     1.0000 0.50000  0.00000  0.41850  Biso   1.000  O
  O107     1.0000 0.50000  0.00000  0.91850  Biso   1.000  O
  O108     1.0000 0.00000  0.50000  0.41850  Biso   1.000  O
  O109     1.0000 0.36510  0.65890  0.88700  Biso   1.000  O
  O110     1.0000 0.86510  0.15890  0.38700  Biso   1.000  O
  O111     1.0000 0.13490  0.15890  0.88700  Biso   1.000  O
  O112     1.0000 0.63490  0.65890  0.38700  Biso   1.000  O
  O113     1.0000 0.86510  0.84110  0.88700  Biso   1.000  O
  O114     1.0000 0.36510  0.34110  0.38700  Biso   1.000  O
  O115     1.0000 0.63490  0.34110  0.88700  Biso   1.000  O
  O116     1.0000 0.13490  0.84110  0.38700  Biso   1.000  O
  O117     1.0000 0.32700  0.52720  0.93800  Biso   1.000  O
  O118     1.0000 0.82700  0.02720  0.43800  Biso   1.000  O
  O119     1.0000 0.17300  0.02720  0.93800  Biso   1.000  O
  O120     1.0000 0.67300  0.52720  0.43800  Biso   1.000  O
  O121     1.0000 0.82700  0.97280  0.93800  Biso   1.000  O
  O122     1.0000 0.32700  0.47280  0.43800  Biso   1.000  O
  O123     1.0000 0.67300  0.47280  0.93800  Biso   1.000  O
  O124     1.0000 0.17300  0.97280  0.43800  Biso   1.000  O
  O125     1.0000 0.21960  0.60470  0.91040  Biso   1.000  O
  O126     1.0000 0.71960  0.10470  0.41040  Biso   1.000  O
  O127     1.0000 0.28040  0.10470  0.91040  Biso   1.000  O
  O128     1.0000 0.78040  0.60470  0.41040  Biso   1.000  O
  O129     1.0000 0.71960  0.89530  0.91040  Biso   1.000  O
  O130     1.0000 0.21960  0.39530  0.41040  Biso   1.000  O
  O131     1.0000 0.78040  0.39530  0.91040  Biso   1.000  O
  O132     1.0000 0.28040  0.89530  0.41040  Biso   1.000  O
  O133     1.0000 0.36420  0.59550  0.11520  Biso   1.000  O
  O134     1.0000 0.86420  0.09550  0.61520  Biso   1.000  O
  O135     1.0000 0.13580  0.09550  0.11520  Biso   1.000  O
  O136     1.0000 0.63580  0.59550  0.61520  Biso   1.000  O
  O137     1.0000 0.86420  0.90450  0.11520  Biso   1.000  O
  O138     1.0000 0.36420  0.40450  0.61520  Biso   1.000  O
  O139     1.0000 0.63580  0.40450  0.11520  Biso   1.000  O
  O140     1.0000 0.13580  0.90450  0.61520  Biso   1.000  O
  O141     1.0000 0.40990  0.59910  0.35330  Biso   1.000  O
  O142     1.0000 0.90990  0.09910  0.85330  Biso   1.000  O
  O143     1.0000 0.09010  0.09910  0.35330  Biso   1.000  O
  O144     1.0000 0.59010  0.59910  0.85330  Biso   1.000  O
  O145     1.0000 0.90990  0.90090  0.35330  Biso   1.000  O
  O146     1.0000 0.40990  0.40090  0.85330  Biso   1.000  O
  O147     1.0000 0.59010  0.40090  0.35330  Biso   1.000  O
  O148     1.0000 0.09010  0.90090  0.85330  Biso   1.000  O
  O149     1.0000 0.25570  0.60940  0.36540  Biso   1.000  O
  O150     1.0000 0.75570  0.10940  0.86540  Biso   1.000  O
  O151     1.0000 0.24430  0.10940  0.36540  Biso   1.000  O
  O152     1.0000 0.74430  0.60940  0.86540  Biso   1.000  O
  O153     1.0000 0.75570  0.89060  0.36540  Biso   1.000  O
  O154     1.0000 0.25570  0.39060  0.86540  Biso   1.000  O
  O155     1.0000 0.74430  0.39060  0.36540  Biso   1.000  O
  O156     1.0000 0.24430  0.89060  0.86540  Biso   1.000  O
  O157     1.0000 0.95320  0.31910  0.99060  Biso   1.000  O
  O158     1.0000 0.45320  0.81910  0.49060  Biso   1.000  O
  O159     1.0000 0.54680  0.81910  0.99060  Biso   1.000  O
  O160     1.0000 0.04680  0.31910  0.49060  Biso   1.000  O
  O161     1.0000 0.45320  0.18090  0.99060  Biso   1.000  O
  O162     1.0000 0.95320  0.68090  0.49060  Biso   1.000  O
  O163     1.0000 0.04680  0.68090  0.99060  Biso   1.000  O
  O164     1.0000 0.54680  0.18090  0.49060  Biso   1.000  O
  O165     1.0000 0.01990  0.16380  0.13150  Biso   1.000  O
  O166     1.0000 0.51990  0.66380  0.63150  Biso   1.000  O
  O167     1.0000 0.48010  0.66380  0.13150  Biso   1.000  O
  O168     1.0000 0.98010  0.16380  0.63150  Biso   1.000  O
  O169     1.0000 0.51990  0.33620  0.13150  Biso   1.000  O
  O170     1.0000 0.01990  0.83620  0.63150  Biso   1.000  O
  O171     1.0000 0.98010  0.83620  0.13150  Biso   1.000  O
  O172     1.0000 0.48010  0.33620  0.63150  Biso   1.000  O
  O173     1.0000 0.99740  0.20570  0.87540  Biso   1.000  O
  O174     1.0000 0.49740  0.70570  0.37540  Biso   1.000  O
  O175     1.0000 0.50260  0.70570  0.87540  Biso   1.000  O
  O176     1.0000 0.00260  0.20570  0.37540  Biso   1.000  O
  O177     1.0000 0.49740  0.29430  0.87540  Biso   1.000  O
  O178     1.0000 0.99740  0.79430  0.37540  Biso   1.000  O
  O179     1.0000 0.00260  0.79430  0.87540  Biso   1.000  O
  O180     1.0000 0.50260  0.29430  0.37540  Biso   1.000  O
  O181     1.0000 0.50000  0.50000  0.28880  Biso   1.000  O
  O182     1.0000 0.00000  0.00000  0.78880  Biso   1.000  O
  O183     1.0000 0.00000  0.00000  0.28880  Biso   1.000  O
  O184     1.0000 0.50000  0.50000  0.78880  Biso   1.000  O
  O185     1.0000 0.46440  0.12830  0.35040  Biso   1.000  O
  O186     1.0000 0.96440  0.62830  0.85040  Biso   1.000  O
  O187     1.0000 0.03560  0.62830  0.35040  Biso   1.000  O
  O188     1.0000 0.53560  0.12830  0.85040  Biso   1.000  O
  O189     1.0000 0.96440  0.37170  0.35040  Biso   1.000  O
  O190     1.0000 0.46440  0.87170  0.85040  Biso   1.000  O
  O191     1.0000 0.53560  0.87170  0.35040  Biso   1.000  O
  O192     1.0000 0.03560  0.37170  0.85040  Biso   1.000  O
  O193     1.0000 0.16680  0.27950  0.38800  Biso   1.000  O
  O194     1.0000 0.66680  0.77950  0.88800  Biso   1.000  O
  O195     1.0000 0.33320  0.77950  0.38800  Biso   1.000  O
  O196     1.0000 0.83320  0.27950  0.88800  Biso   1.000  O
  O197     1.0000 0.66680  0.22050  0.38800  Biso   1.000  O
  O198     1.0000 0.16680  0.72050  0.88800  Biso   1.000  O
  O199     1.0000 0.83320  0.72050  0.38800  Biso   1.000  O
  O200     1.0000 0.33320  0.22050  0.88800  Biso   1.000  O
  O201     1.0000 0.33870  0.01510  0.40740  Biso   1.000  O
  O202     1.0000 0.83870  0.51510  0.90740  Biso   1.000  O
  O203     1.0000 0.16130  0.51510  0.40740  Biso   1.000  O
  O204     1.0000 0.66130  0.01510  0.90740  Biso   1.000  O
  O205     1.0000 0.83870  0.48490  0.40740  Biso   1.000  O
  O206     1.0000 0.33870  0.98490  0.90740  Biso   1.000  O
  O207     1.0000 0.66130  0.98490  0.40740  Biso   1.000  O
  O208     1.0000 0.16130  0.48490  0.90740  Biso   1.000  O
  O209     1.0000 0.33640  0.19890  0.37570  Biso   1.000  O
  O210     1.0000 0.83640  0.69890  0.87570  Biso   1.000  O
  O211     1.0000 0.16360  0.69890  0.37570  Biso   1.000  O
  O212     1.0000 0.66360  0.19890  0.87570  Biso   1.000  O
  O213     1.0000 0.83640  0.30110  0.37570  Biso   1.000  O
  O214     1.0000 0.33640  0.80110  0.87570  Biso   1.000  O
  O215     1.0000 0.66360  0.80110  0.37570  Biso   1.000  O
  O216     1.0000 0.16360  0.30110  0.87570  Biso   1.000  O
