data_image0
_cell_length_a       15.1193
_cell_length_b       32.1605
_cell_length_c       16.2919
_cell_angle_alpha    90
_cell_angle_beta     98.562
_cell_angle_gamma    90

_symmetry_space_group_name_H-M    "P 1"
_symmetry_int_tables_number       1

loop_
  _symmetry_equiv_pos_as_xyz
  'x, y, z'

loop_
  _atom_site_label
  _atom_site_occupancy
  _atom_site_fract_x
  _atom_site_fract_y
  _atom_site_fract_z
  _atom_site_thermal_displace_type
  _atom_site_B_iso_or_equiv
  _atom_site_type_symbol
  Cu1      1.0000 0.45783  0.50000  0.92288  Biso   1.000  Cu
  Cu2      1.0000 0.54217  0.50000  0.07712  Biso   1.000  Cu
  Cu3      1.0000 0.95783  0.00000  0.42288  Biso   1.000  Cu
  Cu4      1.0000 0.04217  0.00000  0.57712  Biso   1.000  Cu
  Cu5      1.0000 0.17765  0.22801  0.75181  Biso   1.000  Cu
  Cu6      1.0000 0.82235  0.22801  0.24819  Biso   1.000  Cu
  Cu7      1.0000 0.67765  0.72801  0.25181  Biso   1.000  Cu
  Cu8      1.0000 0.32235  0.72801  0.74819  Biso   1.000  Cu
  Cu9      1.0000 0.82235  0.77199  0.24819  Biso   1.000  Cu
  Cu10     1.0000 0.17765  0.77199  0.75181  Biso   1.000  Cu
  Cu11     1.0000 0.32235  0.27199  0.74819  Biso   1.000  Cu
  Cu12     1.0000 0.67765  0.27199  0.25181  Biso   1.000  Cu
  O1       1.0000 0.41600  0.50000  0.79220  Biso   1.000  O
  O2       1.0000 0.58400  0.50000  0.20780  Biso   1.000  O
  O3       1.0000 0.91600  0.00000  0.29220  Biso   1.000  O
  O4       1.0000 0.08400  0.00000  0.70780  Biso   1.000  O
  O5       1.0000 0.45320  0.45700  0.08800  Biso   1.000  O
  O6       1.0000 0.54680  0.45700  0.91200  Biso   1.000  O
  O7       1.0000 0.95320  0.95700  0.58800  Biso   1.000  O
  O8       1.0000 0.04680  0.95700  0.41200  Biso   1.000  O
  O9       1.0000 0.54680  0.54300  0.91200  Biso   1.000  O
  O10      1.0000 0.45320  0.54300  0.08800  Biso   1.000  O
  O11      1.0000 0.04680  0.04300  0.41200  Biso   1.000  O
  O12      1.0000 0.95320  0.04300  0.58800  Biso   1.000  O
  O13      1.0000 0.37930  0.45700  0.95860  Biso   1.000  O
  O14      1.0000 0.62070  0.45700  0.04140  Biso   1.000  O
  O15      1.0000 0.87930  0.95700  0.45860  Biso   1.000  O
  O16      1.0000 0.12070  0.95700  0.54140  Biso   1.000  O
  O17      1.0000 0.62070  0.54300  0.04140  Biso   1.000  O
  O18      1.0000 0.37930  0.54300  0.95860  Biso   1.000  O
  O19      1.0000 0.12070  0.04300  0.54140  Biso   1.000  O
  O20      1.0000 0.87930  0.04300  0.45860  Biso   1.000  O
  O21      1.0000 0.27810  0.27585  0.63020  Biso   1.000  O
  O22      1.0000 0.72190  0.27585  0.36980  Biso   1.000  O
  O23      1.0000 0.77810  0.77585  0.13020  Biso   1.000  O
  O24      1.0000 0.22190  0.77585  0.86980  Biso   1.000  O
  O25      1.0000 0.72190  0.72415  0.36980  Biso   1.000  O
  O26      1.0000 0.27810  0.72415  0.63020  Biso   1.000  O
  O27      1.0000 0.22190  0.22415  0.86980  Biso   1.000  O
  O28      1.0000 0.77810  0.22415  0.13020  Biso   1.000  O
  O29      1.0000 0.15350  0.23800  0.63200  Biso   1.000  O
  O30      1.0000 0.84650  0.23800  0.36800  Biso   1.000  O
  O31      1.0000 0.65350  0.73800  0.13200  Biso   1.000  O
  O32      1.0000 0.34650  0.73800  0.86800  Biso   1.000  O
  O33      1.0000 0.84650  0.76200  0.36800  Biso   1.000  O
  O34      1.0000 0.15350  0.76200  0.63200  Biso   1.000  O
  O35      1.0000 0.34650  0.26200  0.86800  Biso   1.000  O
  O36      1.0000 0.65350  0.26200  0.13200  Biso   1.000  O
  O37      1.0000 0.38090  0.21926  0.72770  Biso   1.000  O
  O38      1.0000 0.61910  0.21926  0.27230  Biso   1.000  O
  O39      1.0000 0.88090  0.71926  0.22770  Biso   1.000  O
  O40      1.0000 0.11910  0.71926  0.77230  Biso   1.000  O
  O41      1.0000 0.61910  0.78074  0.27230  Biso   1.000  O
  O42      1.0000 0.38090  0.78074  0.72770  Biso   1.000  O
  O43      1.0000 0.11910  0.28074  0.77230  Biso   1.000  O
  O44      1.0000 0.88090  0.28074  0.22770  Biso   1.000  O
  O45      1.0000 0.06790  0.18681  0.75700  Biso   1.000  O
  O46      1.0000 0.93210  0.18681  0.24300  Biso   1.000  O
  O47      1.0000 0.56790  0.68681  0.25700  Biso   1.000  O
  O48      1.0000 0.43210  0.68681  0.74300  Biso   1.000  O
  O49      1.0000 0.93210  0.81319  0.24300  Biso   1.000  O
  O50      1.0000 0.06790  0.81319  0.75700  Biso   1.000  O
  O51      1.0000 0.43210  0.31319  0.74300  Biso   1.000  O
  O52      1.0000 0.56790  0.31319  0.25700  Biso   1.000  O
  O53      1.0000 0.25730  0.18160  0.73260  Biso   1.000  O
  O54      1.0000 0.74270  0.18160  0.26740  Biso   1.000  O
  O55      1.0000 0.75730  0.68160  0.23260  Biso   1.000  O
  O56      1.0000 0.24270  0.68160  0.76740  Biso   1.000  O
  O57      1.0000 0.74270  0.81840  0.26740  Biso   1.000  O
  O58      1.0000 0.25730  0.81840  0.73260  Biso   1.000  O
  O59      1.0000 0.24270  0.31840  0.76740  Biso   1.000  O
  O60      1.0000 0.75730  0.31840  0.23260  Biso   1.000  O
  N1       1.0000 0.18400  0.30393  0.20760  Biso   1.000  N
  N2       1.0000 0.81600  0.30393  0.79240  Biso   1.000  N
  N3       1.0000 0.68400  0.80393  0.70760  Biso   1.000  N
  N4       1.0000 0.31600  0.80393  0.29240  Biso   1.000  N
  N5       1.0000 0.81600  0.69607  0.79240  Biso   1.000  N
  N6       1.0000 0.18400  0.69607  0.20760  Biso   1.000  N
  N7       1.0000 0.31600  0.19607  0.29240  Biso   1.000  N
  N8       1.0000 0.68400  0.19607  0.70760  Biso   1.000  N
  N9       1.0000 0.48220  0.00000  0.65360  Biso   1.000  N
  N10      1.0000 0.51780  0.00000  0.34640  Biso   1.000  N
  N11      1.0000 0.98220  0.50000  0.15360  Biso   1.000  N
  N12      1.0000 0.01780  0.50000  0.84640  Biso   1.000  N
  N13      1.0000 0.05880  0.12730  0.83020  Biso   1.000  N
  N14      1.0000 0.94120  0.12730  0.16980  Biso   1.000  N
  N15      1.0000 0.55880  0.62730  0.33020  Biso   1.000  N
  N16      1.0000 0.44120  0.62730  0.66980  Biso   1.000  N
  N17      1.0000 0.94120  0.87270  0.16980  Biso   1.000  N
  N18      1.0000 0.05880  0.87270  0.83020  Biso   1.000  N
  N19      1.0000 0.44120  0.37270  0.66980  Biso   1.000  N
  N20      1.0000 0.55880  0.37270  0.33020  Biso   1.000  N
  C1       1.0000 0.39330  0.44420  0.03140  Biso   1.000  C
  C2       1.0000 0.60670  0.44420  0.96860  Biso   1.000  C
  C3       1.0000 0.89330  0.94420  0.53140  Biso   1.000  C
  C4       1.0000 0.10670  0.94420  0.46860  Biso   1.000  C
  C5       1.0000 0.60670  0.55580  0.96860  Biso   1.000  C
  C6       1.0000 0.39330  0.55580  0.03140  Biso   1.000  C
  C7       1.0000 0.10670  0.05580  0.46860  Biso   1.000  C
  C8       1.0000 0.89330  0.05580  0.53140  Biso   1.000  C
  C9       1.0000 0.02100  0.08490  0.81500  Biso   1.000  C
  C10      1.0000 0.97900  0.08490  0.18500  Biso   1.000  C
  C11      1.0000 0.52100  0.58490  0.31500  Biso   1.000  C
  C12      1.0000 0.47900  0.58490  0.68500  Biso   1.000  C
  C13      1.0000 0.97900  0.91510  0.18500  Biso   1.000  C
  C14      1.0000 0.02100  0.91510  0.81500  Biso   1.000  C
  C15      1.0000 0.47900  0.41510  0.68500  Biso   1.000  C
  C16      1.0000 0.52100  0.41510  0.31500  Biso   1.000  C
  C17      1.0000 0.33450  0.41008  0.05490  Biso   1.000  C
  C18      1.0000 0.66550  0.41008  0.94510  Biso   1.000  C
  C19      1.0000 0.83450  0.91008  0.55490  Biso   1.000  C
  C20      1.0000 0.16550  0.91008  0.44510  Biso   1.000  C
  C21      1.0000 0.66550  0.58992  0.94510  Biso   1.000  C
  C22      1.0000 0.33450  0.58992  0.05490  Biso   1.000  C
  C23      1.0000 0.16550  0.08992  0.44510  Biso   1.000  C
  C24      1.0000 0.83450  0.08992  0.55490  Biso   1.000  C
  C25      1.0000 0.01340  0.14520  0.89670  Biso   1.000  C
  C26      1.0000 0.98660  0.14520  0.10330  Biso   1.000  C
  C27      1.0000 0.51340  0.64520  0.39670  Biso   1.000  C
  C28      1.0000 0.48660  0.64520  0.60330  Biso   1.000  C
  C29      1.0000 0.98660  0.85480  0.10330  Biso   1.000  C
  C30      1.0000 0.01340  0.85480  0.89670  Biso   1.000  C
  C31      1.0000 0.48660  0.35480  0.60330  Biso   1.000  C
  C32      1.0000 0.51340  0.35480  0.39670  Biso   1.000  C
  C33      1.0000 0.26700  0.39410  0.99930  Biso   1.000  C
  C34      1.0000 0.73300  0.39410  0.00070  Biso   1.000  C
  C35      1.0000 0.76700  0.89410  0.49930  Biso   1.000  C
  C36      1.0000 0.23300  0.89410  0.50070  Biso   1.000  C
  C37      1.0000 0.73300  0.60590  0.00070  Biso   1.000  C
  C38      1.0000 0.26700  0.60590  0.99930  Biso   1.000  C
  C39      1.0000 0.23300  0.10590  0.50070  Biso   1.000  C
  C40      1.0000 0.76700  0.10590  0.49930  Biso   1.000  C
  H1       1.0000 0.25510  0.40550  0.94630  Biso   1.000  H
  H2       1.0000 0.74490  0.40550  0.05370  Biso   1.000  H
  H3       1.0000 0.75510  0.90550  0.44630  Biso   1.000  H
  H4       1.0000 0.24490  0.90550  0.55370  Biso   1.000  H
  H5       1.0000 0.74490  0.59450  0.05370  Biso   1.000  H
  H6       1.0000 0.25510  0.59450  0.94630  Biso   1.000  H
  H7       1.0000 0.24490  0.09450  0.55370  Biso   1.000  H
  H8       1.0000 0.75510  0.09450  0.44630  Biso   1.000  H
  C41      1.0000 0.21640  0.36150  0.01980  Biso   1.000  C
  C42      1.0000 0.78360  0.36150  0.98020  Biso   1.000  C
  C43      1.0000 0.71640  0.86150  0.51980  Biso   1.000  C
  C44      1.0000 0.28360  0.86150  0.48020  Biso   1.000  C
  C45      1.0000 0.78360  0.63850  0.98020  Biso   1.000  C
  C46      1.0000 0.21640  0.63850  0.01980  Biso   1.000  C
  C47      1.0000 0.28360  0.13850  0.48020  Biso   1.000  C
  C48      1.0000 0.71640  0.13850  0.51980  Biso   1.000  C
  H9       1.0000 0.17200  0.35070  0.97990  Biso   1.000  H
  H10      1.0000 0.82800  0.35070  0.02010  Biso   1.000  H
  H11      1.0000 0.67200  0.85070  0.47990  Biso   1.000  H
  H12      1.0000 0.32800  0.85070  0.52010  Biso   1.000  H
  H13      1.0000 0.82800  0.64930  0.02010  Biso   1.000  H
  H14      1.0000 0.17200  0.64930  0.97990  Biso   1.000  H
  H15      1.0000 0.32800  0.14930  0.52010  Biso   1.000  H
  H16      1.0000 0.67200  0.14930  0.47990  Biso   1.000  H
  C49      1.0000 0.22950  0.34397  0.09860  Biso   1.000  C
  C50      1.0000 0.77050  0.34397  0.90140  Biso   1.000  C
  C51      1.0000 0.72950  0.84397  0.59860  Biso   1.000  C
  C52      1.0000 0.27050  0.84397  0.40140  Biso   1.000  C
  C53      1.0000 0.77050  0.65603  0.90140  Biso   1.000  C
  C54      1.0000 0.22950  0.65603  0.09860  Biso   1.000  C
  C55      1.0000 0.27050  0.15603  0.40140  Biso   1.000  C
  C56      1.0000 0.72950  0.15603  0.59860  Biso   1.000  C
  C57      1.0000 0.29580  0.36160  0.15440  Biso   1.000  C
  C58      1.0000 0.70420  0.36160  0.84560  Biso   1.000  C
  C59      1.0000 0.79580  0.86160  0.65440  Biso   1.000  C
  C60      1.0000 0.20420  0.86160  0.34560  Biso   1.000  C
  C61      1.0000 0.70420  0.63840  0.84560  Biso   1.000  C
  C62      1.0000 0.29580  0.63840  0.15440  Biso   1.000  C
  C63      1.0000 0.20420  0.13840  0.34560  Biso   1.000  C
  C64      1.0000 0.79580  0.13840  0.65440  Biso   1.000  C
  H17      1.0000 0.30610  0.35130  0.20830  Biso   1.000  H
  H18      1.0000 0.69390  0.35130  0.79170  Biso   1.000  H
  H19      1.0000 0.80610  0.85130  0.70830  Biso   1.000  H
  H20      1.0000 0.19390  0.85130  0.29170  Biso   1.000  H
  H21      1.0000 0.69390  0.64870  0.79170  Biso   1.000  H
  H22      1.0000 0.30610  0.64870  0.20830  Biso   1.000  H
  H23      1.0000 0.19390  0.14870  0.29170  Biso   1.000  H
  H24      1.0000 0.80610  0.14870  0.70830  Biso   1.000  H
  C65      1.0000 0.34780  0.39409  0.13340  Biso   1.000  C
  C66      1.0000 0.65220  0.39409  0.86660  Biso   1.000  C
  C67      1.0000 0.84780  0.89409  0.63340  Biso   1.000  C
  C68      1.0000 0.15220  0.89409  0.36660  Biso   1.000  C
  C69      1.0000 0.65220  0.60591  0.86660  Biso   1.000  C
  C70      1.0000 0.34780  0.60591  0.13340  Biso   1.000  C
  C71      1.0000 0.15220  0.10591  0.36660  Biso   1.000  C
  C72      1.0000 0.84780  0.10591  0.63340  Biso   1.000  C
  H25      1.0000 0.39220  0.40510  0.17310  Biso   1.000  H
  H26      1.0000 0.60780  0.40510  0.82690  Biso   1.000  H
  H27      1.0000 0.89220  0.90510  0.67310  Biso   1.000  H
  H28      1.0000 0.10780  0.90510  0.32690  Biso   1.000  H
  H29      1.0000 0.60780  0.59490  0.82690  Biso   1.000  H
  H30      1.0000 0.39220  0.59490  0.17310  Biso   1.000  H
  H31      1.0000 0.10780  0.09490  0.32690  Biso   1.000  H
  H32      1.0000 0.89220  0.09490  0.67310  Biso   1.000  H
  C73      1.0000 0.17480  0.30946  0.12540  Biso   1.000  C
  C74      1.0000 0.82520  0.30946  0.87460  Biso   1.000  C
  C75      1.0000 0.67480  0.80946  0.62540  Biso   1.000  C
  C76      1.0000 0.32520  0.80946  0.37460  Biso   1.000  C
  C77      1.0000 0.82520  0.69054  0.87460  Biso   1.000  C
  C78      1.0000 0.17480  0.69054  0.12540  Biso   1.000  C
  C79      1.0000 0.32520  0.19054  0.37460  Biso   1.000  C
  C80      1.0000 0.67480  0.19054  0.62540  Biso   1.000  C
  C81      1.0000 0.11880  0.28483  0.07030  Biso   1.000  C
  C82      1.0000 0.88120  0.28483  0.92970  Biso   1.000  C
  C83      1.0000 0.61880  0.78483  0.57030  Biso   1.000  C
  C84      1.0000 0.38120  0.78483  0.42970  Biso   1.000  C
  C85      1.0000 0.88120  0.71517  0.92970  Biso   1.000  C
  C86      1.0000 0.11880  0.71517  0.07030  Biso   1.000  C
  C87      1.0000 0.38120  0.21517  0.42970  Biso   1.000  C
  C88      1.0000 0.61880  0.21517  0.57030  Biso   1.000  C
  H33      1.0000 0.11310  0.28930  0.01340  Biso   1.000  H
  H34      1.0000 0.88690  0.28930  0.98660  Biso   1.000  H
  H35      1.0000 0.61310  0.78930  0.51340  Biso   1.000  H
  H36      1.0000 0.38690  0.78930  0.48660  Biso   1.000  H
  H37      1.0000 0.88690  0.71070  0.98660  Biso   1.000  H
  H38      1.0000 0.11310  0.71070  0.01340  Biso   1.000  H
  H39      1.0000 0.38690  0.21070  0.48660  Biso   1.000  H
  H40      1.0000 0.61310  0.21070  0.51340  Biso   1.000  H
  C89      1.0000 0.07180  0.25342  0.10240  Biso   1.000  C
  C90      1.0000 0.92820  0.25342  0.89760  Biso   1.000  C
  C91      1.0000 0.57180  0.75342  0.60240  Biso   1.000  C
  C92      1.0000 0.42820  0.75342  0.39760  Biso   1.000  C
  C93      1.0000 0.92820  0.74658  0.89760  Biso   1.000  C
  C94      1.0000 0.07180  0.74658  0.10240  Biso   1.000  C
  C95      1.0000 0.42820  0.24658  0.39760  Biso   1.000  C
  C96      1.0000 0.57180  0.24658  0.60240  Biso   1.000  C
  H41      1.0000 0.03410  0.23630  0.06690  Biso   1.000  H
  H42      1.0000 0.96590  0.23630  0.93310  Biso   1.000  H
  H43      1.0000 0.53410  0.73630  0.56690  Biso   1.000  H
  H44      1.0000 0.46590  0.73630  0.43310  Biso   1.000  H
  H45      1.0000 0.96590  0.76370  0.93310  Biso   1.000  H
  H46      1.0000 0.03410  0.76370  0.06690  Biso   1.000  H
  H47      1.0000 0.46590  0.26370  0.43310  Biso   1.000  H
  H48      1.0000 0.53410  0.26370  0.56690  Biso   1.000  H
  C97      1.0000 0.08070  0.24741  0.18680  Biso   1.000  C
  C98      1.0000 0.91930  0.24741  0.81320  Biso   1.000  C
  C99      1.0000 0.58070  0.74741  0.68680  Biso   1.000  C
  C100     1.0000 0.41930  0.74741  0.31320  Biso   1.000  C
  C101     1.0000 0.91930  0.75259  0.81320  Biso   1.000  C
  C102     1.0000 0.08070  0.75259  0.18680  Biso   1.000  C
  C103     1.0000 0.41930  0.25259  0.31320  Biso   1.000  C
  C104     1.0000 0.58070  0.25259  0.68680  Biso   1.000  C
  H49      1.0000 0.04970  0.22620  0.20890  Biso   1.000  H
  H50      1.0000 0.95030  0.22620  0.79110  Biso   1.000  H
  H51      1.0000 0.54970  0.72620  0.70890  Biso   1.000  H
  H52      1.0000 0.45030  0.72620  0.29110  Biso   1.000  H
  H53      1.0000 0.95030  0.77380  0.79110  Biso   1.000  H
  H54      1.0000 0.04970  0.77380  0.20890  Biso   1.000  H
  H55      1.0000 0.45030  0.27380  0.29110  Biso   1.000  H
  H56      1.0000 0.54970  0.27380  0.70890  Biso   1.000  H
  C105     1.0000 0.13740  0.27376  0.23830  Biso   1.000  C
  C106     1.0000 0.86260  0.27376  0.76170  Biso   1.000  C
  C107     1.0000 0.63740  0.77376  0.73830  Biso   1.000  C
  C108     1.0000 0.36260  0.77376  0.26170  Biso   1.000  C
  C109     1.0000 0.86260  0.72624  0.76170  Biso   1.000  C
  C110     1.0000 0.13740  0.72624  0.23830  Biso   1.000  C
  C111     1.0000 0.36260  0.22624  0.26170  Biso   1.000  C
  C112     1.0000 0.63740  0.22624  0.73830  Biso   1.000  C
  C113     1.0000 0.15100  0.27021  0.33010  Biso   1.000  C
  C114     1.0000 0.84900  0.27021  0.66990  Biso   1.000  C
  C115     1.0000 0.65100  0.77021  0.83010  Biso   1.000  C
  C116     1.0000 0.34900  0.77021  0.16990  Biso   1.000  C
  C117     1.0000 0.84900  0.72979  0.66990  Biso   1.000  C
  C118     1.0000 0.15100  0.72979  0.33010  Biso   1.000  C
  C119     1.0000 0.34900  0.22979  0.16990  Biso   1.000  C
  C120     1.0000 0.65100  0.22979  0.83010  Biso   1.000  C
  C121     1.0000 0.10010  0.24344  0.37240  Biso   1.000  C
  C122     1.0000 0.89990  0.24344  0.62760  Biso   1.000  C
  C123     1.0000 0.60010  0.74344  0.87240  Biso   1.000  C
  C124     1.0000 0.39990  0.74344  0.12760  Biso   1.000  C
  C125     1.0000 0.89990  0.75656  0.62760  Biso   1.000  C
  C126     1.0000 0.10010  0.75656  0.37240  Biso   1.000  C
  C127     1.0000 0.39990  0.25656  0.12760  Biso   1.000  C
  C128     1.0000 0.60010  0.25656  0.87240  Biso   1.000  C
  H57      1.0000 0.05460  0.22760  0.34280  Biso   1.000  H
  H58      1.0000 0.94540  0.22760  0.65720  Biso   1.000  H
  H59      1.0000 0.55460  0.72760  0.84280  Biso   1.000  H
  H60      1.0000 0.44540  0.72760  0.15720  Biso   1.000  H
  H61      1.0000 0.94540  0.77240  0.65720  Biso   1.000  H
  H62      1.0000 0.05460  0.77240  0.34280  Biso   1.000  H
  H63      1.0000 0.44540  0.27240  0.15720  Biso   1.000  H
  H64      1.0000 0.55460  0.27240  0.84280  Biso   1.000  H
  C129     1.0000 0.11750  0.24053  0.45840  Biso   1.000  C
  C130     1.0000 0.88250  0.24053  0.54160  Biso   1.000  C
  C131     1.0000 0.61750  0.74053  0.95840  Biso   1.000  C
  C132     1.0000 0.38250  0.74053  0.04160  Biso   1.000  C
  C133     1.0000 0.88250  0.75947  0.54160  Biso   1.000  C
  C134     1.0000 0.11750  0.75947  0.45840  Biso   1.000  C
  C135     1.0000 0.38250  0.25947  0.04160  Biso   1.000  C
  C136     1.0000 0.61750  0.25947  0.95840  Biso   1.000  C
  H65      1.0000 0.08260  0.22300  0.48580  Biso   1.000  H
  H66      1.0000 0.91740  0.22300  0.51420  Biso   1.000  H
  H67      1.0000 0.58260  0.72300  0.98580  Biso   1.000  H
  H68      1.0000 0.41740  0.72300  0.01420  Biso   1.000  H
  H69      1.0000 0.91740  0.77700  0.51420  Biso   1.000  H
  H70      1.0000 0.08260  0.77700  0.48580  Biso   1.000  H
  H71      1.0000 0.41740  0.27700  0.01420  Biso   1.000  H
  H72      1.0000 0.58260  0.27700  0.98580  Biso   1.000  H
  C137     1.0000 0.18510  0.26301  0.50360  Biso   1.000  C
  C138     1.0000 0.81490  0.26301  0.49640  Biso   1.000  C
  C139     1.0000 0.68510  0.76301  0.00360  Biso   1.000  C
  C140     1.0000 0.31490  0.76301  0.99640  Biso   1.000  C
  C141     1.0000 0.81490  0.73699  0.49640  Biso   1.000  C
  C142     1.0000 0.18510  0.73699  0.50360  Biso   1.000  C
  C143     1.0000 0.31490  0.23699  0.99640  Biso   1.000  C
  C144     1.0000 0.68510  0.23699  0.00360  Biso   1.000  C
  C145     1.0000 0.23470  0.28991  0.46170  Biso   1.000  C
  C146     1.0000 0.76530  0.28991  0.53830  Biso   1.000  C
  C147     1.0000 0.73470  0.78991  0.96170  Biso   1.000  C
  C148     1.0000 0.26530  0.78991  0.03830  Biso   1.000  C
  C149     1.0000 0.76530  0.71009  0.53830  Biso   1.000  C
  C150     1.0000 0.23470  0.71009  0.46170  Biso   1.000  C
  C151     1.0000 0.26530  0.21009  0.03830  Biso   1.000  C
  C152     1.0000 0.73470  0.21009  0.96170  Biso   1.000  C
  H73      1.0000 0.27970  0.30580  0.49180  Biso   1.000  H
  H74      1.0000 0.72030  0.30580  0.50820  Biso   1.000  H
  H75      1.0000 0.77970  0.80580  0.99180  Biso   1.000  H
  H76      1.0000 0.22030  0.80580  0.00820  Biso   1.000  H
  H77      1.0000 0.72030  0.69420  0.50820  Biso   1.000  H
  H78      1.0000 0.27970  0.69420  0.49180  Biso   1.000  H
  H79      1.0000 0.22030  0.19420  0.00820  Biso   1.000  H
  H80      1.0000 0.77970  0.19420  0.99180  Biso   1.000  H
  C153     1.0000 0.21880  0.29355  0.37640  Biso   1.000  C
  C154     1.0000 0.78120  0.29355  0.62360  Biso   1.000  C
  C155     1.0000 0.71880  0.79355  0.87640  Biso   1.000  C
  C156     1.0000 0.28120  0.79355  0.12360  Biso   1.000  C
  C157     1.0000 0.78120  0.70645  0.62360  Biso   1.000  C
  C158     1.0000 0.21880  0.70645  0.37640  Biso   1.000  C
  C159     1.0000 0.28120  0.20645  0.12360  Biso   1.000  C
  C160     1.0000 0.71880  0.20645  0.87640  Biso   1.000  C
  H81      1.0000 0.25320  0.31160  0.34960  Biso   1.000  H
  H82      1.0000 0.74680  0.31160  0.65040  Biso   1.000  H
  H83      1.0000 0.75320  0.81160  0.84960  Biso   1.000  H
  H84      1.0000 0.24680  0.81160  0.15040  Biso   1.000  H
  H85      1.0000 0.74680  0.68840  0.65040  Biso   1.000  H
  H86      1.0000 0.25320  0.68840  0.34960  Biso   1.000  H
  H87      1.0000 0.24680  0.18840  0.15040  Biso   1.000  H
  H88      1.0000 0.75320  0.18840  0.84960  Biso   1.000  H
  C161     1.0000 0.20730  0.25870  0.59550  Biso   1.000  C
  C162     1.0000 0.79270  0.25870  0.40450  Biso   1.000  C
  C163     1.0000 0.70730  0.75870  0.09550  Biso   1.000  C
  C164     1.0000 0.29270  0.75870  0.90450  Biso   1.000  C
  C165     1.0000 0.79270  0.74130  0.40450  Biso   1.000  C
  C166     1.0000 0.20730  0.74130  0.59550  Biso   1.000  C
  C167     1.0000 0.29270  0.24130  0.90450  Biso   1.000  C
  C168     1.0000 0.70730  0.24130  0.09550  Biso   1.000  C
  C169     1.0000 0.33780  0.18562  0.72180  Biso   1.000  C
  C170     1.0000 0.66220  0.18562  0.27820  Biso   1.000  C
  C171     1.0000 0.83780  0.68562  0.22180  Biso   1.000  C
  C172     1.0000 0.16220  0.68562  0.77820  Biso   1.000  C
  C173     1.0000 0.66220  0.81438  0.27820  Biso   1.000  C
  C174     1.0000 0.33780  0.81438  0.72180  Biso   1.000  C
  C175     1.0000 0.16220  0.31438  0.77820  Biso   1.000  C
  C176     1.0000 0.83780  0.31438  0.22180  Biso   1.000  C
  C177     1.0000 0.38520  0.14698  0.70090  Biso   1.000  C
  C178     1.0000 0.61480  0.14698  0.29910  Biso   1.000  C
  C179     1.0000 0.88520  0.64698  0.20090  Biso   1.000  C
  C180     1.0000 0.11480  0.64698  0.79910  Biso   1.000  C
  C181     1.0000 0.61480  0.85302  0.29910  Biso   1.000  C
  C182     1.0000 0.38520  0.85302  0.70090  Biso   1.000  C
  C183     1.0000 0.11480  0.35302  0.79910  Biso   1.000  C
  C184     1.0000 0.88520  0.35302  0.20090  Biso   1.000  C
  C185     1.0000 0.34650  0.10780  0.70420  Biso   1.000  C
  C186     1.0000 0.65350  0.10780  0.29580  Biso   1.000  C
  C187     1.0000 0.84650  0.60780  0.20420  Biso   1.000  C
  C188     1.0000 0.15350  0.60780  0.79580  Biso   1.000  C
  C189     1.0000 0.65350  0.89220  0.29580  Biso   1.000  C
  C190     1.0000 0.34650  0.89220  0.70420  Biso   1.000  C
  C191     1.0000 0.15350  0.39220  0.79580  Biso   1.000  C
  C192     1.0000 0.84650  0.39220  0.20420  Biso   1.000  C
  H89      1.0000 0.29070  0.10560  0.72130  Biso   1.000  H
  H90      1.0000 0.70930  0.10560  0.27870  Biso   1.000  H
  H91      1.0000 0.79070  0.60560  0.22130  Biso   1.000  H
  H92      1.0000 0.20930  0.60560  0.77870  Biso   1.000  H
  H93      1.0000 0.70930  0.89440  0.27870  Biso   1.000  H
  H94      1.0000 0.29070  0.89440  0.72130  Biso   1.000  H
  H95      1.0000 0.20930  0.39440  0.77870  Biso   1.000  H
  H96      1.0000 0.79070  0.39440  0.22130  Biso   1.000  H
  C193     1.0000 0.38910  0.07208  0.68290  Biso   1.000  C
  C194     1.0000 0.61090  0.07208  0.31710  Biso   1.000  C
  C195     1.0000 0.88910  0.57208  0.18290  Biso   1.000  C
  C196     1.0000 0.11090  0.57208  0.81710  Biso   1.000  C
  C197     1.0000 0.61090  0.92792  0.31710  Biso   1.000  C
  C198     1.0000 0.38910  0.92792  0.68290  Biso   1.000  C
  C199     1.0000 0.11090  0.42792  0.81710  Biso   1.000  C
  C200     1.0000 0.88910  0.42792  0.18290  Biso   1.000  C
  H97      1.0000 0.36200  0.04630  0.68650  Biso   1.000  H
  H98      1.0000 0.63800  0.04630  0.31350  Biso   1.000  H
  H99      1.0000 0.86200  0.54630  0.18650  Biso   1.000  H
  H100     1.0000 0.13800  0.54630  0.81350  Biso   1.000  H
  H101     1.0000 0.63800  0.95370  0.31350  Biso   1.000  H
  H102     1.0000 0.36200  0.95370  0.68650  Biso   1.000  H
  H103     1.0000 0.13800  0.45370  0.81350  Biso   1.000  H
  H104     1.0000 0.86200  0.45370  0.18650  Biso   1.000  H
  C201     1.0000 0.47190  0.07464  0.65600  Biso   1.000  C
  C202     1.0000 0.52810  0.07464  0.34400  Biso   1.000  C
  C203     1.0000 0.97190  0.57464  0.15600  Biso   1.000  C
  C204     1.0000 0.02810  0.57464  0.84400  Biso   1.000  C
  C205     1.0000 0.52810  0.92536  0.34400  Biso   1.000  C
  C206     1.0000 0.47190  0.92536  0.65600  Biso   1.000  C
  C207     1.0000 0.02810  0.42536  0.84400  Biso   1.000  C
  C208     1.0000 0.97190  0.42536  0.15600  Biso   1.000  C
  C209     1.0000 0.51000  0.11350  0.65090  Biso   1.000  C
  C210     1.0000 0.49000  0.11350  0.34910  Biso   1.000  C
  C211     1.0000 0.01000  0.61350  0.15090  Biso   1.000  C
  C212     1.0000 0.99000  0.61350  0.84910  Biso   1.000  C
  C213     1.0000 0.49000  0.88650  0.34910  Biso   1.000  C
  C214     1.0000 0.51000  0.88650  0.65090  Biso   1.000  C
  C215     1.0000 0.99000  0.38650  0.84910  Biso   1.000  C
  C216     1.0000 0.01000  0.38650  0.15090  Biso   1.000  C
  H105     1.0000 0.56430  0.11580  0.63080  Biso   1.000  H
  H106     1.0000 0.43570  0.11580  0.36920  Biso   1.000  H
  H107     1.0000 0.06430  0.61580  0.13080  Biso   1.000  H
  H108     1.0000 0.93570  0.61580  0.86920  Biso   1.000  H
  H109     1.0000 0.43570  0.88420  0.36920  Biso   1.000  H
  H110     1.0000 0.56430  0.88420  0.63080  Biso   1.000  H
  H111     1.0000 0.93570  0.38420  0.86920  Biso   1.000  H
  H112     1.0000 0.06430  0.38420  0.13080  Biso   1.000  H
  C217     1.0000 0.46870  0.14910  0.67510  Biso   1.000  C
  C218     1.0000 0.53130  0.14910  0.32490  Biso   1.000  C
  C219     1.0000 0.96870  0.64910  0.17510  Biso   1.000  C
  C220     1.0000 0.03130  0.64910  0.82490  Biso   1.000  C
  C221     1.0000 0.53130  0.85090  0.32490  Biso   1.000  C
  C222     1.0000 0.46870  0.85090  0.67510  Biso   1.000  C
  C223     1.0000 0.03130  0.35090  0.82490  Biso   1.000  C
  C224     1.0000 0.96870  0.35090  0.17510  Biso   1.000  C
  H113     1.0000 0.49720  0.17470  0.67410  Biso   1.000  H
  H114     1.0000 0.50280  0.17470  0.32590  Biso   1.000  H
  H115     1.0000 0.99720  0.67470  0.17410  Biso   1.000  H
  H116     1.0000 0.00280  0.67470  0.82590  Biso   1.000  H
  H117     1.0000 0.50280  0.82530  0.32590  Biso   1.000  H
  H118     1.0000 0.49720  0.82530  0.67410  Biso   1.000  H
  H119     1.0000 0.00280  0.32530  0.82590  Biso   1.000  H
  H120     1.0000 0.99720  0.32530  0.17410  Biso   1.000  H
  C225     1.0000 0.51560  0.03617  0.63160  Biso   1.000  C
  C226     1.0000 0.48440  0.03617  0.36840  Biso   1.000  C
  C227     1.0000 0.01560  0.53617  0.13160  Biso   1.000  C
  C228     1.0000 0.98440  0.53617  0.86840  Biso   1.000  C
  C229     1.0000 0.48440  0.96383  0.36840  Biso   1.000  C
  C230     1.0000 0.51560  0.96383  0.63160  Biso   1.000  C
  C231     1.0000 0.98440  0.46383  0.86840  Biso   1.000  C
  C232     1.0000 0.01560  0.46383  0.13160  Biso   1.000  C
  C233     1.0000 0.58690  0.03680  0.58430  Biso   1.000  C
  C234     1.0000 0.41310  0.03680  0.41570  Biso   1.000  C
  C235     1.0000 0.08690  0.53680  0.08430  Biso   1.000  C
  C236     1.0000 0.91310  0.53680  0.91570  Biso   1.000  C
  C237     1.0000 0.41310  0.96320  0.41570  Biso   1.000  C
  C238     1.0000 0.58690  0.96320  0.58430  Biso   1.000  C
  C239     1.0000 0.91310  0.46320  0.91570  Biso   1.000  C
  C240     1.0000 0.08690  0.46320  0.08430  Biso   1.000  C
  H121     1.0000 0.60970  0.06200  0.56860  Biso   1.000  H
  H122     1.0000 0.39030  0.06200  0.43140  Biso   1.000  H
  H123     1.0000 0.10970  0.56200  0.06860  Biso   1.000  H
  H124     1.0000 0.89030  0.56200  0.93140  Biso   1.000  H
  H125     1.0000 0.39030  0.93800  0.43140  Biso   1.000  H
  H126     1.0000 0.60970  0.93800  0.56860  Biso   1.000  H
  H127     1.0000 0.89030  0.43800  0.93140  Biso   1.000  H
  H128     1.0000 0.10970  0.43800  0.06860  Biso   1.000  H
  C241     1.0000 0.62200  0.00000  0.56190  Biso   1.000  C
  C242     1.0000 0.37800  0.00000  0.43810  Biso   1.000  C
  C243     1.0000 0.12200  0.50000  0.06190  Biso   1.000  C
  C244     1.0000 0.87800  0.50000  0.93810  Biso   1.000  C
  H129     1.0000 0.66950  0.00000  0.53160  Biso   1.000  H
  H130     1.0000 0.33050  0.00000  0.46840  Biso   1.000  H
  H131     1.0000 0.16950  0.50000  0.03160  Biso   1.000  H
  H132     1.0000 0.83050  0.50000  0.96840  Biso   1.000  H
  C245     1.0000 0.07230  0.14930  0.75060  Biso   1.000  C
  C246     1.0000 0.92770  0.14930  0.24940  Biso   1.000  C
  C247     1.0000 0.57230  0.64930  0.25060  Biso   1.000  C
  C248     1.0000 0.42770  0.64930  0.74940  Biso   1.000  C
  C249     1.0000 0.92770  0.85070  0.24940  Biso   1.000  C
  C250     1.0000 0.07230  0.85070  0.75060  Biso   1.000  C
  C251     1.0000 0.42770  0.35070  0.74940  Biso   1.000  C
  C252     1.0000 0.57230  0.35070  0.25060  Biso   1.000  C
  C253     1.0000 0.08080  0.12950  0.67100  Biso   1.000  C
  C254     1.0000 0.91920  0.12950  0.32900  Biso   1.000  C
  C255     1.0000 0.58080  0.62950  0.17100  Biso   1.000  C
  C256     1.0000 0.41920  0.62950  0.82900  Biso   1.000  C
  C257     1.0000 0.91920  0.87050  0.32900  Biso   1.000  C
  C258     1.0000 0.08080  0.87050  0.67100  Biso   1.000  C
  C259     1.0000 0.41920  0.37050  0.82900  Biso   1.000  C
  C260     1.0000 0.58080  0.37050  0.17100  Biso   1.000  C
