data_image0
_cell_length_a       5.775
_cell_length_b       8.443
_cell_length_c       10.006
_cell_angle_alpha    82.22
_cell_angle_beta     76.84
_cell_angle_gamma    88.3

_symmetry_space_group_name_H-M    "P 1"
_symmetry_int_tables_number       1

loop_
  _symmetry_equiv_pos_as_xyz
  'x, y, z'

loop_
  _atom_site_label
  _atom_site_occupancy
  _atom_site_fract_x
  _atom_site_fract_y
  _atom_site_fract_z
  _atom_site_thermal_displace_type
  _atom_site_B_iso_or_equiv
  _atom_site_type_symbol
  Cu1      1.0000 0.21990  0.03090  0.05850  Biso   1.000  Cu
  Cu2      1.0000 0.78010  0.96910  0.94150  Biso   1.000  Cu
  N1       1.0000 0.53360  0.11190  0.88230  Biso   1.000  N
  N2       1.0000 0.46640  0.88810  0.11770  Biso   1.000  N
  N3       1.0000 0.53580  0.16170  0.76500  Biso   1.000  N
  N4       1.0000 0.46420  0.83830  0.23500  Biso   1.000  N
  N5       1.0000 0.53090  0.21080  0.65320  Biso   1.000  N
  N6       1.0000 0.46910  0.78920  0.34680  Biso   1.000  N
  N7       1.0000 0.02690  0.85170  0.02330  Biso   1.000  N
  N8       1.0000 0.97310  0.14830  0.97670  Biso   1.000  N
  N9       1.0000 0.00940  0.71720  0.08520  Biso   1.000  N
  N10      1.0000 0.99060  0.28280  0.91480  Biso   1.000  N
  N11      1.0000 0.00130  0.59000  0.13640  Biso   1.000  N
  N12      1.0000 0.99870  0.41000  0.86360  Biso   1.000  N
  N13      1.0000 0.24550  0.19460  0.19050  Biso   1.000  N
  N14      1.0000 0.75450  0.80540  0.80950  Biso   1.000  N
  C1       1.0000 0.08970  0.19010  0.31190  Biso   1.000  C
  C2       1.0000 0.91030  0.80990  0.68810  Biso   1.000  C
  C3       1.0000 0.10100  0.28460  0.40870  Biso   1.000  C
  C4       1.0000 0.89900  0.71540  0.59130  Biso   1.000  C
  C5       1.0000 0.28630  0.39160  0.38060  Biso   1.000  C
  C6       1.0000 0.71370  0.60840  0.61940  Biso   1.000  C
  C7       1.0000 0.45190  0.39760  0.25900  Biso   1.000  C
  C8       1.0000 0.54810  0.60240  0.74100  Biso   1.000  C
  C9       1.0000 0.42590  0.29870  0.16440  Biso   1.000  C
  C10      1.0000 0.57410  0.70130  0.83560  Biso   1.000  C
  Cl1      1.0000 0.86290  0.05120  0.34150  Biso   1.000  Cl
  Cl2      1.0000 0.13710  0.94880  0.65850  Biso   1.000  Cl
  H1       1.0000 0.98730  0.27770  0.49170  Biso   1.000  H
  H2       1.0000 0.01270  0.72230  0.50830  Biso   1.000  H
  H3       1.0000 0.29850  0.45960  0.44450  Biso   1.000  H
  H4       1.0000 0.70150  0.54040  0.55550  Biso   1.000  H
  H5       1.0000 0.58050  0.46730  0.24010  Biso   1.000  H
  H6       1.0000 0.41950  0.53270  0.75990  Biso   1.000  H
  H7       1.0000 0.53640  0.30450  0.08020  Biso   1.000  H
  H8       1.0000 0.46360  0.69550  0.91980  Biso   1.000  H
