data_image0
_cell_length_a       7.46
_cell_length_b       3.987
_cell_length_c       17.757
_cell_angle_alpha    90
_cell_angle_beta     92.15
_cell_angle_gamma    90

_symmetry_space_group_name_H-M    "P 1"
_symmetry_int_tables_number       1

loop_
  _symmetry_equiv_pos_as_xyz
  'x, y, z'

loop_
  _atom_site_label
  _atom_site_occupancy
  _atom_site_fract_x
  _atom_site_fract_y
  _atom_site_fract_z
  _atom_site_thermal_displace_type
  _atom_site_B_iso_or_equiv
  _atom_site_type_symbol
  Cu1      1.0000 0.50000  0.50000  0.00000  Biso   1.000  Cu
  Cu2      1.0000 0.50000  0.00000  0.50000  Biso   1.000  Cu
  Br1      1.0000 0.71340  0.11390  0.06530  Biso   1.000  Br
  Br2      1.0000 0.28660  0.61390  0.43470  Biso   1.000  Br
  Br3      1.0000 0.28660  0.88610  0.93470  Biso   1.000  Br
  Br4      1.0000 0.71340  0.38610  0.56530  Biso   1.000  Br
  N1       1.0000 0.34810  0.49900  0.08960  Biso   1.000  N
  N2       1.0000 0.65190  0.99900  0.41040  Biso   1.000  N
  N3       1.0000 0.65190  0.50100  0.91040  Biso   1.000  N
  N4       1.0000 0.34810  0.00100  0.58960  Biso   1.000  N
  S1       1.0000 0.08040  0.44760  0.17240  Biso   1.000  S
  S2       1.0000 0.91960  0.94760  0.32760  Biso   1.000  S
  S3       1.0000 0.91960  0.55240  0.82760  Biso   1.000  S
  S4       1.0000 0.08040  0.05240  0.67240  Biso   1.000  S
  C1       1.0000 0.17910  0.41100  0.08810  Biso   1.000  C
  C2       1.0000 0.82090  0.91100  0.41190  Biso   1.000  C
  C3       1.0000 0.82090  0.58900  0.91190  Biso   1.000  C
  C4       1.0000 0.17910  0.08900  0.58810  Biso   1.000  C
  C5       1.0000 0.27740  0.58700  0.21320  Biso   1.000  C
  C6       1.0000 0.72260  0.08700  0.28680  Biso   1.000  C
  C7       1.0000 0.72260  0.41300  0.78680  Biso   1.000  C
  C8       1.0000 0.27740  0.91300  0.71320  Biso   1.000  C
  C9       1.0000 0.40570  0.59700  0.16040  Biso   1.000  C
  C10      1.0000 0.59430  0.09700  0.33960  Biso   1.000  C
  C11      1.0000 0.59430  0.40300  0.83960  Biso   1.000  C
  C12      1.0000 0.40570  0.90300  0.66040  Biso   1.000  C
  H1       1.0000 0.11560  0.33260  0.04200  Biso   1.000  H
  H2       1.0000 0.88440  0.83260  0.45800  Biso   1.000  H
  H3       1.0000 0.88440  0.66740  0.95800  Biso   1.000  H
  H4       1.0000 0.11560  0.16740  0.54200  Biso   1.000  H
  H5       1.0000 0.29530  0.64960  0.26580  Biso   1.000  H
  H6       1.0000 0.70470  0.14960  0.23420  Biso   1.000  H
  H7       1.0000 0.70470  0.35040  0.73420  Biso   1.000  H
  H8       1.0000 0.29530  0.85040  0.76580  Biso   1.000  H
  H9       1.0000 0.52800  0.66750  0.17210  Biso   1.000  H
  H10      1.0000 0.47200  0.16750  0.32790  Biso   1.000  H
  H11      1.0000 0.47200  0.33250  0.82790  Biso   1.000  H
  H12      1.0000 0.52800  0.83250  0.67210  Biso   1.000  H
