data_image0
_cell_length_a       12.046
_cell_length_b       12.945
_cell_length_c       13.534
_cell_angle_alpha    90
_cell_angle_beta     102.44
_cell_angle_gamma    90

_symmetry_space_group_name_H-M    "P 1"
_symmetry_int_tables_number       1

loop_
  _symmetry_equiv_pos_as_xyz
  'x, y, z'

loop_
  _atom_site_label
  _atom_site_occupancy
  _atom_site_fract_x
  _atom_site_fract_y
  _atom_site_fract_z
  _atom_site_thermal_displace_type
  _atom_site_B_iso_or_equiv
  _atom_site_type_symbol
  Cu1      1.0000 0.74342  0.55102  0.70671  Biso   1.000  Cu
  Cu2      1.0000 0.25658  0.05102  0.79329  Biso   1.000  Cu
  Cu3      1.0000 0.25658  0.44898  0.29329  Biso   1.000  Cu
  Cu4      1.0000 0.74342  0.94898  0.20671  Biso   1.000  Cu
  O1       1.0000 0.62093  0.65424  0.69558  Biso   1.000  O
  O2       1.0000 0.37907  0.15424  0.80442  Biso   1.000  O
  O3       1.0000 0.37907  0.34576  0.30442  Biso   1.000  O
  O4       1.0000 0.62093  0.84576  0.19558  Biso   1.000  O
  O5       1.0000 0.86248  0.44699  0.71807  Biso   1.000  O
  O6       1.0000 0.13752  0.94699  0.78193  Biso   1.000  O
  O7       1.0000 0.13752  0.55301  0.28193  Biso   1.000  O
  O8       1.0000 0.86248  0.05301  0.21807  Biso   1.000  O
  O9       1.0000 0.90928  0.46138  0.88639  Biso   1.000  O
  O10      1.0000 0.09072  0.96138  0.61361  Biso   1.000  O
  O11      1.0000 0.09072  0.53862  0.11361  Biso   1.000  O
  O12      1.0000 0.90928  0.03862  0.38639  Biso   1.000  O
  O13      1.0000 0.71774  0.53130  0.53225  Biso   1.000  O
  O14      1.0000 0.28226  0.03130  0.96775  Biso   1.000  O
  O15      1.0000 0.28226  0.46870  0.46775  Biso   1.000  O
  O16      1.0000 0.71774  0.96870  0.03225  Biso   1.000  O
  O17      1.0000 0.69243  0.68825  0.85841  Biso   1.000  O
  O18      1.0000 0.30757  0.18825  0.64159  Biso   1.000  O
  O19      1.0000 0.30757  0.31175  0.14159  Biso   1.000  O
  O20      1.0000 0.69243  0.81175  0.35841  Biso   1.000  O
  N1       1.0000 0.37096  0.93930  0.78185  Biso   1.000  N
  N2       1.0000 0.62904  0.43930  0.71815  Biso   1.000  N
  N3       1.0000 0.62904  0.06070  0.21815  Biso   1.000  N
  N4       1.0000 0.37096  0.56070  0.28185  Biso   1.000  N
  N5       1.0000 0.14580  0.16598  0.79827  Biso   1.000  N
  N6       1.0000 0.85420  0.66598  0.70173  Biso   1.000  N
  N7       1.0000 0.85420  0.83402  0.20173  Biso   1.000  N
  N8       1.0000 0.14580  0.33402  0.29827  Biso   1.000  N
  N9       1.0000 0.10593  0.36277  0.97807  Biso   1.000  N
  N10      1.0000 0.89407  0.86277  0.52193  Biso   1.000  N
  N11      1.0000 0.89407  0.63723  0.02193  Biso   1.000  N
  N12      1.0000 0.10593  0.13723  0.47807  Biso   1.000  N
  N13      1.0000 0.41648  0.73528  0.61022  Biso   1.000  N
  N14      1.0000 0.58352  0.23528  0.88978  Biso   1.000  N
  N15      1.0000 0.58352  0.26472  0.38978  Biso   1.000  N
  N16      1.0000 0.41648  0.76472  0.11022  Biso   1.000  N
  N17      1.0000 0.82483  0.45465  0.43389  Biso   1.000  N
  N18      1.0000 0.17517  0.95465  0.06611  Biso   1.000  N
  N19      1.0000 0.17517  0.54535  0.56611  Biso   1.000  N
  N20      1.0000 0.82483  0.04535  0.93389  Biso   1.000  N
  C1       1.0000 0.53294  0.78535  0.77480  Biso   1.000  C
  C2       1.0000 0.46706  0.28535  0.72520  Biso   1.000  C
  C3       1.0000 0.46706  0.21465  0.22520  Biso   1.000  C
  C4       1.0000 0.53294  0.71465  0.27480  Biso   1.000  C
  C5       1.0000 0.08811  0.30946  0.88985  Biso   1.000  C
  C6       1.0000 0.91189  0.80946  0.61015  Biso   1.000  C
  C7       1.0000 0.91189  0.69054  0.11015  Biso   1.000  C
  C8       1.0000 0.08811  0.19054  0.38985  Biso   1.000  C
  C9       1.0000 0.16030  0.22651  0.87945  Biso   1.000  C
  C10      1.0000 0.83970  0.72651  0.62055  Biso   1.000  C
  C11      1.0000 0.83970  0.77349  0.12055  Biso   1.000  C
  C12      1.0000 0.16030  0.27349  0.37945  Biso   1.000  C
  H1       1.0000 0.22180  0.21320  0.93250  Biso   1.000  H
  H2       1.0000 0.77820  0.71320  0.56750  Biso   1.000  H
  H3       1.0000 0.77820  0.78680  0.06750  Biso   1.000  H
  H4       1.0000 0.22180  0.28680  0.43250  Biso   1.000  H
  C13      1.0000 0.00017  0.33259  0.80553  Biso   1.000  C
  C14      1.0000 0.99983  0.83259  0.69447  Biso   1.000  C
  C15      1.0000 0.99983  0.66741  0.19447  Biso   1.000  C
  C16      1.0000 0.00017  0.16741  0.30553  Biso   1.000  C
  C17      1.0000 0.76372  0.45474  0.50435  Biso   1.000  C
  C18      1.0000 0.23628  0.95474  0.99565  Biso   1.000  C
  C19      1.0000 0.23628  0.54526  0.49565  Biso   1.000  C
  C20      1.0000 0.76372  0.04526  0.00435  Biso   1.000  C
  H5       1.0000 0.75480  0.39200  0.53530  Biso   1.000  H
  H6       1.0000 0.24520  0.89200  0.96470  Biso   1.000  H
  H7       1.0000 0.24520  0.60800  0.46470  Biso   1.000  H
  H8       1.0000 0.75480  0.10800  0.03530  Biso   1.000  H
  C21      1.0000 0.98631  0.26788  0.72136  Biso   1.000  C
  C22      1.0000 0.01369  0.76788  0.77864  Biso   1.000  C
  C23      1.0000 0.01369  0.73212  0.27864  Biso   1.000  C
  C24      1.0000 0.98631  0.23212  0.22136  Biso   1.000  C
  H9       1.0000 0.92800  0.28090  0.66550  Biso   1.000  H
  H10      1.0000 0.07200  0.78090  0.83450  Biso   1.000  H
  H11      1.0000 0.07200  0.71910  0.33450  Biso   1.000  H
  H12      1.0000 0.92800  0.21910  0.16550  Biso   1.000  H
  C25      1.0000 0.43765  0.79715  0.69408  Biso   1.000  C
  C26      1.0000 0.56235  0.29715  0.80592  Biso   1.000  C
  C27      1.0000 0.56235  0.20285  0.30592  Biso   1.000  C
  C28      1.0000 0.43765  0.70285  0.19408  Biso   1.000  C
  C29      1.0000 0.91878  0.42104  0.80555  Biso   1.000  C
  C30      1.0000 0.08122  0.92104  0.69445  Biso   1.000  C
  C31      1.0000 0.08122  0.57896  0.19445  Biso   1.000  C
  C32      1.0000 0.91878  0.07896  0.30555  Biso   1.000  C
  C33      1.0000 0.54275  0.85251  0.85635  Biso   1.000  C
  C34      1.0000 0.45725  0.35251  0.64365  Biso   1.000  C
  C35      1.0000 0.45725  0.14749  0.14365  Biso   1.000  C
  C36      1.0000 0.54275  0.64749  0.35635  Biso   1.000  C
  H13      1.0000 0.60400  0.84570  0.91100  Biso   1.000  H
  H14      1.0000 0.39600  0.34570  0.58900  Biso   1.000  H
  H15      1.0000 0.39600  0.15430  0.08900  Biso   1.000  H
  H16      1.0000 0.60400  0.65430  0.41100  Biso   1.000  H
  C37      1.0000 0.35839  0.87477  0.70379  Biso   1.000  C
  C38      1.0000 0.64161  0.37477  0.79621  Biso   1.000  C
  C39      1.0000 0.64161  0.12523  0.29621  Biso   1.000  C
  C40      1.0000 0.35839  0.62523  0.20379  Biso   1.000  C
  H17      1.0000 0.29350  0.88110  0.65250  Biso   1.000  H
  H18      1.0000 0.70650  0.38110  0.84750  Biso   1.000  H
  H19      1.0000 0.70650  0.11890  0.34750  Biso   1.000  H
  H20      1.0000 0.29350  0.61890  0.15250  Biso   1.000  H
  C41      1.0000 0.05763  0.18501  0.71969  Biso   1.000  C
  C42      1.0000 0.94237  0.68501  0.78031  Biso   1.000  C
  C43      1.0000 0.94237  0.81499  0.28031  Biso   1.000  C
  C44      1.0000 0.05763  0.31499  0.21969  Biso   1.000  C
  H21      1.0000 0.04500  0.14150  0.66370  Biso   1.000  H
  H22      1.0000 0.95500  0.64150  0.83630  Biso   1.000  H
  H23      1.0000 0.95500  0.85850  0.33630  Biso   1.000  H
  H24      1.0000 0.04500  0.35850  0.16370  Biso   1.000  H
  C45      1.0000 0.62290  0.70343  0.77833  Biso   1.000  C
  C46      1.0000 0.37710  0.20343  0.72167  Biso   1.000  C
  C47      1.0000 0.37710  0.29657  0.22167  Biso   1.000  C
  C48      1.0000 0.62290  0.79657  0.27833  Biso   1.000  C
  C49      1.0000 0.46360  0.92900  0.85788  Biso   1.000  C
  C50      1.0000 0.53640  0.42900  0.64212  Biso   1.000  C
  C51      1.0000 0.53640  0.07100  0.14212  Biso   1.000  C
  C52      1.0000 0.46360  0.57100  0.35788  Biso   1.000  C
  H25      1.0000 0.47410  0.97450  0.91230  Biso   1.000  H
  H26      1.0000 0.52590  0.47450  0.58770  Biso   1.000  H
  H27      1.0000 0.52590  0.02550  0.08770  Biso   1.000  H
  H28      1.0000 0.47410  0.52550  0.41230  Biso   1.000  H
  C53      1.0000 0.84840  0.54870  0.38380  Biso   1.000  C
  C54      1.0000 0.15160  0.04870  0.11620  Biso   1.000  C
  C55      1.0000 0.15160  0.45130  0.61620  Biso   1.000  C
  C56      1.0000 0.84840  0.95130  0.88380  Biso   1.000  C
  H29      1.0000 0.81320  0.54480  0.31310  Biso   1.000  H
  H30      1.0000 0.18680  0.04480  0.18690  Biso   1.000  H
  H31      1.0000 0.18680  0.45520  0.68690  Biso   1.000  H
  H32      1.0000 0.81320  0.95520  0.81310  Biso   1.000  H
  H33      1.0000 0.92910  0.55650  0.39150  Biso   1.000  H
  H34      1.0000 0.07090  0.05650  0.10850  Biso   1.000  H
  H35      1.0000 0.07090  0.44350  0.60850  Biso   1.000  H
  H36      1.0000 0.92910  0.94350  0.89150  Biso   1.000  H
  H37      1.0000 0.81850  0.60690  0.41350  Biso   1.000  H
  H38      1.0000 0.18150  0.10690  0.08650  Biso   1.000  H
  H39      1.0000 0.18150  0.39310  0.58650  Biso   1.000  H
  H40      1.0000 0.81850  0.89310  0.91350  Biso   1.000  H
  C57      1.0000 0.87170  0.35890  0.40330  Biso   1.000  C
  C58      1.0000 0.12830  0.85890  0.09670  Biso   1.000  C
  C59      1.0000 0.12830  0.64110  0.59670  Biso   1.000  C
  C60      1.0000 0.87170  0.14110  0.90330  Biso   1.000  C
  H41      1.0000 0.85660  0.30330  0.44550  Biso   1.000  H
  H42      1.0000 0.14340  0.80330  0.05450  Biso   1.000  H
  H43      1.0000 0.14340  0.69670  0.55450  Biso   1.000  H
  H44      1.0000 0.85660  0.19670  0.94550  Biso   1.000  H
  H45      1.0000 0.95230  0.36620  0.41030  Biso   1.000  H
  H46      1.0000 0.04770  0.86620  0.08970  Biso   1.000  H
  H47      1.0000 0.04770  0.63380  0.58970  Biso   1.000  H
  H48      1.0000 0.95230  0.13380  0.91030  Biso   1.000  H
  H49      1.0000 0.83710  0.34410  0.33400  Biso   1.000  H
  H50      1.0000 0.16290  0.84410  0.16600  Biso   1.000  H
  H51      1.0000 0.16290  0.65590  0.66600  Biso   1.000  H
  H52      1.0000 0.83710  0.15590  0.83400  Biso   1.000  H
  H53      1.0000 0.16100  0.34690  0.02400  Biso   1.000  H
  H54      1.0000 0.83900  0.84690  0.47600  Biso   1.000  H
  H55      1.0000 0.83900  0.65310  0.97600  Biso   1.000  H
  H56      1.0000 0.16100  0.15310  0.52400  Biso   1.000  H
  H57      1.0000 0.05800  0.41400  0.98500  Biso   1.000  H
  H58      1.0000 0.94200  0.91400  0.51500  Biso   1.000  H
  H59      1.0000 0.94200  0.58600  0.01500  Biso   1.000  H
  H60      1.0000 0.05800  0.08600  0.48500  Biso   1.000  H
  H61      1.0000 0.36800  0.75900  0.55700  Biso   1.000  H
  H62      1.0000 0.63200  0.25900  0.94300  Biso   1.000  H
  H63      1.0000 0.63200  0.24100  0.44300  Biso   1.000  H
  H64      1.0000 0.36800  0.74100  0.05700  Biso   1.000  H
  H65      1.0000 0.47200  0.69700  0.59900  Biso   1.000  H
  H66      1.0000 0.52800  0.19700  0.90100  Biso   1.000  H
  H67      1.0000 0.52800  0.30300  0.40100  Biso   1.000  H
  H68      1.0000 0.47200  0.80300  0.09900  Biso   1.000  H
  O21      1.0000 0.24726  0.82719  0.43971  Biso   1.000  O
  O22      1.0000 0.75274  0.32719  0.06029  Biso   1.000  O
  O23      1.0000 0.75274  0.17281  0.56029  Biso   1.000  O
  O24      1.0000 0.24726  0.67281  0.93971  Biso   1.000  O
  N21      1.0000 0.33690  0.97236  0.40101  Biso   1.000  N
  N22      1.0000 0.66310  0.47236  0.09899  Biso   1.000  N
  N23      1.0000 0.66310  0.02764  0.59899  Biso   1.000  N
  N24      1.0000 0.33690  0.52764  0.90101  Biso   1.000  N
  C61      1.0000 0.26760  0.92070  0.44796  Biso   1.000  C
  C62      1.0000 0.73240  0.42070  0.05204  Biso   1.000  C
  C63      1.0000 0.73240  0.07930  0.55204  Biso   1.000  C
  C64      1.0000 0.26760  0.57930  0.94796  Biso   1.000  C
  H69      1.0000 0.23160  0.95820  0.49060  Biso   1.000  H
  H70      1.0000 0.76840  0.45820  0.00940  Biso   1.000  H
  H71      1.0000 0.76840  0.04180  0.50940  Biso   1.000  H
  H72      1.0000 0.23160  0.54180  0.99060  Biso   1.000  H
  C65      1.0000 0.36620  0.07960  0.42350  Biso   1.000  C
  C66      1.0000 0.63380  0.57960  0.07650  Biso   1.000  C
  C67      1.0000 0.63380  0.92040  0.57650  Biso   1.000  C
  C68      1.0000 0.36620  0.42040  0.92350  Biso   1.000  C
  H73      1.0000 0.33840  0.12090  0.36440  Biso   1.000  H
  H74      1.0000 0.66160  0.62090  0.13560  Biso   1.000  H
  H75      1.0000 0.66160  0.87910  0.63560  Biso   1.000  H
  H76      1.0000 0.33840  0.37910  0.86440  Biso   1.000  H
  H77      1.0000 0.44730  0.08640  0.44330  Biso   1.000  H
  H78      1.0000 0.55270  0.58640  0.05670  Biso   1.000  H
  H79      1.0000 0.55270  0.91360  0.55670  Biso   1.000  H
  H80      1.0000 0.44730  0.41360  0.94330  Biso   1.000  H
  H81      1.0000 0.33230  0.10260  0.47760  Biso   1.000  H
  H82      1.0000 0.66770  0.60260  0.02240  Biso   1.000  H
  H83      1.0000 0.66770  0.89740  0.52240  Biso   1.000  H
  H84      1.0000 0.33230  0.39740  0.97760  Biso   1.000  H
  C69      1.0000 0.39200  0.92160  0.32910  Biso   1.000  C
  C70      1.0000 0.60800  0.42160  0.17090  Biso   1.000  C
  C71      1.0000 0.60800  0.07840  0.67090  Biso   1.000  C
  C72      1.0000 0.39200  0.57840  0.82910  Biso   1.000  C
  H85      1.0000 0.47270  0.92130  0.35480  Biso   1.000  H
  H86      1.0000 0.52730  0.42130  0.14520  Biso   1.000  H
  H87      1.0000 0.52730  0.07870  0.64520  Biso   1.000  H
  H88      1.0000 0.47270  0.57870  0.85480  Biso   1.000  H
  H89      1.0000 0.37460  0.95790  0.26590  Biso   1.000  H
  H90      1.0000 0.62540  0.45790  0.23410  Biso   1.000  H
  H91      1.0000 0.62540  0.04210  0.73410  Biso   1.000  H
  H92      1.0000 0.37460  0.54210  0.76590  Biso   1.000  H
  H93      1.0000 0.36510  0.85170  0.31910  Biso   1.000  H
  H94      1.0000 0.63490  0.35170  0.18090  Biso   1.000  H
  H95      1.0000 0.63490  0.14830  0.68090  Biso   1.000  H
  H96      1.0000 0.36510  0.64830  0.81910  Biso   1.000  H
