data_image0
_cell_length_a       14.0513
_cell_length_b       16.6342
_cell_length_c       14.6486
_cell_angle_alpha    90
_cell_angle_beta     90
_cell_angle_gamma    90

_symmetry_space_group_name_H-M    "P 1"
_symmetry_int_tables_number       1

loop_
  _symmetry_equiv_pos_as_xyz
  'x, y, z'

loop_
  _atom_site_label
  _atom_site_occupancy
  _atom_site_fract_x
  _atom_site_fract_y
  _atom_site_fract_z
  _atom_site_thermal_displace_type
  _atom_site_B_iso_or_equiv
  _atom_site_type_symbol
  Cu1      1.0000 0.71510  0.32651  0.50000  Biso   1.000  Cu
  Cu2      1.0000 0.28490  0.67349  0.50000  Biso   1.000  Cu
  Cu3      1.0000 0.28490  0.32651  0.00000  Biso   1.000  Cu
  Cu4      1.0000 0.71510  0.67349  0.00000  Biso   1.000  Cu
  Cu5      1.0000 0.21510  0.82651  0.50000  Biso   1.000  Cu
  Cu6      1.0000 0.78490  0.17349  0.50000  Biso   1.000  Cu
  Cu7      1.0000 0.78490  0.82651  0.00000  Biso   1.000  Cu
  Cu8      1.0000 0.21510  0.17349  0.00000  Biso   1.000  Cu
  S1       1.0000 0.50000  0.25761  0.25000  Biso   1.000  S
  S2       1.0000 0.50000  0.74239  0.25000  Biso   1.000  S
  S3       1.0000 0.00000  0.75761  0.25000  Biso   1.000  S
  S4       1.0000 0.00000  0.24239  0.25000  Biso   1.000  S
  S5       1.0000 0.50000  0.74239  0.75000  Biso   1.000  S
  S6       1.0000 0.50000  0.25761  0.75000  Biso   1.000  S
  S7       1.0000 0.00000  0.24239  0.75000  Biso   1.000  S
  S8       1.0000 0.00000  0.75761  0.75000  Biso   1.000  S
  O1       1.0000 0.63120  0.28120  0.40490  Biso   1.000  O
  O2       1.0000 0.36880  0.71880  0.40490  Biso   1.000  O
  O3       1.0000 0.36880  0.28120  0.09510  Biso   1.000  O
  O4       1.0000 0.63120  0.71880  0.09510  Biso   1.000  O
  O5       1.0000 0.13120  0.78120  0.40490  Biso   1.000  O
  O6       1.0000 0.86880  0.21880  0.40490  Biso   1.000  O
  O7       1.0000 0.86880  0.78120  0.09510  Biso   1.000  O
  O8       1.0000 0.13120  0.21880  0.09510  Biso   1.000  O
  O9       1.0000 0.36880  0.71880  0.59510  Biso   1.000  O
  O10      1.0000 0.63120  0.28120  0.59510  Biso   1.000  O
  O11      1.0000 0.63120  0.71880  0.90490  Biso   1.000  O
  O12      1.0000 0.36880  0.28120  0.90490  Biso   1.000  O
  O13      1.0000 0.86880  0.21880  0.59510  Biso   1.000  O
  O14      1.0000 0.13120  0.78120  0.59510  Biso   1.000  O
  O15      1.0000 0.13120  0.21880  0.90490  Biso   1.000  O
  O16      1.0000 0.86880  0.78120  0.90490  Biso   1.000  O
  O17      1.0000 0.68690  0.15490  0.40700  Biso   1.000  O
  O18      1.0000 0.31310  0.84510  0.40700  Biso   1.000  O
  O19      1.0000 0.31310  0.15490  0.09300  Biso   1.000  O
  O20      1.0000 0.68690  0.84510  0.09300  Biso   1.000  O
  O21      1.0000 0.18690  0.65490  0.40700  Biso   1.000  O
  O22      1.0000 0.81310  0.34510  0.40700  Biso   1.000  O
  O23      1.0000 0.81310  0.65490  0.09300  Biso   1.000  O
  O24      1.0000 0.18690  0.34510  0.09300  Biso   1.000  O
  O25      1.0000 0.31310  0.84510  0.59300  Biso   1.000  O
  O26      1.0000 0.68690  0.15490  0.59300  Biso   1.000  O
  O27      1.0000 0.68690  0.84510  0.90700  Biso   1.000  O
  O28      1.0000 0.31310  0.15490  0.90700  Biso   1.000  O
  O29      1.0000 0.81310  0.34510  0.59300  Biso   1.000  O
  O30      1.0000 0.18690  0.65490  0.59300  Biso   1.000  O
  O31      1.0000 0.18690  0.34510  0.90700  Biso   1.000  O
  O32      1.0000 0.81310  0.65490  0.90700  Biso   1.000  O
  N1       1.0000 0.65210  0.44080  0.47290  Biso   1.000  N
  N2       1.0000 0.34790  0.55920  0.47290  Biso   1.000  N
  N3       1.0000 0.34790  0.44080  0.02710  Biso   1.000  N
  N4       1.0000 0.65210  0.55920  0.02710  Biso   1.000  N
  N5       1.0000 0.15210  0.94080  0.47290  Biso   1.000  N
  N6       1.0000 0.84790  0.05920  0.47290  Biso   1.000  N
  N7       1.0000 0.84790  0.94080  0.02710  Biso   1.000  N
  N8       1.0000 0.15210  0.05920  0.02710  Biso   1.000  N
  N9       1.0000 0.34790  0.55920  0.52710  Biso   1.000  N
  N10      1.0000 0.65210  0.44080  0.52710  Biso   1.000  N
  N11      1.0000 0.65210  0.55920  0.97290  Biso   1.000  N
  N12      1.0000 0.34790  0.44080  0.97290  Biso   1.000  N
  N13      1.0000 0.84790  0.05920  0.52710  Biso   1.000  N
  N14      1.0000 0.15210  0.94080  0.52710  Biso   1.000  N
  N15      1.0000 0.15210  0.05920  0.97290  Biso   1.000  N
  N16      1.0000 0.84790  0.94080  0.97290  Biso   1.000  N
  N17      1.0000 0.59940  0.56430  0.47720  Biso   1.000  N
  N18      1.0000 0.40060  0.43570  0.47720  Biso   1.000  N
  N19      1.0000 0.40060  0.56430  0.02280  Biso   1.000  N
  N20      1.0000 0.59940  0.43570  0.02280  Biso   1.000  N
  N21      1.0000 0.09940  0.06430  0.47720  Biso   1.000  N
  N22      1.0000 0.90060  0.93570  0.47720  Biso   1.000  N
  N23      1.0000 0.90060  0.06430  0.02280  Biso   1.000  N
  N24      1.0000 0.09940  0.93570  0.02280  Biso   1.000  N
  N25      1.0000 0.40060  0.43570  0.52280  Biso   1.000  N
  N26      1.0000 0.59940  0.56430  0.52280  Biso   1.000  N
  N27      1.0000 0.59940  0.43570  0.97720  Biso   1.000  N
  N28      1.0000 0.40060  0.56430  0.97720  Biso   1.000  N
  N29      1.0000 0.90060  0.93570  0.52280  Biso   1.000  N
  N30      1.0000 0.09940  0.06430  0.52280  Biso   1.000  N
  N31      1.0000 0.09940  0.93570  0.97720  Biso   1.000  N
  N32      1.0000 0.90060  0.06430  0.97720  Biso   1.000  N
  C1       1.0000 0.63200  0.20970  0.37860  Biso   1.000  C
  C2       1.0000 0.36800  0.79030  0.37860  Biso   1.000  C
  C3       1.0000 0.36800  0.20970  0.12140  Biso   1.000  C
  C4       1.0000 0.63200  0.79030  0.12140  Biso   1.000  C
  C5       1.0000 0.13200  0.70970  0.37860  Biso   1.000  C
  C6       1.0000 0.86800  0.29030  0.37860  Biso   1.000  C
  C7       1.0000 0.86800  0.70970  0.12140  Biso   1.000  C
  C8       1.0000 0.13200  0.29030  0.12140  Biso   1.000  C
  C9       1.0000 0.36800  0.79030  0.62140  Biso   1.000  C
  C10      1.0000 0.63200  0.20970  0.62140  Biso   1.000  C
  C11      1.0000 0.63200  0.79030  0.87860  Biso   1.000  C
  C12      1.0000 0.36800  0.20970  0.87860  Biso   1.000  C
  C13      1.0000 0.86800  0.29030  0.62140  Biso   1.000  C
  C14      1.0000 0.13200  0.70970  0.62140  Biso   1.000  C
  C15      1.0000 0.13200  0.29030  0.87860  Biso   1.000  C
  C16      1.0000 0.86800  0.70970  0.87860  Biso   1.000  C
  C17      1.0000 0.56240  0.18600  0.30940  Biso   1.000  C
  C18      1.0000 0.43760  0.81400  0.30940  Biso   1.000  C
  C19      1.0000 0.43760  0.18600  0.19060  Biso   1.000  C
  C20      1.0000 0.56240  0.81400  0.19060  Biso   1.000  C
  C21      1.0000 0.06240  0.68600  0.30940  Biso   1.000  C
  C22      1.0000 0.93760  0.31400  0.30940  Biso   1.000  C
  C23      1.0000 0.93760  0.68600  0.19060  Biso   1.000  C
  C24      1.0000 0.06240  0.31400  0.19060  Biso   1.000  C
  C25      1.0000 0.43760  0.81400  0.69060  Biso   1.000  C
  C26      1.0000 0.56240  0.18600  0.69060  Biso   1.000  C
  C27      1.0000 0.56240  0.81400  0.80940  Biso   1.000  C
  C28      1.0000 0.43760  0.18600  0.80940  Biso   1.000  C
  C29      1.0000 0.93760  0.31400  0.69060  Biso   1.000  C
  C30      1.0000 0.06240  0.68600  0.69060  Biso   1.000  C
  C31      1.0000 0.06240  0.31400  0.80940  Biso   1.000  C
  C32      1.0000 0.93760  0.68600  0.80940  Biso   1.000  C
  C33      1.0000 0.53650  0.11150  0.28520  Biso   1.000  C
  C34      1.0000 0.46350  0.88850  0.28520  Biso   1.000  C
  C35      1.0000 0.46350  0.11150  0.21480  Biso   1.000  C
  C36      1.0000 0.53650  0.88850  0.21480  Biso   1.000  C
  C37      1.0000 0.03650  0.61150  0.28520  Biso   1.000  C
  C38      1.0000 0.96350  0.38850  0.28520  Biso   1.000  C
  C39      1.0000 0.96350  0.61150  0.21480  Biso   1.000  C
  C40      1.0000 0.03650  0.38850  0.21480  Biso   1.000  C
  C41      1.0000 0.46350  0.88850  0.71480  Biso   1.000  C
  C42      1.0000 0.53650  0.11150  0.71480  Biso   1.000  C
  C43      1.0000 0.53650  0.88850  0.78520  Biso   1.000  C
  C44      1.0000 0.46350  0.11150  0.78520  Biso   1.000  C
  C45      1.0000 0.96350  0.38850  0.71480  Biso   1.000  C
  C46      1.0000 0.03650  0.61150  0.71480  Biso   1.000  C
  C47      1.0000 0.03650  0.38850  0.78520  Biso   1.000  C
  C48      1.0000 0.96350  0.61150  0.78520  Biso   1.000  C
  H1       1.0000 0.56233  0.06509  0.31044  Biso   1.000  H
  H2       1.0000 0.43767  0.93491  0.31044  Biso   1.000  H
  H3       1.0000 0.43767  0.06509  0.18956  Biso   1.000  H
  H4       1.0000 0.56233  0.93491  0.18956  Biso   1.000  H
  H5       1.0000 0.06233  0.56509  0.31044  Biso   1.000  H
  H6       1.0000 0.93767  0.43491  0.31044  Biso   1.000  H
  H7       1.0000 0.93767  0.56509  0.18956  Biso   1.000  H
  H8       1.0000 0.06233  0.43491  0.18956  Biso   1.000  H
  H9       1.0000 0.43767  0.93491  0.68956  Biso   1.000  H
  H10      1.0000 0.56233  0.06509  0.68956  Biso   1.000  H
  H11      1.0000 0.56233  0.93491  0.81044  Biso   1.000  H
  H12      1.0000 0.43767  0.06509  0.81044  Biso   1.000  H
  H13      1.0000 0.93767  0.43491  0.68956  Biso   1.000  H
  H14      1.0000 0.06233  0.56509  0.68956  Biso   1.000  H
  H15      1.0000 0.06233  0.43491  0.81044  Biso   1.000  H
  H16      1.0000 0.93767  0.56509  0.81044  Biso   1.000  H
  C49      1.0000 0.66580  0.51040  0.62340  Biso   1.000  C
  C50      1.0000 0.33420  0.48960  0.62340  Biso   1.000  C
  C51      1.0000 0.33420  0.51040  0.87660  Biso   1.000  C
  C52      1.0000 0.66580  0.48960  0.87660  Biso   1.000  C
  C53      1.0000 0.16580  0.01040  0.62340  Biso   1.000  C
  C54      1.0000 0.83420  0.98960  0.62340  Biso   1.000  C
  C55      1.0000 0.83420  0.01040  0.87660  Biso   1.000  C
  C56      1.0000 0.16580  0.98960  0.87660  Biso   1.000  C
  C57      1.0000 0.33420  0.48960  0.37660  Biso   1.000  C
  C58      1.0000 0.66580  0.51040  0.37660  Biso   1.000  C
  C59      1.0000 0.66580  0.48960  0.12340  Biso   1.000  C
  C60      1.0000 0.33420  0.51040  0.12340  Biso   1.000  C
  C61      1.0000 0.83420  0.98960  0.37660  Biso   1.000  C
  C62      1.0000 0.16580  0.01040  0.37660  Biso   1.000  C
  C63      1.0000 0.16580  0.98960  0.12340  Biso   1.000  C
  C64      1.0000 0.83420  0.01040  0.12340  Biso   1.000  C
  C65      1.0000 0.63990  0.50470  0.52590  Biso   1.000  C
  C66      1.0000 0.36010  0.49530  0.52590  Biso   1.000  C
  C67      1.0000 0.36010  0.50470  0.97410  Biso   1.000  C
  C68      1.0000 0.63990  0.49530  0.97410  Biso   1.000  C
  C69      1.0000 0.13990  0.00470  0.52590  Biso   1.000  C
  C70      1.0000 0.86010  0.99530  0.52590  Biso   1.000  C
  C71      1.0000 0.86010  0.00470  0.97410  Biso   1.000  C
  C72      1.0000 0.13990  0.99530  0.97410  Biso   1.000  C
  C73      1.0000 0.36010  0.49530  0.47410  Biso   1.000  C
  C74      1.0000 0.63990  0.50470  0.47410  Biso   1.000  C
  C75      1.0000 0.63990  0.49530  0.02590  Biso   1.000  C
  C76      1.0000 0.36010  0.50470  0.02590  Biso   1.000  C
  C77      1.0000 0.86010  0.99530  0.47410  Biso   1.000  C
  C78      1.0000 0.13990  0.00470  0.47410  Biso   1.000  C
  C79      1.0000 0.13990  0.99530  0.02590  Biso   1.000  C
  C80      1.0000 0.86010  0.00470  0.02590  Biso   1.000  C
  C81      1.0000 0.62110  0.46200  0.38620  Biso   1.000  C
  C82      1.0000 0.37890  0.53800  0.38620  Biso   1.000  C
  C83      1.0000 0.37890  0.46200  0.11380  Biso   1.000  C
  C84      1.0000 0.62110  0.53800  0.11380  Biso   1.000  C
  C85      1.0000 0.12110  0.96200  0.38620  Biso   1.000  C
  C86      1.0000 0.87890  0.03800  0.38620  Biso   1.000  C
  C87      1.0000 0.87890  0.96200  0.11380  Biso   1.000  C
  C88      1.0000 0.12110  0.03800  0.11380  Biso   1.000  C
  C89      1.0000 0.37890  0.53800  0.61380  Biso   1.000  C
  C90      1.0000 0.62110  0.46200  0.61380  Biso   1.000  C
  C91      1.0000 0.62110  0.53800  0.88620  Biso   1.000  C
  C92      1.0000 0.37890  0.46200  0.88620  Biso   1.000  C
  C93      1.0000 0.87890  0.03800  0.61380  Biso   1.000  C
  C94      1.0000 0.12110  0.96200  0.61380  Biso   1.000  C
  C95      1.0000 0.12110  0.03800  0.88620  Biso   1.000  C
  C96      1.0000 0.87890  0.96200  0.88620  Biso   1.000  C
  C97      1.0000 0.58730  0.53900  0.38910  Biso   1.000  C
  C98      1.0000 0.41270  0.46100  0.38910  Biso   1.000  C
  C99      1.0000 0.41270  0.53900  0.11090  Biso   1.000  C
  C100     1.0000 0.58730  0.46100  0.11090  Biso   1.000  C
  C101     1.0000 0.08730  0.03900  0.38910  Biso   1.000  C
  C102     1.0000 0.91270  0.96100  0.38910  Biso   1.000  C
  C103     1.0000 0.91270  0.03900  0.11090  Biso   1.000  C
  C104     1.0000 0.08730  0.96100  0.11090  Biso   1.000  C
  C105     1.0000 0.41270  0.46100  0.61090  Biso   1.000  C
  C106     1.0000 0.58730  0.53900  0.61090  Biso   1.000  C
  C107     1.0000 0.58730  0.46100  0.88910  Biso   1.000  C
  C108     1.0000 0.41270  0.53900  0.88910  Biso   1.000  C
  C109     1.0000 0.91270  0.96100  0.61090  Biso   1.000  C
  C110     1.0000 0.08730  0.03900  0.61090  Biso   1.000  C
  C111     1.0000 0.08730  0.96100  0.88910  Biso   1.000  C
  C112     1.0000 0.91270  0.03900  0.88910  Biso   1.000  C
  C113     1.0000 0.58130  0.64700  0.50000  Biso   1.000  C
  C114     1.0000 0.41870  0.35300  0.50000  Biso   1.000  C
  C115     1.0000 0.41870  0.64700  0.00000  Biso   1.000  C
  C116     1.0000 0.58130  0.35300  0.00000  Biso   1.000  C
  C117     1.0000 0.08130  0.14700  0.50000  Biso   1.000  C
  C118     1.0000 0.91870  0.85300  0.50000  Biso   1.000  C
  C119     1.0000 0.91870  0.14700  0.00000  Biso   1.000  C
  C120     1.0000 0.08130  0.85300  0.00000  Biso   1.000  C
  C121     1.0000 0.67020  0.69980  0.50000  Biso   1.000  C
  C122     1.0000 0.32980  0.30020  0.50000  Biso   1.000  C
  C123     1.0000 0.32980  0.69980  0.00000  Biso   1.000  C
  C124     1.0000 0.67020  0.30020  0.00000  Biso   1.000  C
  C125     1.0000 0.17020  0.19980  0.50000  Biso   1.000  C
  C126     1.0000 0.82980  0.80020  0.50000  Biso   1.000  C
  C127     1.0000 0.82980  0.19980  0.00000  Biso   1.000  C
  C128     1.0000 0.17020  0.80020  0.00000  Biso   1.000  C
  C129     1.0000 0.76300  0.66960  0.50000  Biso   1.000  C
  C130     1.0000 0.23700  0.33040  0.50000  Biso   1.000  C
  C131     1.0000 0.23700  0.66960  0.00000  Biso   1.000  C
  C132     1.0000 0.76300  0.33040  0.00000  Biso   1.000  C
  C133     1.0000 0.26300  0.16960  0.50000  Biso   1.000  C
  C134     1.0000 0.73700  0.83040  0.50000  Biso   1.000  C
  C135     1.0000 0.73700  0.16960  0.00000  Biso   1.000  C
  C136     1.0000 0.26300  0.83040  0.00000  Biso   1.000  C
  C137     1.0000 0.66000  0.77900  0.50000  Biso   1.000  C
  C138     1.0000 0.34000  0.22100  0.50000  Biso   1.000  C
  C139     1.0000 0.34000  0.77900  0.00000  Biso   1.000  C
  C140     1.0000 0.66000  0.22100  0.00000  Biso   1.000  C
  C141     1.0000 0.16000  0.27900  0.50000  Biso   1.000  C
  C142     1.0000 0.84000  0.72100  0.50000  Biso   1.000  C
  C143     1.0000 0.84000  0.27900  0.00000  Biso   1.000  C
  C144     1.0000 0.16000  0.72100  0.00000  Biso   1.000  C
  C145     1.0000 0.67120  0.77040  0.55590  Biso   1.000  C
  C146     1.0000 0.32880  0.22960  0.55590  Biso   1.000  C
  C147     1.0000 0.32880  0.77040  0.94410  Biso   1.000  C
  C148     1.0000 0.67120  0.22960  0.94410  Biso   1.000  C
  C149     1.0000 0.17120  0.27040  0.55590  Biso   1.000  C
  C150     1.0000 0.82880  0.72960  0.55590  Biso   1.000  C
  C151     1.0000 0.82880  0.27040  0.94410  Biso   1.000  C
  C152     1.0000 0.17120  0.72960  0.94410  Biso   1.000  C
  C153     1.0000 0.32880  0.22960  0.44410  Biso   1.000  C
  C154     1.0000 0.67120  0.77040  0.44410  Biso   1.000  C
  C155     1.0000 0.67120  0.22960  0.05590  Biso   1.000  C
  C156     1.0000 0.32880  0.77040  0.05590  Biso   1.000  C
  C157     1.0000 0.82880  0.72960  0.44410  Biso   1.000  C
  C158     1.0000 0.17120  0.27040  0.44410  Biso   1.000  C
  C159     1.0000 0.17120  0.72960  0.05590  Biso   1.000  C
  C160     1.0000 0.82880  0.27040  0.05590  Biso   1.000  C
  C161     1.0000 0.74800  0.68030  0.44780  Biso   1.000  C
  C162     1.0000 0.25200  0.31970  0.44780  Biso   1.000  C
  C163     1.0000 0.25200  0.68030  0.05220  Biso   1.000  C
  C164     1.0000 0.74800  0.31970  0.05220  Biso   1.000  C
  C165     1.0000 0.24800  0.18030  0.44780  Biso   1.000  C
  C166     1.0000 0.75200  0.81970  0.44780  Biso   1.000  C
  C167     1.0000 0.75200  0.18030  0.05220  Biso   1.000  C
  C168     1.0000 0.24800  0.81970  0.05220  Biso   1.000  C
  C169     1.0000 0.25200  0.31970  0.55220  Biso   1.000  C
  C170     1.0000 0.74800  0.68030  0.55220  Biso   1.000  C
  C171     1.0000 0.74800  0.31970  0.94780  Biso   1.000  C
  C172     1.0000 0.25200  0.68030  0.94780  Biso   1.000  C
  C173     1.0000 0.75200  0.81970  0.55220  Biso   1.000  C
  C174     1.0000 0.24800  0.18030  0.55220  Biso   1.000  C
  C175     1.0000 0.24800  0.81970  0.94780  Biso   1.000  C
  C176     1.0000 0.75200  0.18030  0.94780  Biso   1.000  C
