data_image0
_cell_length_a       10.597
_cell_length_b       5.808
_cell_length_c       20.565
_cell_angle_alpha    90
_cell_angle_beta     98.28
_cell_angle_gamma    90

_symmetry_space_group_name_H-M    "P 1"
_symmetry_int_tables_number       1

loop_
  _symmetry_equiv_pos_as_xyz
  'x, y, z'

loop_
  _atom_site_label
  _atom_site_occupancy
  _atom_site_fract_x
  _atom_site_fract_y
  _atom_site_fract_z
  _atom_site_thermal_displace_type
  _atom_site_B_iso_or_equiv
  _atom_site_type_symbol
  Cu1      1.0000 0.25000  0.17719  0.25000  Biso   1.000  Cu
  Cu2      1.0000 0.75000  0.82281  0.75000  Biso   1.000  Cu
  S1       1.0000 0.75000  0.86617  0.25000  Biso   1.000  S
  S2       1.0000 0.25000  0.13383  0.75000  Biso   1.000  S
  O1       1.0000 0.08091  0.17200  0.27637  Biso   1.000  O
  O2       1.0000 0.58091  0.82800  0.77637  Biso   1.000  O
  O3       1.0000 0.91909  0.82800  0.72363  Biso   1.000  O
  O4       1.0000 0.41909  0.17200  0.22363  Biso   1.000  O
  O5       1.0000 0.03250  0.80240  0.25840  Biso   1.000  O
  O6       1.0000 0.53250  0.19760  0.75840  Biso   1.000  O
  O7       1.0000 0.96750  0.19760  0.74160  Biso   1.000  O
  O8       1.0000 0.46750  0.80240  0.24160  Biso   1.000  O
  O9       1.0000 0.25000  0.55420  0.25000  Biso   1.000  O
  O10      1.0000 0.75000  0.44580  0.75000  Biso   1.000  O
  H1       1.0000 0.31740  0.63180  0.24740  Biso   1.000  H
  H2       1.0000 0.81740  0.36820  0.74740  Biso   1.000  H
  H3       1.0000 0.68260  0.36820  0.75260  Biso   1.000  H
  H4       1.0000 0.18260  0.63180  0.25260  Biso   1.000  H
  N1       1.0000 0.33230  0.13160  0.34326  Biso   1.000  N
  N2       1.0000 0.83230  0.86840  0.84326  Biso   1.000  N
  N3       1.0000 0.66770  0.86840  0.65674  Biso   1.000  N
  N4       1.0000 0.16770  0.13160  0.15674  Biso   1.000  N
  N5       1.0000 0.22970  0.44930  0.50945  Biso   1.000  N
  N6       1.0000 0.72970  0.55070  0.00945  Biso   1.000  N
  N7       1.0000 0.77030  0.55070  0.49055  Biso   1.000  N
  N8       1.0000 0.27030  0.44930  0.99055  Biso   1.000  N
  C1       1.0000 0.00411  0.00490  0.26490  Biso   1.000  C
  C2       1.0000 0.50411  0.99510  0.76490  Biso   1.000  C
  C3       1.0000 0.99589  0.99510  0.73510  Biso   1.000  C
  C4       1.0000 0.49589  0.00490  0.23510  Biso   1.000  C
  C5       1.0000 0.86700  0.07100  0.25810  Biso   1.000  C
  C6       1.0000 0.36700  0.92900  0.75810  Biso   1.000  C
  C7       1.0000 0.13300  0.92900  0.74190  Biso   1.000  C
  C8       1.0000 0.63300  0.07100  0.24190  Biso   1.000  C
  C9       1.0000 0.81758  0.28550  0.25497  Biso   1.000  C
  C10      1.0000 0.31758  0.71450  0.75497  Biso   1.000  C
  C11      1.0000 0.18242  0.71450  0.74503  Biso   1.000  C
  C12      1.0000 0.68242  0.28550  0.24503  Biso   1.000  C
  H5       1.0000 0.86850  0.42290  0.25930  Biso   1.000  H
  H6       1.0000 0.36850  0.57710  0.75930  Biso   1.000  H
  H7       1.0000 0.13150  0.57710  0.74070  Biso   1.000  H
  H8       1.0000 0.63150  0.42290  0.24070  Biso   1.000  H
  C13      1.0000 0.29722  0.95780  0.37845  Biso   1.000  C
  C14      1.0000 0.79722  0.04220  0.87845  Biso   1.000  C
  C15      1.0000 0.70278  0.04220  0.62155  Biso   1.000  C
  C16      1.0000 0.20278  0.95780  0.12155  Biso   1.000  C
  H9       1.0000 0.22460  0.86760  0.36040  Biso   1.000  H
  H10      1.0000 0.72460  0.13240  0.86040  Biso   1.000  H
  H11      1.0000 0.77540  0.13240  0.63960  Biso   1.000  H
  H12      1.0000 0.27540  0.86760  0.13960  Biso   1.000  H
  C17      1.0000 0.36060  0.90050  0.43960  Biso   1.000  C
  C18      1.0000 0.86060  0.09950  0.93960  Biso   1.000  C
  C19      1.0000 0.63940  0.09950  0.56040  Biso   1.000  C
  C20      1.0000 0.13940  0.90050  0.06040  Biso   1.000  C
  H13      1.0000 0.33240  0.77260  0.46330  Biso   1.000  H
  H14      1.0000 0.83240  0.22740  0.96330  Biso   1.000  H
  H15      1.0000 0.66760  0.22740  0.53670  Biso   1.000  H
  H16      1.0000 0.16760  0.77260  0.03670  Biso   1.000  H
  C21      1.0000 0.46486  0.02850  0.46704  Biso   1.000  C
  C22      1.0000 0.96486  0.97150  0.96704  Biso   1.000  C
  C23      1.0000 0.53514  0.97150  0.53296  Biso   1.000  C
  C24      1.0000 0.03514  0.02850  0.03296  Biso   1.000  C
  C25      1.0000 0.49900  0.21340  0.43072  Biso   1.000  C
  C26      1.0000 0.99900  0.78660  0.93072  Biso   1.000  C
  C27      1.0000 0.50100  0.78660  0.56928  Biso   1.000  C
  C28      1.0000 0.00100  0.21340  0.06928  Biso   1.000  C
  H17      1.0000 0.56920  0.31000  0.44830  Biso   1.000  H
  H18      1.0000 0.06920  0.69000  0.94830  Biso   1.000  H
  H19      1.0000 0.43080  0.69000  0.55170  Biso   1.000  H
  H20      1.0000 0.93080  0.31000  0.05170  Biso   1.000  H
  C29      1.0000 0.43190  0.25900  0.36970  Biso   1.000  C
  C30      1.0000 0.93190  0.74100  0.86970  Biso   1.000  C
  C31      1.0000 0.56810  0.74100  0.63030  Biso   1.000  C
  C32      1.0000 0.06810  0.25900  0.13030  Biso   1.000  C
  H21      1.0000 0.45790  0.38630  0.34500  Biso   1.000  H
  H22      1.0000 0.95790  0.61370  0.84500  Biso   1.000  H
  H23      1.0000 0.54210  0.61370  0.65500  Biso   1.000  H
  H24      1.0000 0.04210  0.38630  0.15500  Biso   1.000  H
  C33      1.0000 0.22010  0.31250  0.55870  Biso   1.000  C
  C34      1.0000 0.72010  0.68750  0.05870  Biso   1.000  C
  C35      1.0000 0.77990  0.68750  0.44130  Biso   1.000  C
  C36      1.0000 0.27990  0.31250  0.94130  Biso   1.000  C
  H25      1.0000 0.27680  0.33970  0.59870  Biso   1.000  H
  H26      1.0000 0.77680  0.66030  0.09870  Biso   1.000  H
  H27      1.0000 0.72320  0.66030  0.40130  Biso   1.000  H
  H28      1.0000 0.22320  0.33970  0.90130  Biso   1.000  H
  C37      1.0000 0.13380  0.13420  0.55761  Biso   1.000  C
  C38      1.0000 0.63380  0.86580  0.05761  Biso   1.000  C
  C39      1.0000 0.86620  0.86580  0.44239  Biso   1.000  C
  C40      1.0000 0.36620  0.13420  0.94239  Biso   1.000  C
  H29      1.0000 0.13370  0.03670  0.59530  Biso   1.000  H
  H30      1.0000 0.63370  0.96330  0.09530  Biso   1.000  H
  H31      1.0000 0.86630  0.96330  0.40470  Biso   1.000  H
  H32      1.0000 0.36630  0.03670  0.90470  Biso   1.000  H
  C41      1.0000 0.04830  0.09450  0.50180  Biso   1.000  C
  C42      1.0000 0.54830  0.90550  0.00180  Biso   1.000  C
  C43      1.0000 0.95170  0.90550  0.49820  Biso   1.000  C
  C44      1.0000 0.45170  0.09450  0.99820  Biso   1.000  C
  C45      1.0000 0.05780  0.23560  0.44933  Biso   1.000  C
  C46      1.0000 0.55780  0.76440  0.94933  Biso   1.000  C
  C47      1.0000 0.94220  0.76440  0.55067  Biso   1.000  C
  C48      1.0000 0.44220  0.23560  0.05067  Biso   1.000  C
  H33      1.0000 0.00210  0.21390  0.40870  Biso   1.000  H
  H34      1.0000 0.50210  0.78610  0.90870  Biso   1.000  H
  H35      1.0000 0.99790  0.78610  0.59130  Biso   1.000  H
  H36      1.0000 0.49790  0.21390  0.09130  Biso   1.000  H
  C49      1.0000 0.14960  0.40830  0.45586  Biso   1.000  C
  C50      1.0000 0.64960  0.59170  0.95586  Biso   1.000  C
  C51      1.0000 0.85040  0.59170  0.54414  Biso   1.000  C
  C52      1.0000 0.35040  0.40830  0.04414  Biso   1.000  C
  H37      1.0000 0.15490  0.50490  0.41850  Biso   1.000  H
  H38      1.0000 0.65490  0.49510  0.91850  Biso   1.000  H
  H39      1.0000 0.84510  0.49510  0.58150  Biso   1.000  H
  H40      1.0000 0.34510  0.50490  0.08150  Biso   1.000  H
