data_image0
_cell_length_a       8.543
_cell_length_b       20.136
_cell_length_c       11.044
_cell_angle_alpha    90
_cell_angle_beta     90
_cell_angle_gamma    90

_symmetry_space_group_name_H-M    "P 1"
_symmetry_int_tables_number       1

loop_
  _symmetry_equiv_pos_as_xyz
  'x, y, z'

loop_
  _atom_site_label
  _atom_site_occupancy
  _atom_site_fract_x
  _atom_site_fract_y
  _atom_site_fract_z
  _atom_site_thermal_displace_type
  _atom_site_B_iso_or_equiv
  _atom_site_type_symbol
  Cu1      1.0000 0.82894  0.08370  0.69292  Biso   1.000  Cu
  Cu2      1.0000 0.17106  0.91630  0.19292  Biso   1.000  Cu
  Cu3      1.0000 0.67106  0.58370  0.19292  Biso   1.000  Cu
  Cu4      1.0000 0.32894  0.41630  0.69292  Biso   1.000  Cu
  O1       1.0000 0.63140  0.07721  0.52943  Biso   1.000  O
  O2       1.0000 0.36860  0.92279  0.02943  Biso   1.000  O
  O3       1.0000 0.86860  0.57721  0.02943  Biso   1.000  O
  O4       1.0000 0.13140  0.42279  0.52943  Biso   1.000  O
  C1       1.0000 0.50020  0.03700  0.49750  Biso   1.000  C
  C2       1.0000 0.49980  0.96300  0.99750  Biso   1.000  C
  C3       1.0000 0.99980  0.53700  0.99750  Biso   1.000  C
  C4       1.0000 0.00020  0.46300  0.49750  Biso   1.000  C
  H1       1.0000 0.49080  0.03420  0.41010  Biso   1.000  H
  H2       1.0000 0.50920  0.96580  0.91010  Biso   1.000  H
  H3       1.0000 0.00920  0.53420  0.91010  Biso   1.000  H
  H4       1.0000 0.99080  0.46580  0.41010  Biso   1.000  H
  H5       1.0000 0.40470  0.05620  0.52950  Biso   1.000  H
  H6       1.0000 0.59530  0.94380  0.02950  Biso   1.000  H
  H7       1.0000 0.09530  0.55620  0.02950  Biso   1.000  H
  H8       1.0000 0.90470  0.44380  0.52950  Biso   1.000  H
  C5       1.0000 0.52560  0.96911  0.55020  Biso   1.000  C
  C6       1.0000 0.47440  0.03089  0.05020  Biso   1.000  C
  C7       1.0000 0.97440  0.46911  0.05020  Biso   1.000  C
  C8       1.0000 0.02560  0.53089  0.55020  Biso   1.000  C
  H9       1.0000 0.54200  0.97320  0.63680  Biso   1.000  H
  H10      1.0000 0.45800  0.02680  0.13680  Biso   1.000  H
  H11      1.0000 0.95800  0.47320  0.13680  Biso   1.000  H
  H12      1.0000 0.04200  0.52680  0.63680  Biso   1.000  H
  H13      1.0000 0.43210  0.94260  0.53760  Biso   1.000  H
  H14      1.0000 0.56790  0.05740  0.03760  Biso   1.000  H
  H15      1.0000 0.06790  0.44260  0.03760  Biso   1.000  H
  H16      1.0000 0.93210  0.55740  0.53760  Biso   1.000  H
  O5       1.0000 0.65709  0.93533  0.49759  Biso   1.000  O
  O6       1.0000 0.34291  0.06467  0.99759  Biso   1.000  O
  O7       1.0000 0.84291  0.43533  0.99759  Biso   1.000  O
  O8       1.0000 0.15709  0.56467  0.49759  Biso   1.000  O
  C9       1.0000 0.61900  0.90762  0.38200  Biso   1.000  C
  C10      1.0000 0.38100  0.09238  0.88200  Biso   1.000  C
  C11      1.0000 0.88100  0.40762  0.88200  Biso   1.000  C
  C12      1.0000 0.11900  0.59238  0.38200  Biso   1.000  C
  H17      1.0000 0.56890  0.94110  0.33210  Biso   1.000  H
  H18      1.0000 0.43110  0.05890  0.83210  Biso   1.000  H
  H19      1.0000 0.93110  0.44110  0.83210  Biso   1.000  H
  H20      1.0000 0.06890  0.55890  0.33210  Biso   1.000  H
  H21      1.0000 0.54610  0.87110  0.39240  Biso   1.000  H
  H22      1.0000 0.45390  0.12890  0.89240  Biso   1.000  H
  H23      1.0000 0.95390  0.37110  0.89240  Biso   1.000  H
  H24      1.0000 0.04610  0.62890  0.39240  Biso   1.000  H
  C13      1.0000 0.76470  0.88301  0.31990  Biso   1.000  C
  C14      1.0000 0.23530  0.11699  0.81990  Biso   1.000  C
  C15      1.0000 0.73530  0.38301  0.81990  Biso   1.000  C
  C16      1.0000 0.26470  0.61699  0.31990  Biso   1.000  C
  H25      1.0000 0.80170  0.84370  0.36190  Biso   1.000  H
  H26      1.0000 0.19830  0.15630  0.86190  Biso   1.000  H
  H27      1.0000 0.69830  0.34370  0.86190  Biso   1.000  H
  H28      1.0000 0.30170  0.65630  0.36190  Biso   1.000  H
  H29      1.0000 0.73790  0.86990  0.23790  Biso   1.000  H
  H30      1.0000 0.26210  0.13010  0.73790  Biso   1.000  H
  H31      1.0000 0.76210  0.36990  0.73790  Biso   1.000  H
  H32      1.0000 0.23790  0.63010  0.23790  Biso   1.000  H
  O9       1.0000 0.89000  0.93063  0.31475  Biso   1.000  O
  O10      1.0000 0.11000  0.06937  0.81475  Biso   1.000  O
  O11      1.0000 0.61000  0.43063  0.81475  Biso   1.000  O
  O12      1.0000 0.39000  0.56937  0.31475  Biso   1.000  O
  C17      1.0000 0.84630  0.99459  0.27300  Biso   1.000  C
  C18      1.0000 0.15370  0.00541  0.77300  Biso   1.000  C
  C19      1.0000 0.65370  0.49459  0.77300  Biso   1.000  C
  C20      1.0000 0.34630  0.50541  0.27300  Biso   1.000  C
  H33      1.0000 0.79760  0.01960  0.33780  Biso   1.000  H
  H34      1.0000 0.20240  0.98040  0.83780  Biso   1.000  H
  H35      1.0000 0.70240  0.51960  0.83780  Biso   1.000  H
  H36      1.0000 0.29760  0.48040  0.33780  Biso   1.000  H
  H37      1.0000 0.77210  0.99070  0.20690  Biso   1.000  H
  H38      1.0000 0.22790  0.00930  0.70690  Biso   1.000  H
  H39      1.0000 0.72790  0.49070  0.70690  Biso   1.000  H
  H40      1.0000 0.27210  0.50930  0.20690  Biso   1.000  H
  C21      1.0000 0.99440  0.02982  0.22983  Biso   1.000  C
  C22      1.0000 0.00560  0.97018  0.72983  Biso   1.000  C
  C23      1.0000 0.50560  0.52982  0.72983  Biso   1.000  C
  C24      1.0000 0.49440  0.47018  0.22983  Biso   1.000  C
  C25      1.0000 0.96040  0.10231  0.19710  Biso   1.000  C
  C26      1.0000 0.03960  0.89769  0.69710  Biso   1.000  C
  C27      1.0000 0.53960  0.60231  0.69710  Biso   1.000  C
  C28      1.0000 0.46040  0.39769  0.19710  Biso   1.000  C
  H41      1.0000 0.93340  0.12710  0.26950  Biso   1.000  H
  H42      1.0000 0.06660  0.87290  0.76950  Biso   1.000  H
  H43      1.0000 0.56660  0.62710  0.76950  Biso   1.000  H
  H44      1.0000 0.43340  0.37290  0.26950  Biso   1.000  H
  H45      1.0000 0.05250  0.12240  0.16120  Biso   1.000  H
  H46      1.0000 0.94750  0.87760  0.66120  Biso   1.000  H
  H47      1.0000 0.44750  0.62240  0.66120  Biso   1.000  H
  H48      1.0000 0.55250  0.37760  0.16120  Biso   1.000  H
  O13      1.0000 0.83449  0.10417  0.11406  Biso   1.000  O
  O14      1.0000 0.16551  0.89583  0.61406  Biso   1.000  O
  O15      1.0000 0.66551  0.60417  0.61406  Biso   1.000  O
  O16      1.0000 0.33449  0.39583  0.11406  Biso   1.000  O
  C29      1.0000 0.85580  0.14958  0.01580  Biso   1.000  C
  C30      1.0000 0.14420  0.85042  0.51580  Biso   1.000  C
  C31      1.0000 0.64420  0.64958  0.51580  Biso   1.000  C
  C32      1.0000 0.35580  0.35042  0.01580  Biso   1.000  C
  H49      1.0000 0.78460  0.13780  0.95090  Biso   1.000  H
  H50      1.0000 0.21540  0.86220  0.45090  Biso   1.000  H
  H51      1.0000 0.71540  0.63780  0.45090  Biso   1.000  H
  H52      1.0000 0.28460  0.36220  0.95090  Biso   1.000  H
  H53      1.0000 0.96170  0.14520  0.98530  Biso   1.000  H
  H54      1.0000 0.03830  0.85480  0.48530  Biso   1.000  H
  H55      1.0000 0.53830  0.64520  0.48530  Biso   1.000  H
  H56      1.0000 0.46170  0.35480  0.98530  Biso   1.000  H
  C33      1.0000 0.82780  0.22038  0.05090  Biso   1.000  C
  C34      1.0000 0.17220  0.77962  0.55090  Biso   1.000  C
  C35      1.0000 0.67220  0.72038  0.55090  Biso   1.000  C
  C36      1.0000 0.32780  0.27962  0.05090  Biso   1.000  C
  H57      1.0000 0.83230  0.24850  0.97970  Biso   1.000  H
  H58      1.0000 0.16770  0.75150  0.47970  Biso   1.000  H
  H59      1.0000 0.66770  0.74850  0.47970  Biso   1.000  H
  H60      1.0000 0.33230  0.25150  0.97970  Biso   1.000  H
  H61      1.0000 0.72480  0.22490  0.08700  Biso   1.000  H
  H62      1.0000 0.27520  0.77510  0.58700  Biso   1.000  H
  H63      1.0000 0.77520  0.72490  0.58700  Biso   1.000  H
  H64      1.0000 0.22480  0.27510  0.08700  Biso   1.000  H
  O17      1.0000 0.94538  0.24010  0.13578  Biso   1.000  O
  O18      1.0000 0.05462  0.75990  0.63578  Biso   1.000  O
  O19      1.0000 0.55462  0.74010  0.63578  Biso   1.000  O
  O20      1.0000 0.44538  0.25990  0.13578  Biso   1.000  O
  C37      1.0000 0.91530  0.30163  0.19490  Biso   1.000  C
  C38      1.0000 0.08470  0.69837  0.69490  Biso   1.000  C
  C39      1.0000 0.58470  0.80163  0.69490  Biso   1.000  C
  C40      1.0000 0.41530  0.19837  0.19490  Biso   1.000  C
  H65      1.0000 0.88030  0.33360  0.13500  Biso   1.000  H
  H66      1.0000 0.11970  0.66640  0.63500  Biso   1.000  H
  H67      1.0000 0.61970  0.83360  0.63500  Biso   1.000  H
  H68      1.0000 0.38030  0.16640  0.13500  Biso   1.000  H
  H69      1.0000 0.01250  0.31810  0.22910  Biso   1.000  H
  H70      1.0000 0.98750  0.68190  0.72910  Biso   1.000  H
  H71      1.0000 0.48750  0.81810  0.72910  Biso   1.000  H
  H72      1.0000 0.51250  0.18190  0.22910  Biso   1.000  H
  C41      1.0000 0.79510  0.29757  0.29380  Biso   1.000  C
  C42      1.0000 0.20490  0.70243  0.79380  Biso   1.000  C
  C43      1.0000 0.70490  0.79757  0.79380  Biso   1.000  C
  C44      1.0000 0.29510  0.20243  0.29380  Biso   1.000  C
  H73      1.0000 0.78410  0.34070  0.33210  Biso   1.000  H
  H74      1.0000 0.21590  0.65930  0.83210  Biso   1.000  H
  H75      1.0000 0.71590  0.84070  0.83210  Biso   1.000  H
  H76      1.0000 0.28410  0.15930  0.33210  Biso   1.000  H
  H77      1.0000 0.69460  0.28540  0.25950  Biso   1.000  H
  H78      1.0000 0.30540  0.71460  0.75950  Biso   1.000  H
  H79      1.0000 0.80540  0.78540  0.75950  Biso   1.000  H
  H80      1.0000 0.19460  0.21460  0.25950  Biso   1.000  H
  O21      1.0000 0.84066  0.24925  0.38260  Biso   1.000  O
  O22      1.0000 0.15934  0.75075  0.88260  Biso   1.000  O
  O23      1.0000 0.65934  0.74925  0.88260  Biso   1.000  O
  O24      1.0000 0.34066  0.25075  0.38260  Biso   1.000  O
  C45      1.0000 0.74560  0.25485  0.48850  Biso   1.000  C
  C46      1.0000 0.25440  0.74515  0.98850  Biso   1.000  C
  C47      1.0000 0.75440  0.75485  0.98850  Biso   1.000  C
  C48      1.0000 0.24560  0.24515  0.48850  Biso   1.000  C
  H81      1.0000 0.64190  0.27020  0.46620  Biso   1.000  H
  H82      1.0000 0.35810  0.72980  0.96620  Biso   1.000  H
  H83      1.0000 0.85810  0.77020  0.96620  Biso   1.000  H
  H84      1.0000 0.14190  0.22980  0.46620  Biso   1.000  H
  H85      1.0000 0.79120  0.28710  0.54340  Biso   1.000  H
  H86      1.0000 0.20880  0.71290  0.04340  Biso   1.000  H
  H87      1.0000 0.70880  0.78710  0.04340  Biso   1.000  H
  H88      1.0000 0.29120  0.21290  0.54340  Biso   1.000  H
  C49      1.0000 0.73370  0.18752  0.55110  Biso   1.000  C
  C50      1.0000 0.26630  0.81248  0.05110  Biso   1.000  C
  C51      1.0000 0.76630  0.68752  0.05110  Biso   1.000  C
  C52      1.0000 0.23370  0.31248  0.55110  Biso   1.000  C
  C53      1.0000 0.63240  0.14106  0.47420  Biso   1.000  C
  C54      1.0000 0.36760  0.85894  0.97420  Biso   1.000  C
  C55      1.0000 0.86760  0.64106  0.97420  Biso   1.000  C
  C56      1.0000 0.13240  0.35894  0.47420  Biso   1.000  C
  H89      1.0000 0.52650  0.15820  0.46900  Biso   1.000  H
  H90      1.0000 0.47350  0.84180  0.96900  Biso   1.000  H
  H91      1.0000 0.97350  0.65820  0.96900  Biso   1.000  H
  H92      1.0000 0.02650  0.34180  0.46900  Biso   1.000  H
  H93      1.0000 0.67460  0.13800  0.39290  Biso   1.000  H
  H94      1.0000 0.32540  0.86200  0.89290  Biso   1.000  H
  H95      1.0000 0.82540  0.63800  0.89290  Biso   1.000  H
  H96      1.0000 0.17460  0.36200  0.39290  Biso   1.000  H
  C57      1.0000 0.65370  0.19508  0.67610  Biso   1.000  C
  C58      1.0000 0.34630  0.80492  0.17610  Biso   1.000  C
  C59      1.0000 0.84630  0.69508  0.17610  Biso   1.000  C
  C60      1.0000 0.15370  0.30492  0.67610  Biso   1.000  C
  N1       1.0000 0.88570  0.15445  0.57334  Biso   1.000  N
  N2       1.0000 0.11430  0.84555  0.07334  Biso   1.000  N
  N3       1.0000 0.61430  0.65445  0.07334  Biso   1.000  N
  N4       1.0000 0.38570  0.34555  0.57334  Biso   1.000  N
  H97      1.0000 0.95130  0.18160  0.61170  Biso   1.000  H
  H98      1.0000 0.04870  0.81840  0.11170  Biso   1.000  H
  H99      1.0000 0.54870  0.68160  0.11170  Biso   1.000  H
  H100     1.0000 0.45130  0.31840  0.61170  Biso   1.000  H
  H101     1.0000 0.92860  0.14240  0.50380  Biso   1.000  H
  H102     1.0000 0.07140  0.85760  0.00380  Biso   1.000  H
  H103     1.0000 0.57140  0.64240  0.00380  Biso   1.000  H
  H104     1.0000 0.42860  0.35760  0.50380  Biso   1.000  H
  O25      1.0000 0.69474  0.15321  0.75602  Biso   1.000  O
  O26      1.0000 0.30526  0.84679  0.25602  Biso   1.000  O
  O27      1.0000 0.80526  0.65321  0.25602  Biso   1.000  O
  O28      1.0000 0.19474  0.34679  0.75602  Biso   1.000  O
  O29      1.0000 0.55335  0.23864  0.69010  Biso   1.000  O
  O30      1.0000 0.44665  0.76136  0.19010  Biso   1.000  O
  O31      1.0000 0.94665  0.73864  0.19010  Biso   1.000  O
  O32      1.0000 0.05335  0.26136  0.69010  Biso   1.000  O
  C61      1.0000 0.11770  0.02567  0.33180  Biso   1.000  C
  C62      1.0000 0.88230  0.97433  0.83180  Biso   1.000  C
  C63      1.0000 0.38230  0.52567  0.83180  Biso   1.000  C
  C64      1.0000 0.61770  0.47433  0.33180  Biso   1.000  C
  N5       1.0000 0.05580  0.99277  0.12454  Biso   1.000  N
  N6       1.0000 0.94420  0.00723  0.62454  Biso   1.000  N
  N7       1.0000 0.44420  0.49277  0.62454  Biso   1.000  N
  N8       1.0000 0.55580  0.50723  0.12454  Biso   1.000  N
  H105     1.0000 0.98510  0.98470  0.07520  Biso   1.000  H
  H106     1.0000 0.01490  0.01530  0.57520  Biso   1.000  H
  H107     1.0000 0.51490  0.48470  0.57520  Biso   1.000  H
  H108     1.0000 0.48510  0.51530  0.07520  Biso   1.000  H
  H109     1.0000 0.11400  0.01500  0.07460  Biso   1.000  H
  H110     1.0000 0.88600  0.98500  0.57460  Biso   1.000  H
  H111     1.0000 0.38600  0.51500  0.57460  Biso   1.000  H
  H112     1.0000 0.61400  0.48500  0.07460  Biso   1.000  H
  O33      1.0000 0.22249  0.98080  0.31956  Biso   1.000  O
  O34      1.0000 0.77751  0.01920  0.81956  Biso   1.000  O
  O35      1.0000 0.27751  0.48080  0.81956  Biso   1.000  O
  O36      1.0000 0.72249  0.51920  0.31956  Biso   1.000  O
  O37      1.0000 0.10707  0.06410  0.41897  Biso   1.000  O
  O38      1.0000 0.89293  0.93590  0.91897  Biso   1.000  O
  O39      1.0000 0.39293  0.56410  0.91897  Biso   1.000  O
  O40      1.0000 0.60707  0.43590  0.41897  Biso   1.000  O
