data_image0
_cell_length_a       8.7234
_cell_length_b       10.2138
_cell_length_c       11.0286
_cell_angle_alpha    91.949
_cell_angle_beta     110.827
_cell_angle_gamma    112.398

_symmetry_space_group_name_H-M    "P 1"
_symmetry_int_tables_number       1

loop_
  _symmetry_equiv_pos_as_xyz
  'x, y, z'

loop_
  _atom_site_label
  _atom_site_occupancy
  _atom_site_fract_x
  _atom_site_fract_y
  _atom_site_fract_z
  _atom_site_thermal_displace_type
  _atom_site_B_iso_or_equiv
  _atom_site_type_symbol
  Mo1      1.0000 0.40853  0.37760  0.36078  Biso   1.000  Mo
  Mo2      1.0000 0.59147  0.62240  0.63922  Biso   1.000  Mo
  Mo3      1.0000 0.53378  0.08166  0.38717  Biso   1.000  Mo
  Mo4      1.0000 0.46622  0.91834  0.61283  Biso   1.000  Mo
  Cu1      1.0000 0.41570  0.69748  0.29966  Biso   1.000  Cu
  Cu2      1.0000 0.58430  0.30252  0.70034  Biso   1.000  Cu
  O1       1.0000 0.48160  0.57610  0.41900  Biso   1.000  O
  O2       1.0000 0.51840  0.42390  0.58100  Biso   1.000  O
  O3       1.0000 0.56100  0.28300  0.39970  Biso   1.000  O
  O4       1.0000 0.43900  0.71700  0.60030  Biso   1.000  O
  O5       1.0000 0.19690  0.27200  0.35220  Biso   1.000  O
  O6       1.0000 0.80310  0.72800  0.64780  Biso   1.000  O
  O7       1.0000 0.37490  0.38740  0.19770  Biso   1.000  O
  O8       1.0000 0.62510  0.61260  0.80230  Biso   1.000  O
  O9       1.0000 0.36550  0.02140  0.23060  Biso   1.000  O
  O10      1.0000 0.63450  0.97860  0.76940  Biso   1.000  O
  O11      1.0000 0.48420  0.89320  0.43770  Biso   1.000  O
  O12      1.0000 0.51580  0.10680  0.56230  Biso   1.000  O
  O13      1.0000 0.73680  0.11620  0.37840  Biso   1.000  O
  O14      1.0000 0.26320  0.88380  0.62160  Biso   1.000  O
  N1       1.0000 0.64830  0.78800  0.27100  Biso   1.000  N
  N2       1.0000 0.35170  0.21200  0.72900  Biso   1.000  N
  N3       1.0000 0.32240  0.73500  0.12310  Biso   1.000  N
  N4       1.0000 0.67760  0.26500  0.87690  Biso   1.000  N
  N5       1.0000 0.14620  0.61600  0.26070  Biso   1.000  N
  N6       1.0000 0.85380  0.38400  0.73930  Biso   1.000  N
  C1       1.0000 0.81670  0.82260  0.36060  Biso   1.000  C
  C2       1.0000 0.18330  0.17740  0.63940  Biso   1.000  C
  C3       1.0000 0.96760  0.89300  0.33260  Biso   1.000  C
  C4       1.0000 0.03240  0.10700  0.66740  Biso   1.000  C
  C5       1.0000 0.94510  0.92480  0.20840  Biso   1.000  C
  C6       1.0000 0.05490  0.07520  0.79160  Biso   1.000  C
  C7       1.0000 0.77160  0.88870  0.11480  Biso   1.000  C
  C8       1.0000 0.22840  0.11130  0.88520  Biso   1.000  C
  C9       1.0000 0.62580  0.82420  0.15030  Biso   1.000  C
  C10      1.0000 0.37420  0.17580  0.84970  Biso   1.000  C
  C11      1.0000 0.43770  0.79410  0.06470  Biso   1.000  C
  C12      1.0000 0.56230  0.20590  0.93530  Biso   1.000  C
  C13      1.0000 0.37560  0.82270  0.93890  Biso   1.000  C
  C14      1.0000 0.62440  0.17730  0.06110  Biso   1.000  C
  C15      1.0000 0.19240  0.79100  0.87600  Biso   1.000  C
  C16      1.0000 0.80760  0.20900  0.12400  Biso   1.000  C
  C17      1.0000 0.07530  0.73230  0.93800  Biso   1.000  C
  C18      1.0000 0.92470  0.26770  0.06200  Biso   1.000  C
  C19      1.0000 0.14580  0.70300  0.06290  Biso   1.000  C
  C20      1.0000 0.85420  0.29700  0.93710  Biso   1.000  C
  C21      1.0000 0.04280  0.63320  0.14260  Biso   1.000  C
  C22      1.0000 0.95720  0.36680  0.85740  Biso   1.000  C
  C23      1.0000 0.85720  0.58710  0.10120  Biso   1.000  C
  C24      1.0000 0.14280  0.41290  0.89880  Biso   1.000  C
  C25      1.0000 0.77640  0.52050  0.18340  Biso   1.000  C
  C26      1.0000 0.22360  0.47950  0.81660  Biso   1.000  C
  C27      1.0000 0.88100  0.50120  0.30350  Biso   1.000  C
  C28      1.0000 0.11900  0.49880  0.69650  Biso   1.000  C
  C29      1.0000 0.06590  0.55080  0.33880  Biso   1.000  C
  C30      1.0000 0.93410  0.44920  0.66120  Biso   1.000  C
  H1       1.0000 0.82300  0.79400  0.43900  Biso   1.000  H
  H2       1.0000 0.17700  0.20600  0.56100  Biso   1.000  H
  H3       1.0000 0.07000  0.91200  0.39200  Biso   1.000  H
  H4       1.0000 0.93000  0.08800  0.60800  Biso   1.000  H
  H5       1.0000 0.03500  0.96700  0.18900  Biso   1.000  H
  H6       1.0000 0.96500  0.03300  0.81100  Biso   1.000  H
  H7       1.0000 0.75700  0.90800  0.03600  Biso   1.000  H
  H8       1.0000 0.24300  0.09200  0.96400  Biso   1.000  H
  H9       1.0000 0.45100  0.86200  0.89800  Biso   1.000  H
  H10      1.0000 0.54900  0.13800  0.10200  Biso   1.000  H
  H11      1.0000 0.15100  0.81100  0.80000  Biso   1.000  H
  H12      1.0000 0.84900  0.18900  0.20000  Biso   1.000  H
  H13      1.0000 0.96000  0.71400  0.89800  Biso   1.000  H
  H14      1.0000 0.04000  0.28600  0.10200  Biso   1.000  H
  H15      1.0000 0.79700  0.59500  0.02100  Biso   1.000  H
  H16      1.0000 0.20300  0.40500  0.97900  Biso   1.000  H
  H17      1.0000 0.66000  0.49200  0.15800  Biso   1.000  H
  H18      1.0000 0.34000  0.50800  0.84200  Biso   1.000  H
  H19      1.0000 0.82800  0.45500  0.35500  Biso   1.000  H
  H20      1.0000 0.17200  0.54500  0.64500  Biso   1.000  H
  H21      1.0000 0.13300  0.53100  0.40600  Biso   1.000  H
  H22      1.0000 0.86700  0.46900  0.59400  Biso   1.000  H
