data_image0
_cell_length_a       7.455
_cell_length_b       8.196
_cell_length_c       11.235
_cell_angle_alpha    90
_cell_angle_beta     100.55
_cell_angle_gamma    90

_symmetry_space_group_name_H-M    "P 1"
_symmetry_int_tables_number       1

loop_
  _symmetry_equiv_pos_as_xyz
  'x, y, z'

loop_
  _atom_site_label
  _atom_site_occupancy
  _atom_site_fract_x
  _atom_site_fract_y
  _atom_site_fract_z
  _atom_site_thermal_displace_type
  _atom_site_B_iso_or_equiv
  _atom_site_type_symbol
  O1       1.0000 0.64550  0.11360  0.68030  Biso   1.000  O
  O2       1.0000 0.85450  0.61360  0.81970  Biso   1.000  O
  O3       1.0000 0.35450  0.88640  0.31970  Biso   1.000  O
  O4       1.0000 0.14550  0.38640  0.18030  Biso   1.000  O
  Cu1      1.0000 0.50000  0.50000  0.50000  Biso   1.000  Cu
  Cu2      1.0000 0.00000  0.00000  0.00000  Biso   1.000  Cu
  O5       1.0000 0.64810  0.43110  0.66160  Biso   1.000  O
  O6       1.0000 0.85190  0.93110  0.83840  Biso   1.000  O
  O7       1.0000 0.35190  0.56890  0.33840  Biso   1.000  O
  O8       1.0000 0.14810  0.06890  0.16160  Biso   1.000  O
  O9       1.0000 0.53830  0.23820  0.39780  Biso   1.000  O
  O10      1.0000 0.96170  0.73820  0.10220  Biso   1.000  O
  O11      1.0000 0.46170  0.76180  0.60220  Biso   1.000  O
  O12      1.0000 0.03830  0.26180  0.89780  Biso   1.000  O
  C1       1.0000 0.51590  0.10930  0.45130  Biso   1.000  C
  C2       1.0000 0.98410  0.60930  0.04870  Biso   1.000  C
  C3       1.0000 0.48410  0.89070  0.54870  Biso   1.000  C
  C4       1.0000 0.01590  0.39070  0.95130  Biso   1.000  C
  C5       1.0000 0.56900  0.05250  0.58450  Biso   1.000  C
  C6       1.0000 0.93100  0.55250  0.91550  Biso   1.000  C
  C7       1.0000 0.43100  0.94750  0.41550  Biso   1.000  C
  C8       1.0000 0.06900  0.44750  0.08450  Biso   1.000  C
  N1       1.0000 0.28290  0.39740  0.55120  Biso   1.000  N
  N2       1.0000 0.21710  0.89740  0.94880  Biso   1.000  N
  N3       1.0000 0.71710  0.60260  0.44880  Biso   1.000  N
  N4       1.0000 0.78290  0.10260  0.05120  Biso   1.000  N
  N5       1.0000 0.10010  0.30270  0.66790  Biso   1.000  N
  N6       1.0000 0.39990  0.80270  0.83210  Biso   1.000  N
  N7       1.0000 0.89990  0.69730  0.33210  Biso   1.000  N
  N8       1.0000 0.60010  0.19730  0.16790  Biso   1.000  N
  C9       1.0000 0.25610  0.38440  0.66390  Biso   1.000  C
  C10      1.0000 0.24390  0.88440  0.83610  Biso   1.000  C
  C11      1.0000 0.74390  0.61560  0.33610  Biso   1.000  C
  C12      1.0000 0.75610  0.11560  0.16390  Biso   1.000  C
  C13      1.0000 0.02820  0.26190  0.55370  Biso   1.000  C
  C14      1.0000 0.47180  0.76190  0.94630  Biso   1.000  C
  C15      1.0000 0.97180  0.73810  0.44630  Biso   1.000  C
  C16      1.0000 0.52820  0.23810  0.05370  Biso   1.000  C
  C17      1.0000 0.14100  0.31930  0.47840  Biso   1.000  C
  C18      1.0000 0.35900  0.81930  0.02160  Biso   1.000  C
  C19      1.0000 0.85900  0.68070  0.52160  Biso   1.000  C
  C20      1.0000 0.64100  0.18070  0.97840  Biso   1.000  C
