data_image0
_cell_length_a       13.736
_cell_length_b       13.736
_cell_length_c       18.648
_cell_angle_alpha    90
_cell_angle_beta     90
_cell_angle_gamma    90

_symmetry_space_group_name_H-M    "P 1"
_symmetry_int_tables_number       1

loop_
  _symmetry_equiv_pos_as_xyz
  'x, y, z'

loop_
  _atom_site_label
  _atom_site_occupancy
  _atom_site_fract_x
  _atom_site_fract_y
  _atom_site_fract_z
  _atom_site_thermal_displace_type
  _atom_site_B_iso_or_equiv
  _atom_site_type_symbol
  Cu1      1.0000 0.26226  0.53546  0.02136  Biso   1.000  Cu
  Cu2      1.0000 0.96454  0.76226  0.27136  Biso   1.000  Cu
  Cu3      1.0000 0.73774  0.46454  0.52136  Biso   1.000  Cu
  Cu4      1.0000 0.03546  0.23774  0.77136  Biso   1.000  Cu
  Cu5      1.0000 0.76226  0.96454  0.72864  Biso   1.000  Cu
  Cu6      1.0000 0.23774  0.03546  0.22864  Biso   1.000  Cu
  Cu7      1.0000 0.53546  0.26226  0.97864  Biso   1.000  Cu
  Cu8      1.0000 0.46454  0.73774  0.47864  Biso   1.000  Cu
  O1       1.0000 0.28263  0.40488  0.06262  Biso   1.000  O
  O2       1.0000 0.09512  0.78263  0.31262  Biso   1.000  O
  O3       1.0000 0.71737  0.59512  0.56262  Biso   1.000  O
  O4       1.0000 0.90488  0.21737  0.81262  Biso   1.000  O
  O5       1.0000 0.78263  0.09512  0.68738  Biso   1.000  O
  O6       1.0000 0.21737  0.90488  0.18738  Biso   1.000  O
  O7       1.0000 0.40488  0.28263  0.93738  Biso   1.000  O
  O8       1.0000 0.59512  0.71737  0.43738  Biso   1.000  O
  O9       1.0000 0.20983  0.26218  0.08241  Biso   1.000  O
  O10      1.0000 0.23782  0.70983  0.33241  Biso   1.000  O
  O11      1.0000 0.79017  0.73782  0.58241  Biso   1.000  O
  O12      1.0000 0.76218  0.29017  0.83241  Biso   1.000  O
  O13      1.0000 0.70983  0.23782  0.66759  Biso   1.000  O
  O14      1.0000 0.29017  0.76218  0.16759  Biso   1.000  O
  O15      1.0000 0.26218  0.20983  0.91759  Biso   1.000  O
  O16      1.0000 0.73782  0.79017  0.41759  Biso   1.000  O
  O17      1.0000 0.09394  0.31572  0.92170  Biso   1.000  O
  O18      1.0000 0.18428  0.59394  0.17170  Biso   1.000  O
  O19      1.0000 0.90606  0.68428  0.42170  Biso   1.000  O
  O20      1.0000 0.81572  0.40606  0.67170  Biso   1.000  O
  O21      1.0000 0.59394  0.18428  0.82830  Biso   1.000  O
  O22      1.0000 0.40606  0.81572  0.32830  Biso   1.000  O
  O23      1.0000 0.31572  0.09394  0.07830  Biso   1.000  O
  O24      1.0000 0.68428  0.90606  0.57830  Biso   1.000  O
  H1       1.0000 0.14640  0.28470  0.92490  Biso   1.000  H
  H2       1.0000 0.21530  0.64640  0.17490  Biso   1.000  H
  H3       1.0000 0.85360  0.71530  0.42490  Biso   1.000  H
  H4       1.0000 0.78470  0.35360  0.67490  Biso   1.000  H
  H5       1.0000 0.64640  0.21530  0.82510  Biso   1.000  H
  H6       1.0000 0.35360  0.78470  0.32510  Biso   1.000  H
  H7       1.0000 0.28470  0.14640  0.07510  Biso   1.000  H
  H8       1.0000 0.71530  0.85360  0.57510  Biso   1.000  H
  O25      1.0000 0.31780  0.46902  0.91398  Biso   1.000  O
  O26      1.0000 0.03098  0.81780  0.16398  Biso   1.000  O
  O27      1.0000 0.68220  0.53098  0.41398  Biso   1.000  O
  O28      1.0000 0.96902  0.18220  0.66398  Biso   1.000  O
  O29      1.0000 0.81780  0.03098  0.83602  Biso   1.000  O
  O30      1.0000 0.18220  0.96902  0.33602  Biso   1.000  O
  O31      1.0000 0.46902  0.31780  0.08602  Biso   1.000  O
  O32      1.0000 0.53098  0.68220  0.58602  Biso   1.000  O
  O33      1.0000 0.41130  0.77770  0.77706  Biso   1.000  O
  O34      1.0000 0.72230  0.91130  0.02706  Biso   1.000  O
  O35      1.0000 0.58870  0.22230  0.27706  Biso   1.000  O
  O36      1.0000 0.27770  0.08870  0.52706  Biso   1.000  O
  O37      1.0000 0.91130  0.72230  0.97294  Biso   1.000  O
  O38      1.0000 0.08870  0.27770  0.47294  Biso   1.000  O
  O39      1.0000 0.77770  0.41130  0.22294  Biso   1.000  O
  O40      1.0000 0.22230  0.58870  0.72294  Biso   1.000  O
  O41      1.0000 0.45510  0.90070  0.84044  Biso   1.000  O
  O42      1.0000 0.59930  0.95510  0.09044  Biso   1.000  O
  O43      1.0000 0.54490  0.09930  0.34044  Biso   1.000  O
  O44      1.0000 0.40070  0.04490  0.59044  Biso   1.000  O
  O45      1.0000 0.95510  0.59930  0.90956  Biso   1.000  O
  O46      1.0000 0.04490  0.40070  0.40956  Biso   1.000  O
  O47      1.0000 0.90070  0.45510  0.15956  Biso   1.000  O
  O48      1.0000 0.09930  0.54490  0.65956  Biso   1.000  O
  O49      1.0000 0.47300  0.75660  0.88327  Biso   1.000  O
  O50      1.0000 0.74340  0.97300  0.13327  Biso   1.000  O
  O51      1.0000 0.52700  0.24340  0.38327  Biso   1.000  O
  O52      1.0000 0.25660  0.02700  0.63327  Biso   1.000  O
  O53      1.0000 0.97300  0.74340  0.86673  Biso   1.000  O
  O54      1.0000 0.02700  0.25660  0.36673  Biso   1.000  O
  O55      1.0000 0.75660  0.47300  0.11673  Biso   1.000  O
  O56      1.0000 0.24340  0.52700  0.61673  Biso   1.000  O
  O57      1.0000 0.43360  0.60880  0.71000  Biso   1.000  O
  O58      1.0000 0.89120  0.93360  0.96000  Biso   1.000  O
  O59      1.0000 0.56640  0.39120  0.21000  Biso   1.000  O
  O60      1.0000 0.10880  0.06640  0.46000  Biso   1.000  O
  O61      1.0000 0.93360  0.89120  0.04000  Biso   1.000  O
  O62      1.0000 0.06640  0.10880  0.54000  Biso   1.000  O
  O63      1.0000 0.60880  0.43360  0.29000  Biso   1.000  O
  O64      1.0000 0.39120  0.56640  0.79000  Biso   1.000  O
  O65      1.0000 0.98090  0.60780  0.08329  Biso   1.000  O
  O66      1.0000 0.89220  0.48090  0.33329  Biso   1.000  O
  O67      1.0000 0.01910  0.39220  0.58329  Biso   1.000  O
  O68      1.0000 0.10780  0.51910  0.83329  Biso   1.000  O
  O69      1.0000 0.48090  0.89220  0.66671  Biso   1.000  O
  O70      1.0000 0.51910  0.10780  0.16671  Biso   1.000  O
  O71      1.0000 0.60780  0.98090  0.91671  Biso   1.000  O
  O72      1.0000 0.39220  0.01910  0.41671  Biso   1.000  O
  N1       1.0000 0.12771  0.48822  0.00464  Biso   1.000  N
  N2       1.0000 0.01178  0.62771  0.25464  Biso   1.000  N
  N3       1.0000 0.87229  0.51178  0.50464  Biso   1.000  N
  N4       1.0000 0.98822  0.37229  0.75464  Biso   1.000  N
  N5       1.0000 0.62771  0.01178  0.74536  Biso   1.000  N
  N6       1.0000 0.37229  0.98822  0.24536  Biso   1.000  N
  N7       1.0000 0.48822  0.12771  0.99536  Biso   1.000  N
  N8       1.0000 0.51178  0.87229  0.49536  Biso   1.000  N
  H9       1.0000 0.08420  0.53260  0.02300  Biso   1.000  H
  H10      1.0000 0.96740  0.58420  0.27300  Biso   1.000  H
  H11      1.0000 0.91580  0.46740  0.52300  Biso   1.000  H
  H12      1.0000 0.03260  0.41580  0.77300  Biso   1.000  H
  H13      1.0000 0.58420  0.96740  0.72700  Biso   1.000  H
  H14      1.0000 0.41580  0.03260  0.22700  Biso   1.000  H
  H15      1.0000 0.53260  0.08420  0.97700  Biso   1.000  H
  H16      1.0000 0.46740  0.91580  0.47700  Biso   1.000  H
  H17      1.0000 0.11680  0.48330  0.95610  Biso   1.000  H
  H18      1.0000 0.01670  0.61680  0.20610  Biso   1.000  H
  H19      1.0000 0.88320  0.51670  0.45610  Biso   1.000  H
  H20      1.0000 0.98330  0.38320  0.70610  Biso   1.000  H
  H21      1.0000 0.61680  0.01670  0.79390  Biso   1.000  H
  H22      1.0000 0.38320  0.98330  0.29390  Biso   1.000  H
  H23      1.0000 0.48330  0.11680  0.04390  Biso   1.000  H
  H24      1.0000 0.51670  0.88320  0.54390  Biso   1.000  H
  N9       1.0000 0.22864  0.66518  0.97530  Biso   1.000  N
  N10      1.0000 0.83482  0.72864  0.22530  Biso   1.000  N
  N11      1.0000 0.77136  0.33482  0.47530  Biso   1.000  N
  N12      1.0000 0.16518  0.27136  0.72530  Biso   1.000  N
  N13      1.0000 0.72864  0.83482  0.77470  Biso   1.000  N
  N14      1.0000 0.27136  0.16518  0.27470  Biso   1.000  N
  N15      1.0000 0.66518  0.22864  0.02470  Biso   1.000  N
  N16      1.0000 0.33482  0.77136  0.52470  Biso   1.000  N
  N17      1.0000 0.08344  0.11082  0.81315  Biso   1.000  N
  N18      1.0000 0.38918  0.58344  0.06315  Biso   1.000  N
  N19      1.0000 0.91656  0.88918  0.31315  Biso   1.000  N
  N20      1.0000 0.61082  0.41656  0.56315  Biso   1.000  N
  N21      1.0000 0.58344  0.38918  0.93685  Biso   1.000  N
  N22      1.0000 0.41656  0.61082  0.43685  Biso   1.000  N
  N23      1.0000 0.11082  0.08344  0.18685  Biso   1.000  N
  N24      1.0000 0.88918  0.91656  0.68685  Biso   1.000  N
  N25      1.0000 0.44700  0.81050  0.83419  Biso   1.000  N
  N26      1.0000 0.68950  0.94700  0.08419  Biso   1.000  N
  N27      1.0000 0.55300  0.18950  0.33419  Biso   1.000  N
  N28      1.0000 0.31050  0.05300  0.58419  Biso   1.000  N
  N29      1.0000 0.94700  0.68950  0.91581  Biso   1.000  N
  N30      1.0000 0.05300  0.31050  0.41581  Biso   1.000  N
  N31      1.0000 0.81050  0.44700  0.16581  Biso   1.000  N
  N32      1.0000 0.18950  0.55300  0.66581  Biso   1.000  N
  C1       1.0000 0.94790  0.36200  0.98131  Biso   1.000  C
  C2       1.0000 0.13800  0.44790  0.23131  Biso   1.000  C
  C3       1.0000 0.05210  0.63800  0.48131  Biso   1.000  C
  C4       1.0000 0.86200  0.55210  0.73131  Biso   1.000  C
  C5       1.0000 0.44790  0.13800  0.76869  Biso   1.000  C
  C6       1.0000 0.55210  0.86200  0.26869  Biso   1.000  C
  C7       1.0000 0.36200  0.94790  0.01869  Biso   1.000  C
  C8       1.0000 0.63800  0.05210  0.51869  Biso   1.000  C
  H25      1.0000 0.94990  0.42750  0.96050  Biso   1.000  H
  H26      1.0000 0.07250  0.44990  0.21050  Biso   1.000  H
  H27      1.0000 0.05010  0.57250  0.46050  Biso   1.000  H
  H28      1.0000 0.92750  0.55010  0.71050  Biso   1.000  H
  H29      1.0000 0.44990  0.07250  0.78950  Biso   1.000  H
  H30      1.0000 0.55010  0.92750  0.28950  Biso   1.000  H
  H31      1.0000 0.42750  0.94990  0.03950  Biso   1.000  H
  H32      1.0000 0.57250  0.05010  0.53950  Biso   1.000  H
  H33      1.0000 0.91510  0.36440  0.02800  Biso   1.000  H
  H34      1.0000 0.13560  0.41510  0.27800  Biso   1.000  H
  H35      1.0000 0.08490  0.63560  0.52800  Biso   1.000  H
  H36      1.0000 0.86440  0.58490  0.77800  Biso   1.000  H
  H37      1.0000 0.41510  0.13560  0.72200  Biso   1.000  H
  H38      1.0000 0.58490  0.86440  0.22200  Biso   1.000  H
  H39      1.0000 0.36440  0.91510  0.97200  Biso   1.000  H
  H40      1.0000 0.63560  0.08490  0.47200  Biso   1.000  H
  H41      1.0000 0.91210  0.31840  0.94910  Biso   1.000  H
  H42      1.0000 0.18160  0.41210  0.19910  Biso   1.000  H
  H43      1.0000 0.08790  0.68160  0.44910  Biso   1.000  H
  H44      1.0000 0.81840  0.58790  0.69910  Biso   1.000  H
  H45      1.0000 0.41210  0.18160  0.80090  Biso   1.000  H
  H46      1.0000 0.58790  0.81840  0.30090  Biso   1.000  H
  H47      1.0000 0.31840  0.91210  0.05090  Biso   1.000  H
  H48      1.0000 0.68160  0.08790  0.55090  Biso   1.000  H
  C9       1.0000 0.05090  0.32450  0.99109  Biso   1.000  C
  C10      1.0000 0.17550  0.55090  0.24109  Biso   1.000  C
  C11      1.0000 0.94910  0.67550  0.49109  Biso   1.000  C
  C12      1.0000 0.82450  0.44910  0.74109  Biso   1.000  C
  C13      1.0000 0.55090  0.17550  0.75891  Biso   1.000  C
  C14      1.0000 0.44910  0.82450  0.25891  Biso   1.000  C
  C15      1.0000 0.32450  0.05090  0.00891  Biso   1.000  C
  C16      1.0000 0.67550  0.94910  0.50891  Biso   1.000  C
  H49      1.0000 0.04810  0.25860  0.01380  Biso   1.000  H
  H50      1.0000 0.24140  0.54810  0.26380  Biso   1.000  H
  H51      1.0000 0.95190  0.74140  0.51380  Biso   1.000  H
  H52      1.0000 0.75860  0.45190  0.76380  Biso   1.000  H
  H53      1.0000 0.54810  0.24140  0.73620  Biso   1.000  H
  H54      1.0000 0.45190  0.75860  0.23620  Biso   1.000  H
  H55      1.0000 0.25860  0.04810  0.98620  Biso   1.000  H
  H56      1.0000 0.74140  0.95190  0.48620  Biso   1.000  H
  C17      1.0000 0.11100  0.39200  0.03872  Biso   1.000  C
  C18      1.0000 0.10800  0.61100  0.28872  Biso   1.000  C
  C19      1.0000 0.88900  0.60800  0.53872  Biso   1.000  C
  C20      1.0000 0.89200  0.38900  0.78872  Biso   1.000  C
  C21      1.0000 0.61100  0.10800  0.71128  Biso   1.000  C
  C22      1.0000 0.38900  0.89200  0.21128  Biso   1.000  C
  C23      1.0000 0.39200  0.11100  0.96128  Biso   1.000  C
  C24      1.0000 0.60800  0.88900  0.46128  Biso   1.000  C
  H57      1.0000 0.07210  0.40390  0.08320  Biso   1.000  H
  H58      1.0000 0.09610  0.57210  0.33320  Biso   1.000  H
  H59      1.0000 0.92790  0.59610  0.58320  Biso   1.000  H
  H60      1.0000 0.90390  0.42790  0.83320  Biso   1.000  H
  H61      1.0000 0.57210  0.09610  0.66680  Biso   1.000  H
  H62      1.0000 0.42790  0.90390  0.16680  Biso   1.000  H
  H63      1.0000 0.40390  0.07210  0.91680  Biso   1.000  H
  H64      1.0000 0.59610  0.92790  0.41680  Biso   1.000  H
  C25      1.0000 0.20810  0.34760  0.06220  Biso   1.000  C
  C26      1.0000 0.15240  0.70810  0.31220  Biso   1.000  C
  C27      1.0000 0.79190  0.65240  0.56220  Biso   1.000  C
  C28      1.0000 0.84760  0.29190  0.81220  Biso   1.000  C
  C29      1.0000 0.70810  0.15240  0.68780  Biso   1.000  C
  C30      1.0000 0.29190  0.84760  0.18780  Biso   1.000  C
  C31      1.0000 0.34760  0.20810  0.93780  Biso   1.000  C
  C32      1.0000 0.65240  0.79190  0.43780  Biso   1.000  C
  C33      1.0000 0.24880  0.68420  0.90677  Biso   1.000  C
  C34      1.0000 0.81580  0.74880  0.15677  Biso   1.000  C
  C35      1.0000 0.75120  0.31580  0.40677  Biso   1.000  C
  C36      1.0000 0.18420  0.25120  0.65677  Biso   1.000  C
  C37      1.0000 0.74880  0.81580  0.84323  Biso   1.000  C
  C38      1.0000 0.25120  0.18420  0.34323  Biso   1.000  C
  C39      1.0000 0.68420  0.24880  0.09323  Biso   1.000  C
  C40      1.0000 0.31580  0.75120  0.59323  Biso   1.000  C
  H65      1.0000 0.28350  0.63680  0.87980  Biso   1.000  H
  H66      1.0000 0.86320  0.78350  0.12980  Biso   1.000  H
  H67      1.0000 0.71650  0.36320  0.37980  Biso   1.000  H
  H68      1.0000 0.13680  0.21650  0.62980  Biso   1.000  H
  H69      1.0000 0.78350  0.86320  0.87020  Biso   1.000  H
  H70      1.0000 0.21650  0.13680  0.37020  Biso   1.000  H
  H71      1.0000 0.63680  0.28350  0.12020  Biso   1.000  H
  H72      1.0000 0.36320  0.71650  0.62020  Biso   1.000  H
  C41      1.0000 0.22160  0.76950  0.87318  Biso   1.000  C
  C42      1.0000 0.73050  0.72160  0.12318  Biso   1.000  C
  C43      1.0000 0.77840  0.23050  0.37318  Biso   1.000  C
  C44      1.0000 0.26950  0.27840  0.62318  Biso   1.000  C
  C45      1.0000 0.72160  0.73050  0.87682  Biso   1.000  C
  C46      1.0000 0.27840  0.26950  0.37682  Biso   1.000  C
  C47      1.0000 0.76950  0.22160  0.12682  Biso   1.000  C
  C48      1.0000 0.23050  0.77840  0.62682  Biso   1.000  C
  H73      1.0000 0.23800  0.77970  0.82420  Biso   1.000  H
  H74      1.0000 0.72030  0.73800  0.07420  Biso   1.000  H
  H75      1.0000 0.76200  0.22030  0.32420  Biso   1.000  H
  H76      1.0000 0.27970  0.26200  0.57420  Biso   1.000  H
  H77      1.0000 0.73800  0.72030  0.92580  Biso   1.000  H
  H78      1.0000 0.26200  0.27970  0.42580  Biso   1.000  H
  H79      1.0000 0.77970  0.23800  0.17580  Biso   1.000  H
  H80      1.0000 0.22030  0.76200  0.67580  Biso   1.000  H
  C49      1.0000 0.17080  0.84030  0.91015  Biso   1.000  C
  C50      1.0000 0.65970  0.67080  0.16015  Biso   1.000  C
  C51      1.0000 0.82920  0.15970  0.41015  Biso   1.000  C
  C52      1.0000 0.34030  0.32920  0.66015  Biso   1.000  C
  C53      1.0000 0.67080  0.65970  0.83985  Biso   1.000  C
  C54      1.0000 0.32920  0.34030  0.33985  Biso   1.000  C
  C55      1.0000 0.84030  0.17080  0.08985  Biso   1.000  C
  C56      1.0000 0.15970  0.82920  0.58985  Biso   1.000  C
  C57      1.0000 0.14950  0.81950  0.98178  Biso   1.000  C
  C58      1.0000 0.68050  0.64950  0.23178  Biso   1.000  C
  C59      1.0000 0.85050  0.18050  0.48178  Biso   1.000  C
  C60      1.0000 0.31950  0.35050  0.73178  Biso   1.000  C
  C61      1.0000 0.64950  0.68050  0.76822  Biso   1.000  C
  C62      1.0000 0.35050  0.31950  0.26822  Biso   1.000  C
  C63      1.0000 0.81950  0.14950  0.01822  Biso   1.000  C
  C64      1.0000 0.18050  0.85050  0.51822  Biso   1.000  C
  H81      1.0000 0.11480  0.86550  0.01000  Biso   1.000  H
  H82      1.0000 0.63450  0.61480  0.26000  Biso   1.000  H
  H83      1.0000 0.88520  0.13450  0.51000  Biso   1.000  H
  H84      1.0000 0.36550  0.38520  0.76000  Biso   1.000  H
  H85      1.0000 0.61480  0.63450  0.74000  Biso   1.000  H
  H86      1.0000 0.38520  0.36550  0.24000  Biso   1.000  H
  H87      1.0000 0.86550  0.11480  0.99000  Biso   1.000  H
  H88      1.0000 0.13450  0.88520  0.49000  Biso   1.000  H
  C65      1.0000 0.17860  0.73230  0.01172  Biso   1.000  C
  C66      1.0000 0.76770  0.67860  0.26172  Biso   1.000  C
  C67      1.0000 0.82140  0.26770  0.51172  Biso   1.000  C
  C68      1.0000 0.23230  0.32140  0.76172  Biso   1.000  C
  C69      1.0000 0.67860  0.76770  0.73828  Biso   1.000  C
  C70      1.0000 0.32140  0.23230  0.23828  Biso   1.000  C
  C71      1.0000 0.73230  0.17860  0.98828  Biso   1.000  C
  C72      1.0000 0.26770  0.82140  0.48828  Biso   1.000  C
  H89      1.0000 0.16230  0.71960  0.06030  Biso   1.000  H
  H90      1.0000 0.78040  0.66230  0.31030  Biso   1.000  H
  H91      1.0000 0.83770  0.28040  0.56030  Biso   1.000  H
  H92      1.0000 0.21960  0.33770  0.81030  Biso   1.000  H
  H93      1.0000 0.66230  0.78040  0.68970  Biso   1.000  H
  H94      1.0000 0.33770  0.21960  0.18970  Biso   1.000  H
  H95      1.0000 0.71960  0.16230  0.93970  Biso   1.000  H
  H96      1.0000 0.28040  0.83770  0.43970  Biso   1.000  H
  C73      1.0000 0.15230  0.05480  0.78460  Biso   1.000  C
  C74      1.0000 0.44520  0.65230  0.03460  Biso   1.000  C
  C75      1.0000 0.84770  0.94520  0.28460  Biso   1.000  C
  C76      1.0000 0.55480  0.34770  0.53460  Biso   1.000  C
  C77      1.0000 0.65230  0.44520  0.96540  Biso   1.000  C
  C78      1.0000 0.34770  0.55480  0.46540  Biso   1.000  C
  C79      1.0000 0.05480  0.15230  0.21540  Biso   1.000  C
  C80      1.0000 0.94520  0.84770  0.71540  Biso   1.000  C
  H97      1.0000 0.18250  0.07600  0.74160  Biso   1.000  H
  H98      1.0000 0.42400  0.68250  0.99160  Biso   1.000  H
  H99      1.0000 0.81750  0.92400  0.24160  Biso   1.000  H
  H100     1.0000 0.57600  0.31750  0.49160  Biso   1.000  H
  H101     1.0000 0.68250  0.42400  0.00840  Biso   1.000  H
  H102     1.0000 0.31750  0.57600  0.50840  Biso   1.000  H
  H103     1.0000 0.07600  0.18250  0.25840  Biso   1.000  H
  H104     1.0000 0.92400  0.81750  0.75840  Biso   1.000  H
  C81      1.0000 0.18220  0.96800  0.81380  Biso   1.000  C
  C82      1.0000 0.53200  0.68220  0.06380  Biso   1.000  C
  C83      1.0000 0.81780  0.03200  0.31380  Biso   1.000  C
  C84      1.0000 0.46800  0.31780  0.56380  Biso   1.000  C
  C85      1.0000 0.68220  0.53200  0.93620  Biso   1.000  C
  C86      1.0000 0.31780  0.46800  0.43620  Biso   1.000  C
  C87      1.0000 0.96800  0.18220  0.18620  Biso   1.000  C
  C88      1.0000 0.03200  0.81780  0.68620  Biso   1.000  C
  H105     1.0000 0.23140  0.93100  0.79060  Biso   1.000  H
  H106     1.0000 0.56900  0.73140  0.04060  Biso   1.000  H
  H107     1.0000 0.76860  0.06900  0.29060  Biso   1.000  H
  H108     1.0000 0.43100  0.26860  0.54060  Biso   1.000  H
  H109     1.0000 0.73140  0.56900  0.95940  Biso   1.000  H
  H110     1.0000 0.26860  0.43100  0.45940  Biso   1.000  H
  H111     1.0000 0.93100  0.23140  0.20940  Biso   1.000  H
  H112     1.0000 0.06900  0.76860  0.70940  Biso   1.000  H
  C89      1.0000 0.14150  0.93460  0.87609  Biso   1.000  C
  C90      1.0000 0.56540  0.64150  0.12609  Biso   1.000  C
  C91      1.0000 0.85850  0.06540  0.37609  Biso   1.000  C
  C92      1.0000 0.43460  0.35850  0.62609  Biso   1.000  C
  C93      1.0000 0.64150  0.56540  0.87391  Biso   1.000  C
  C94      1.0000 0.35850  0.43460  0.37391  Biso   1.000  C
  C95      1.0000 0.93460  0.14150  0.12391  Biso   1.000  C
  C96      1.0000 0.06540  0.85850  0.62391  Biso   1.000  C
  C97      1.0000 0.07280  0.99260  0.90567  Biso   1.000  C
  C98      1.0000 0.50740  0.57280  0.15567  Biso   1.000  C
  C99      1.0000 0.92720  0.00740  0.40567  Biso   1.000  C
  C100     1.0000 0.49260  0.42720  0.65567  Biso   1.000  C
  C101     1.0000 0.57280  0.50740  0.84433  Biso   1.000  C
  C102     1.0000 0.42720  0.49260  0.34433  Biso   1.000  C
  C103     1.0000 0.99260  0.07280  0.09433  Biso   1.000  C
  C104     1.0000 0.00740  0.92720  0.59433  Biso   1.000  C
  H113     1.0000 0.04190  0.97310  0.94890  Biso   1.000  H
  H114     1.0000 0.52690  0.54190  0.19890  Biso   1.000  H
  H115     1.0000 0.95810  0.02690  0.44890  Biso   1.000  H
  H116     1.0000 0.47310  0.45810  0.69890  Biso   1.000  H
  H117     1.0000 0.54190  0.52690  0.80110  Biso   1.000  H
  H118     1.0000 0.45810  0.47310  0.30110  Biso   1.000  H
  H119     1.0000 0.97310  0.04190  0.05110  Biso   1.000  H
  H120     1.0000 0.02690  0.95810  0.55110  Biso   1.000  H
  C105     1.0000 0.04680  0.08000  0.87393  Biso   1.000  C
  C106     1.0000 0.42000  0.54680  0.12393  Biso   1.000  C
  C107     1.0000 0.95320  0.92000  0.37393  Biso   1.000  C
  C108     1.0000 0.58000  0.45320  0.62393  Biso   1.000  C
  C109     1.0000 0.54680  0.42000  0.87607  Biso   1.000  C
  C110     1.0000 0.45320  0.58000  0.37607  Biso   1.000  C
  C111     1.0000 0.08000  0.04680  0.12607  Biso   1.000  C
  C112     1.0000 0.92000  0.95320  0.62607  Biso   1.000  C
  H121     1.0000 0.00000  0.11970  0.89740  Biso   1.000  H
  H122     1.0000 0.38030  0.50000  0.14740  Biso   1.000  H
  H123     1.0000 0.00000  0.88030  0.39740  Biso   1.000  H
  H124     1.0000 0.61970  0.50000  0.64740  Biso   1.000  H
  H125     1.0000 0.50000  0.38030  0.85260  Biso   1.000  H
  H126     1.0000 0.50000  0.61970  0.35260  Biso   1.000  H
  H127     1.0000 0.11970  0.00000  0.10260  Biso   1.000  H
  H128     1.0000 0.88030  0.00000  0.60260  Biso   1.000  H
  H129     1.0000 0.93800  0.57300  0.09900  Biso   1.000  H
  H130     1.0000 0.92700  0.43800  0.34900  Biso   1.000  H
  H131     1.0000 0.06200  0.42700  0.59900  Biso   1.000  H
  H132     1.0000 0.07300  0.56200  0.84900  Biso   1.000  H
  H133     1.0000 0.43800  0.92700  0.65100  Biso   1.000  H
  H134     1.0000 0.56200  0.07300  0.15100  Biso   1.000  H
  H135     1.0000 0.57300  0.93800  0.90100  Biso   1.000  H
  H136     1.0000 0.42700  0.06200  0.40100  Biso   1.000  H
  H137     1.0000 0.94700  0.63600  0.05100  Biso   1.000  H
  H138     1.0000 0.86400  0.44700  0.30100  Biso   1.000  H
  H139     1.0000 0.05300  0.36400  0.55100  Biso   1.000  H
  H140     1.0000 0.13600  0.55300  0.80100  Biso   1.000  H
  H141     1.0000 0.44700  0.86400  0.69900  Biso   1.000  H
  H142     1.0000 0.55300  0.13600  0.19900  Biso   1.000  H
  H143     1.0000 0.63600  0.94700  0.94900  Biso   1.000  H
  H144     1.0000 0.36400  0.05300  0.44900  Biso   1.000  H
  H145     1.0000 0.32460  0.40600  0.92040  Biso   1.000  H
  H146     1.0000 0.09400  0.82460  0.17040  Biso   1.000  H
  H147     1.0000 0.67540  0.59400  0.42040  Biso   1.000  H
  H148     1.0000 0.90600  0.17540  0.67040  Biso   1.000  H
  H149     1.0000 0.82460  0.09400  0.82960  Biso   1.000  H
  H150     1.0000 0.17540  0.90600  0.32960  Biso   1.000  H
  H151     1.0000 0.40600  0.32460  0.07960  Biso   1.000  H
  H152     1.0000 0.59400  0.67540  0.57960  Biso   1.000  H
  H153     1.0000 0.28200  0.47790  0.87370  Biso   1.000  H
  H154     1.0000 0.02210  0.78200  0.12370  Biso   1.000  H
  H155     1.0000 0.71800  0.52210  0.37370  Biso   1.000  H
  H156     1.0000 0.97790  0.21800  0.62370  Biso   1.000  H
  H157     1.0000 0.78200  0.02210  0.87630  Biso   1.000  H
  H158     1.0000 0.21800  0.97790  0.37630  Biso   1.000  H
  H159     1.0000 0.47790  0.28200  0.12630  Biso   1.000  H
  H160     1.0000 0.52210  0.71800  0.62630  Biso   1.000  H
  H161     1.0000 0.42650  0.66710  0.72480  Biso   1.000  H
  H162     1.0000 0.83290  0.92650  0.97480  Biso   1.000  H
  H163     1.0000 0.57350  0.33290  0.22480  Biso   1.000  H
  H164     1.0000 0.16710  0.07350  0.47480  Biso   1.000  H
  H165     1.0000 0.92650  0.83290  0.02520  Biso   1.000  H
  H166     1.0000 0.07350  0.16710  0.52520  Biso   1.000  H
  H167     1.0000 0.66710  0.42650  0.27520  Biso   1.000  H
  H168     1.0000 0.33290  0.57350  0.77520  Biso   1.000  H
  H169     1.0000 0.36910  0.60650  0.68540  Biso   1.000  H
  H170     1.0000 0.89350  0.86910  0.93540  Biso   1.000  H
  H171     1.0000 0.63090  0.39350  0.18540  Biso   1.000  H
  H172     1.0000 0.10650  0.13090  0.43540  Biso   1.000  H
  H173     1.0000 0.86910  0.89350  0.06460  Biso   1.000  H
  H174     1.0000 0.13090  0.10650  0.56460  Biso   1.000  H
  H175     1.0000 0.60650  0.36910  0.31460  Biso   1.000  H
  H176     1.0000 0.39350  0.63090  0.81460  Biso   1.000  H
