data_image0
_cell_length_a       6.9675
_cell_length_b       10.6078
_cell_length_c       11.4879
_cell_angle_alpha    109.198
_cell_angle_beta     100.025
_cell_angle_gamma    98.983

_symmetry_space_group_name_H-M    "P 1"
_symmetry_int_tables_number       1

loop_
  _symmetry_equiv_pos_as_xyz
  'x, y, z'

loop_
  _atom_site_label
  _atom_site_occupancy
  _atom_site_fract_x
  _atom_site_fract_y
  _atom_site_fract_z
  _atom_site_thermal_displace_type
  _atom_site_B_iso_or_equiv
  _atom_site_type_symbol
  Gd1      1.0000 0.64118  0.70737  0.09979  Biso   1.000  Gd
  Gd2      1.0000 0.35882  0.29263  0.90021  Biso   1.000  Gd
  Cu1      1.0000 0.00000  0.00000  0.50000  Biso   1.000  Cu
  O1       1.0000 0.73150  0.74570  0.32090  Biso   1.000  O
  O2       1.0000 0.26850  0.25430  0.67910  Biso   1.000  O
  C1       1.0000 0.68870  0.77570  0.42610  Biso   1.000  C
  C2       1.0000 0.31130  0.22430  0.57390  Biso   1.000  C
  O3       1.0000 0.78080  0.88090  0.52130  Biso   1.000  O
  O4       1.0000 0.21920  0.11910  0.47870  Biso   1.000  O
  C3       1.0000 0.52410  0.68040  0.44740  Biso   1.000  C
  C4       1.0000 0.47590  0.31960  0.55260  Biso   1.000  C
  H1       1.0000 0.43056  0.62666  0.36634  Biso   1.000  H
  H2       1.0000 0.56944  0.37334  0.63366  Biso   1.000  H
  H3       1.0000 0.58298  0.61734  0.47897  Biso   1.000  H
  H4       1.0000 0.41702  0.38266  0.52103  Biso   1.000  H
  O5       1.0000 0.23570  0.80850  0.37330  Biso   1.000  O
  O6       1.0000 0.76430  0.19150  0.62670  Biso   1.000  O
  C5       1.0000 0.41010  0.75160  0.53880  Biso   1.000  C
  C6       1.0000 0.58990  0.24840  0.46120  Biso   1.000  C
  O7       1.0000 0.18840  0.90400  0.56600  Biso   1.000  O
  O8       1.0000 0.81160  0.09600  0.43400  Biso   1.000  O
  C7       1.0000 0.26940  0.82650  0.48770  Biso   1.000  C
  C8       1.0000 0.73060  0.17350  0.51230  Biso   1.000  C
  O9       1.0000 0.61510  0.47420  0.09420  Biso   1.000  O
  O10      1.0000 0.38490  0.52580  0.90580  Biso   1.000  O
  C9       1.0000 0.41660  0.73800  0.64840  Biso   1.000  C
  C10      1.0000 0.58340  0.26200  0.35160  Biso   1.000  C
  H5       1.0000 0.49378  0.68247  0.67229  Biso   1.000  H
  H6       1.0000 0.50622  0.31753  0.32771  Biso   1.000  H
  H7       1.0000 0.34391  0.78370  0.70241  Biso   1.000  H
  H8       1.0000 0.65609  0.21630  0.29759  Biso   1.000  H
  O11      1.0000 0.64050  0.26230  0.05470  Biso   1.000  O
  O12      1.0000 0.35950  0.73770  0.94530  Biso   1.000  O
  C11      1.0000 0.70980  0.38710  0.11550  Biso   1.000  C
  C12      1.0000 0.29020  0.61290  0.88450  Biso   1.000  C
  O13      1.0000 0.13450  0.39770  0.03360  Biso   1.000  O
  O14      1.0000 0.86550  0.60230  0.96640  Biso   1.000  O
  C13      1.0000 0.90500  0.43730  0.21620  Biso   1.000  C
  C14      1.0000 0.09500  0.56270  0.78380  Biso   1.000  C
  H9       1.0000 0.97867  0.52160  0.21394  Biso   1.000  H
  H10      1.0000 0.02133  0.47840  0.78606  Biso   1.000  H
  H11      1.0000 0.87598  0.45778  0.29916  Biso   1.000  H
  H12      1.0000 0.12402  0.54222  0.70084  Biso   1.000  H
  C15      1.0000 0.03470  0.33390  0.19860  Biso   1.000  C
  C16      1.0000 0.96530  0.66610  0.80140  Biso   1.000  C
  O15      1.0000 0.23050  0.22150  0.06260  Biso   1.000  O
  O16      1.0000 0.76950  0.77850  0.93740  Biso   1.000  O
  C17      1.0000 0.13790  0.31620  0.09230  Biso   1.000  C
  C18      1.0000 0.86210  0.68380  0.90770  Biso   1.000  C
  H13      1.0000 0.05000  0.88700  0.16000  Biso   1.000  H
  H14      1.0000 0.95000  0.11300  0.84000  Biso   1.000  H
  H15      1.0000 0.05500  0.84800  0.25800  Biso   1.000  H
  H16      1.0000 0.94500  0.15200  0.74200  Biso   1.000  H
  O17      1.0000 0.97200  0.85640  0.19860  Biso   1.000  O
  O18      1.0000 0.02800  0.14360  0.80140  Biso   1.000  O
  C19      1.0000 0.06130  0.26470  0.27280  Biso   1.000  C
  C20      1.0000 0.93870  0.73530  0.72720  Biso   1.000  C
  H17      1.0000 0.14506  0.20380  0.25987  Biso   1.000  H
  H18      1.0000 0.85494  0.79620  0.74013  Biso   1.000  H
  H19      1.0000 0.99668  0.27631  0.33859  Biso   1.000  H
  H20      1.0000 0.00332  0.72369  0.66141  Biso   1.000  H
  H21      1.0000 0.49300  0.96000  0.16500  Biso   1.000  H
  H22      1.0000 0.50700  0.04000  0.83500  Biso   1.000  H
  H23      1.0000 0.66000  0.98600  0.26200  Biso   1.000  H
  H24      1.0000 0.34000  0.01400  0.73800  Biso   1.000  H
  O19      1.0000 0.60060  0.93490  0.18590  Biso   1.000  O
  O20      1.0000 0.39940  0.06510  0.81410  Biso   1.000  O
  O21      1.0000 0.33050  0.66630  0.15760  Biso   1.000  O
  O22      1.0000 0.66950  0.33370  0.84240  Biso   1.000  O
  H25      1.0000 0.23800  0.59600  0.12400  Biso   1.000  H
  H26      1.0000 0.76200  0.40400  0.87600  Biso   1.000  H
  H27      1.0000 0.31200  0.70700  0.22900  Biso   1.000  H
  H28      1.0000 0.68800  0.29300  0.77100  Biso   1.000  H
  O23      1.0000 0.23940  0.97170  0.08360  Biso   1.000  O
  O24      1.0000 0.76060  0.02830  0.91640  Biso   1.000  O
  H29      1.0000 0.22000  0.03900  0.06300  Biso   1.000  H
  H30      1.0000 0.78000  0.96100  0.93700  Biso   1.000  H
  H31      1.0000 0.24200  0.92600  0.00700  Biso   1.000  H
  H32      1.0000 0.75800  0.07400  0.99300  Biso   1.000  H
