data_image0
_cell_length_a       7.0117
_cell_length_b       10.8073
_cell_length_c       11.6598
_cell_angle_alpha    108.747
_cell_angle_beta     100.358
_cell_angle_gamma    99.018

_symmetry_space_group_name_H-M    "P 1"
_symmetry_int_tables_number       1

loop_
  _symmetry_equiv_pos_as_xyz
  'x, y, z'

loop_
  _atom_site_label
  _atom_site_occupancy
  _atom_site_fract_x
  _atom_site_fract_y
  _atom_site_fract_z
  _atom_site_thermal_displace_type
  _atom_site_B_iso_or_equiv
  _atom_site_type_symbol
  La1      1.0000 0.35318  0.29090  0.89576  Biso   1.000  La
  La2      1.0000 0.64682  0.70910  0.10424  Biso   1.000  La
  Cu1      1.0000 0.00000  0.00000  0.50000  Biso   1.000  Cu
  O1       1.0000 0.37510  0.52960  0.90421  Biso   1.000  O
  O2       1.0000 0.62490  0.47040  0.09579  Biso   1.000  O
  C1       1.0000 0.28600  0.61820  0.88560  Biso   1.000  C
  C2       1.0000 0.71400  0.38180  0.11440  Biso   1.000  C
  O3       1.0000 0.35480  0.73940  0.94840  Biso   1.000  O
  O4       1.0000 0.64520  0.26060  0.05160  Biso   1.000  O
  C3       1.0000 0.09640  0.57330  0.78250  Biso   1.000  C
  C4       1.0000 0.90360  0.42670  0.21750  Biso   1.000  C
  H1       1.0000 0.13098  0.55874  0.70299  Biso   1.000  H
  H2       1.0000 0.86902  0.44126  0.29701  Biso   1.000  H
  H3       1.0000 0.02093  0.48835  0.77909  Biso   1.000  H
  H4       1.0000 0.97907  0.51165  0.22091  Biso   1.000  H
  C5       1.0000 0.96750  0.67410  0.80090  Biso   1.000  C
  C6       1.0000 0.03250  0.32590  0.19910  Biso   1.000  C
  O5       1.0000 0.87650  0.60820  0.96330  Biso   1.000  O
  O6       1.0000 0.12350  0.39180  0.03670  Biso   1.000  O
  O7       1.0000 0.77520  0.78070  0.93660  Biso   1.000  O
  O8       1.0000 0.22480  0.21930  0.06340  Biso   1.000  O
  C7       1.0000 0.86860  0.68920  0.90650  Biso   1.000  C
  C8       1.0000 0.13140  0.31080  0.09350  Biso   1.000  C
  C9       1.0000 0.93930  0.74250  0.72920  Biso   1.000  C
  C10      1.0000 0.06070  0.25750  0.27080  Biso   1.000  C
  H5       1.0000 0.85648  0.80229  0.74279  Biso   1.000  H
  H6       1.0000 0.14352  0.19771  0.25721  Biso   1.000  H
  H7       1.0000 0.00192  0.73197  0.66391  Biso   1.000  H
  H8       1.0000 0.99808  0.26803  0.33609  Biso   1.000  H
  O9       1.0000 0.26360  0.25010  0.66951  Biso   1.000  O
  O10      1.0000 0.73640  0.74990  0.33049  Biso   1.000  O
  C11      1.0000 0.30800  0.21800  0.56590  Biso   1.000  C
  C12      1.0000 0.69200  0.78200  0.43410  Biso   1.000  C
  O11      1.0000 0.21850  0.11310  0.47480  Biso   1.000  O
  O12      1.0000 0.78150  0.88690  0.52520  Biso   1.000  O
  C13      1.0000 0.47270  0.30980  0.54500  Biso   1.000  C
  C14      1.0000 0.52730  0.69020  0.45500  Biso   1.000  C
  O13      1.0000 0.76190  0.18940  0.62410  Biso   1.000  O
  O14      1.0000 0.23810  0.81060  0.37590  Biso   1.000  O
  O15      1.0000 0.81360  0.09570  0.43646  Biso   1.000  O
  O16      1.0000 0.18640  0.90430  0.56354  Biso   1.000  O
  C15      1.0000 0.58870  0.24170  0.45690  Biso   1.000  C
  C16      1.0000 0.41130  0.75830  0.54310  Biso   1.000  C
  C17      1.0000 0.73040  0.17030  0.51090  Biso   1.000  C
  C18      1.0000 0.26960  0.82970  0.48910  Biso   1.000  C
  O17      1.0000 0.01260  0.13390  0.79510  Biso   1.000  O
  O18      1.0000 0.98740  0.86610  0.20490  Biso   1.000  O
  H9       1.0000 0.93400  0.14700  0.74000  Biso   1.000  H
  H10      1.0000 0.06600  0.85300  0.26000  Biso   1.000  H
  H11      1.0000 0.94300  0.10300  0.83600  Biso   1.000  H
  H12      1.0000 0.05700  0.89700  0.16400  Biso   1.000  H
  O19      1.0000 0.39800  0.05800  0.80860  Biso   1.000  O
  O20      1.0000 0.60200  0.94200  0.19140  Biso   1.000  O
  H13      1.0000 0.32800  0.00800  0.73800  Biso   1.000  H
  H14      1.0000 0.67200  0.99200  0.26200  Biso   1.000  H
  H15      1.0000 0.49900  0.03000  0.83100  Biso   1.000  H
  H16      1.0000 0.50100  0.97000  0.16900  Biso   1.000  H
  C19      1.0000 0.52650  0.42950  0.60900  Biso   1.000  C
  C20      1.0000 0.47350  0.57050  0.39100  Biso   1.000  C
  H17      1.0000 0.62100  0.48800  0.59900  Biso   1.000  H
  H18      1.0000 0.37900  0.51200  0.40100  Biso   1.000  H
  H19      1.0000 0.44300  0.46500  0.66700  Biso   1.000  H
  H20      1.0000 0.55700  0.53500  0.33300  Biso   1.000  H
  O21      1.0000 0.67940  0.33930  0.83850  Biso   1.000  O
  O22      1.0000 0.32060  0.66070  0.16150  Biso   1.000  O
  H21      1.0000 0.77200  0.40800  0.87500  Biso   1.000  H
  H22      1.0000 0.22800  0.59200  0.12500  Biso   1.000  H
  H23      1.0000 0.70800  0.30300  0.77200  Biso   1.000  H
  H24      1.0000 0.29200  0.69700  0.22800  Biso   1.000  H
  C21      1.0000 0.58550  0.25560  0.34920  Biso   1.000  C
  C22      1.0000 0.41450  0.74440  0.65080  Biso   1.000  C
  H25      1.0000 0.50899  0.30952  0.32416  Biso   1.000  H
  H26      1.0000 0.49101  0.69048  0.67584  Biso   1.000  H
  H27      1.0000 0.65977  0.21144  0.29775  Biso   1.000  H
  H28      1.0000 0.34023  0.78856  0.70225  Biso   1.000  H
  O23      1.0000 0.75570  0.02420  0.91480  Biso   1.000  O
  O24      1.0000 0.24430  0.97580  0.08520  Biso   1.000  O
  H29      1.0000 0.74000  0.07400  0.98300  Biso   1.000  H
  H30      1.0000 0.26000  0.92600  0.01700  Biso   1.000  H
  H31      1.0000 0.75800  0.94800  0.92000  Biso   1.000  H
  H32      1.0000 0.24200  0.05200  0.08000  Biso   1.000  H
