data_image0
_cell_length_a       6.9551
_cell_length_b       10.549
_cell_length_c       11.4502
_cell_angle_alpha    109.409
_cell_angle_beta     99.928
_cell_angle_gamma    98.943

_symmetry_space_group_name_H-M    "P 1"
_symmetry_int_tables_number       1

loop_
  _symmetry_equiv_pos_as_xyz
  'x, y, z'

loop_
  _atom_site_label
  _atom_site_occupancy
  _atom_site_fract_x
  _atom_site_fract_y
  _atom_site_fract_z
  _atom_site_thermal_displace_type
  _atom_site_B_iso_or_equiv
  _atom_site_type_symbol
  Dy1      1.0000 0.64039  0.70704  0.09877  Biso   1.000  Dy
  Dy2      1.0000 0.35961  0.29296  0.90123  Biso   1.000  Dy
  Cu1      1.0000 0.00000  0.00000  0.50000  Biso   1.000  Cu
  O1       1.0000 0.73060  0.74520  0.31820  Biso   1.000  O
  O2       1.0000 0.26940  0.25480  0.68180  Biso   1.000  O
  C1       1.0000 0.68820  0.77420  0.42430  Biso   1.000  C
  C2       1.0000 0.31180  0.22580  0.57570  Biso   1.000  C
  O3       1.0000 0.78100  0.87920  0.52000  Biso   1.000  O
  O4       1.0000 0.21900  0.12080  0.48000  Biso   1.000  O
  C3       1.0000 0.52350  0.67790  0.44490  Biso   1.000  C
  C4       1.0000 0.47650  0.32210  0.55510  Biso   1.000  C
  H1       1.0000 0.42976  0.62419  0.36345  Biso   1.000  H
  H2       1.0000 0.57024  0.37581  0.63655  Biso   1.000  H
  H3       1.0000 0.58227  0.61414  0.47599  Biso   1.000  H
  H4       1.0000 0.41773  0.38586  0.52401  Biso   1.000  H
  O5       1.0000 0.23460  0.80800  0.37240  Biso   1.000  O
  O6       1.0000 0.76540  0.19200  0.62760  Biso   1.000  O
  C5       1.0000 0.40990  0.74980  0.53720  Biso   1.000  C
  C6       1.0000 0.59010  0.25020  0.46280  Biso   1.000  C
  O7       1.0000 0.18900  0.90410  0.56640  Biso   1.000  O
  O8       1.0000 0.81100  0.09590  0.43360  Biso   1.000  O
  C7       1.0000 0.26930  0.82620  0.48750  Biso   1.000  C
  C8       1.0000 0.73070  0.17380  0.51250  Biso   1.000  C
  O9       1.0000 0.63930  0.26260  0.05590  Biso   1.000  O
  O10      1.0000 0.36070  0.73740  0.94410  Biso   1.000  O
  C9       1.0000 0.41690  0.73620  0.64710  Biso   1.000  C
  C10      1.0000 0.58310  0.26380  0.35290  Biso   1.000  C
  H5       1.0000 0.49433  0.68029  0.67068  Biso   1.000  H
  H6       1.0000 0.50567  0.31971  0.32932  Biso   1.000  H
  H7       1.0000 0.34442  0.78234  0.70171  Biso   1.000  H
  H8       1.0000 0.65558  0.21766  0.29829  Biso   1.000  H
  O11      1.0000 0.61300  0.47530  0.09400  Biso   1.000  O
  O12      1.0000 0.38700  0.52470  0.90600  Biso   1.000  O
  C11      1.0000 0.70880  0.38820  0.11590  Biso   1.000  C
  C12      1.0000 0.29120  0.61180  0.88410  Biso   1.000  C
  O13      1.0000 0.13740  0.39940  0.03310  Biso   1.000  O
  O14      1.0000 0.86260  0.60060  0.96690  Biso   1.000  O
  C13      1.0000 0.90530  0.44000  0.21590  Biso   1.000  C
  C14      1.0000 0.09470  0.56000  0.78410  Biso   1.000  C
  H9       1.0000 0.97821  0.52428  0.21224  Biso   1.000  H
  H10      1.0000 0.02179  0.47572  0.78776  Biso   1.000  H
  H11      1.0000 0.87755  0.46216  0.29967  Biso   1.000  H
  H12      1.0000 0.12245  0.53784  0.70033  Biso   1.000  H
  O15      1.0000 0.23200  0.22250  0.06250  Biso   1.000  O
  O16      1.0000 0.76800  0.77750  0.93750  Biso   1.000  O
  C15      1.0000 0.03520  0.33620  0.19850  Biso   1.000  C
  C16      1.0000 0.96480  0.66380  0.80150  Biso   1.000  C
  O17      1.0000 0.96880  0.85440  0.19650  Biso   1.000  O
  O18      1.0000 0.03120  0.14560  0.80350  Biso   1.000  O
  C17      1.0000 0.13960  0.31760  0.09200  Biso   1.000  C
  C18      1.0000 0.86040  0.68240  0.90800  Biso   1.000  C
  H13      1.0000 0.04300  0.88700  0.15800  Biso   1.000  H
  H14      1.0000 0.95700  0.11300  0.84200  Biso   1.000  H
  H15      1.0000 0.04900  0.84500  0.25500  Biso   1.000  H
  H16      1.0000 0.95100  0.15500  0.74500  Biso   1.000  H
  O19      1.0000 0.60110  0.93340  0.18440  Biso   1.000  O
  O20      1.0000 0.39890  0.06660  0.81560  Biso   1.000  O
  C19      1.0000 0.06090  0.26700  0.27280  Biso   1.000  C
  C20      1.0000 0.93910  0.73300  0.72720  Biso   1.000  C
  H17      1.0000 0.14446  0.20546  0.26002  Biso   1.000  H
  H18      1.0000 0.85554  0.79454  0.73998  Biso   1.000  H
  H19      1.0000 0.99565  0.27910  0.33880  Biso   1.000  H
  H20      1.0000 0.00435  0.72090  0.66120  Biso   1.000  H
  H21      1.0000 0.49800  0.96300  0.16500  Biso   1.000  H
  H22      1.0000 0.50200  0.03700  0.83500  Biso   1.000  H
  H23      1.0000 0.66700  0.98500  0.25900  Biso   1.000  H
  H24      1.0000 0.33300  0.01500  0.74100  Biso   1.000  H
  O21      1.0000 0.33310  0.66830  0.15630  Biso   1.000  O
  O22      1.0000 0.66690  0.33170  0.84370  Biso   1.000  O
  H25      1.0000 0.24700  0.59400  0.12700  Biso   1.000  H
  H26      1.0000 0.75300  0.40600  0.87300  Biso   1.000  H
  H27      1.0000 0.30800  0.70500  0.22700  Biso   1.000  H
  H28      1.0000 0.69200  0.29500  0.77300  Biso   1.000  H
  O23      1.0000 0.23850  0.97060  0.08320  Biso   1.000  O
  O24      1.0000 0.76150  0.02940  0.91680  Biso   1.000  O
  H29      1.0000 0.23500  0.04200  0.06600  Biso   1.000  H
  H30      1.0000 0.76500  0.95800  0.93400  Biso   1.000  H
  H31      1.0000 0.25000  0.92300  0.00900  Biso   1.000  H
  H32      1.0000 0.75000  0.07700  0.99100  Biso   1.000  H
