data_image0
_cell_length_a       6.963
_cell_length_b       10.5852
_cell_length_c       11.4644
_cell_angle_alpha    109.296
_cell_angle_beta     99.958
_cell_angle_gamma    98.927

_symmetry_space_group_name_H-M    "P 1"
_symmetry_int_tables_number       1

loop_
  _symmetry_equiv_pos_as_xyz
  'x, y, z'

loop_
  _atom_site_label
  _atom_site_occupancy
  _atom_site_fract_x
  _atom_site_fract_y
  _atom_site_fract_z
  _atom_site_thermal_displace_type
  _atom_site_B_iso_or_equiv
  _atom_site_type_symbol
  Tb1      1.0000 0.64102  0.70710  0.09937  Biso   1.000  Tb
  Tb2      1.0000 0.35898  0.29290  0.90063  Biso   1.000  Tb
  Cu1      1.0000 0.00000  0.00000  0.50000  Biso   1.000  Cu
  O1       1.0000 0.73130  0.74550  0.31970  Biso   1.000  O
  O2       1.0000 0.26870  0.25450  0.68030  Biso   1.000  O
  O3       1.0000 0.78080  0.87990  0.52050  Biso   1.000  O
  O4       1.0000 0.21920  0.12010  0.47950  Biso   1.000  O
  O5       1.0000 0.23510  0.80820  0.37300  Biso   1.000  O
  O6       1.0000 0.76490  0.19180  0.62700  Biso   1.000  O
  O7       1.0000 0.18850  0.90430  0.56620  Biso   1.000  O
  O8       1.0000 0.81150  0.09570  0.43380  Biso   1.000  O
  O9       1.0000 0.61380  0.47460  0.09390  Biso   1.000  O
  O10      1.0000 0.38620  0.52540  0.90610  Biso   1.000  O
  O11      1.0000 0.64020  0.26260  0.05540  Biso   1.000  O
  O12      1.0000 0.35980  0.73740  0.94460  Biso   1.000  O
  O13      1.0000 0.13590  0.39890  0.03360  Biso   1.000  O
  O14      1.0000 0.86410  0.60110  0.96640  Biso   1.000  O
  O15      1.0000 0.23120  0.22220  0.06250  Biso   1.000  O
  O16      1.0000 0.76880  0.77780  0.93750  Biso   1.000  O
  O17      1.0000 0.97120  0.85530  0.19760  Biso   1.000  O
  O18      1.0000 0.02880  0.14470  0.80240  Biso   1.000  O
  H1       1.0000 0.04400  0.88800  0.15700  Biso   1.000  H
  H2       1.0000 0.95600  0.11200  0.84300  Biso   1.000  H
  H3       1.0000 0.05400  0.84500  0.25500  Biso   1.000  H
  H4       1.0000 0.94600  0.15500  0.74500  Biso   1.000  H
  O19      1.0000 0.60090  0.93400  0.18510  Biso   1.000  O
  O20      1.0000 0.39910  0.06600  0.81490  Biso   1.000  O
  H5       1.0000 0.49500  0.96000  0.16600  Biso   1.000  H
  H6       1.0000 0.50500  0.04000  0.83400  Biso   1.000  H
  H7       1.0000 0.65700  0.97900  0.26300  Biso   1.000  H
  H8       1.0000 0.34300  0.02100  0.73700  Biso   1.000  H
  O21      1.0000 0.33260  0.66710  0.15710  Biso   1.000  O
  O22      1.0000 0.66740  0.33290  0.84290  Biso   1.000  O
  H9       1.0000 0.30300  0.70800  0.22600  Biso   1.000  H
  H10      1.0000 0.69700  0.29200  0.77400  Biso   1.000  H
  H11      1.0000 0.24600  0.59300  0.12500  Biso   1.000  H
  H12      1.0000 0.75400  0.40700  0.87500  Biso   1.000  H
  C1       1.0000 0.68840  0.77510  0.42510  Biso   1.000  C
  C2       1.0000 0.31160  0.22490  0.57490  Biso   1.000  C
  C3       1.0000 0.52470  0.67960  0.44660  Biso   1.000  C
  C4       1.0000 0.47530  0.32040  0.55340  Biso   1.000  C
  H13      1.0000 0.43114  0.62551  0.36541  Biso   1.000  H
  H14      1.0000 0.56886  0.37449  0.63459  Biso   1.000  H
  H15      1.0000 0.58393  0.61660  0.47827  Biso   1.000  H
  H16      1.0000 0.41607  0.38340  0.52173  Biso   1.000  H
  C5       1.0000 0.40990  0.75140  0.53870  Biso   1.000  C
  C6       1.0000 0.59010  0.24860  0.46130  Biso   1.000  C
  C7       1.0000 0.26870  0.82620  0.48770  Biso   1.000  C
  C8       1.0000 0.73130  0.17380  0.51230  Biso   1.000  C
  C9       1.0000 0.41700  0.73710  0.64800  Biso   1.000  C
  C10      1.0000 0.58300  0.26290  0.35200  Biso   1.000  C
  H17      1.0000 0.49452  0.68132  0.67136  Biso   1.000  H
  H18      1.0000 0.50548  0.31868  0.32864  Biso   1.000  H
  H19      1.0000 0.34454  0.78274  0.70264  Biso   1.000  H
  H20      1.0000 0.65546  0.21726  0.29736  Biso   1.000  H
  C11      1.0000 0.70940  0.38740  0.11560  Biso   1.000  C
  C12      1.0000 0.29060  0.61260  0.88440  Biso   1.000  C
  C13      1.0000 0.90490  0.43840  0.21610  Biso   1.000  C
  C14      1.0000 0.09510  0.56160  0.78390  Biso   1.000  C
  H21      1.0000 0.97798  0.52272  0.21326  Biso   1.000  H
  H22      1.0000 0.02202  0.47728  0.78674  Biso   1.000  H
  H23      1.0000 0.87626  0.45951  0.29942  Biso   1.000  H
  H24      1.0000 0.12374  0.54049  0.70058  Biso   1.000  H
  C15      1.0000 0.03460  0.33550  0.19880  Biso   1.000  C
  C16      1.0000 0.96540  0.66450  0.80120  Biso   1.000  C
  C17      1.0000 0.13880  0.31660  0.09200  Biso   1.000  C
  C18      1.0000 0.86120  0.68340  0.90800  Biso   1.000  C
  C19      1.0000 0.06160  0.26590  0.27290  Biso   1.000  C
  C20      1.0000 0.93840  0.73410  0.72710  Biso   1.000  C
  H25      1.0000 0.14526  0.20466  0.25963  Biso   1.000  H
  H26      1.0000 0.85474  0.79534  0.74037  Biso   1.000  H
  H27      1.0000 0.99717  0.27747  0.33909  Biso   1.000  H
  H28      1.0000 0.00283  0.72253  0.66091  Biso   1.000  H
  O23      1.0000 0.23870  0.97110  0.08330  Biso   1.000  O
  O24      1.0000 0.76130  0.02890  0.91670  Biso   1.000  O
  H29      1.0000 0.25100  0.92600  0.00900  Biso   1.000  H
  H30      1.0000 0.74900  0.07400  0.99100  Biso   1.000  H
  H31      1.0000 0.22800  0.03800  0.06000  Biso   1.000  H
  H32      1.0000 0.77200  0.96200  0.94000  Biso   1.000  H
