data_image0
_cell_length_a       5.538
_cell_length_b       7.663
_cell_length_c       7.711
_cell_angle_alpha    62.21
_cell_angle_beta     73.91
_cell_angle_gamma    86.11

_symmetry_space_group_name_H-M    "P 1"
_symmetry_int_tables_number       1

loop_
  _symmetry_equiv_pos_as_xyz
  'x, y, z'

loop_
  _atom_site_label
  _atom_site_occupancy
  _atom_site_fract_x
  _atom_site_fract_y
  _atom_site_fract_z
  _atom_site_thermal_displace_type
  _atom_site_B_iso_or_equiv
  _atom_site_type_symbol
  Cu1      1.0000 0.00000  0.00000  0.00000  Biso   1.000  Cu
  O1       1.0000 0.74950  0.85590  0.96310  Biso   1.000  O
  O2       1.0000 0.25050  0.14410  0.03690  Biso   1.000  O
  O3       1.0000 0.65800  0.18950  0.99960  Biso   1.000  O
  O4       1.0000 0.34200  0.81050  0.00040  Biso   1.000  O
  C1       1.0000 0.52390  0.90310  0.99080  Biso   1.000  C
  C2       1.0000 0.47610  0.09690  0.00920  Biso   1.000  C
  N1       1.0000 0.13120  0.16070  0.69660  Biso   1.000  N
  N2       1.0000 0.86880  0.83930  0.30340  Biso   1.000  N
  N3       1.0000 0.38060  0.21890  0.59390  Biso   1.000  N
  N4       1.0000 0.61940  0.78110  0.40610  Biso   1.000  N
  C3       1.0000 0.39320  0.31970  0.40020  Biso   1.000  C
  C4       1.0000 0.60680  0.68030  0.59980  Biso   1.000  C
  H1       1.0000 0.54000  0.37800  0.29500  Biso   1.000  H
  H2       1.0000 0.46000  0.62200  0.70500  Biso   1.000  H
  N5       1.0000 0.15670  0.32710  0.37570  Biso   1.000  N
  N6       1.0000 0.84330  0.67290  0.62430  Biso   1.000  N
  C5       1.0000 0.00110  0.22610  0.56340  Biso   1.000  C
  C6       1.0000 0.99890  0.77390  0.43660  Biso   1.000  C
  H3       1.0000 0.82700  0.20600  0.59400  Biso   1.000  H
  H4       1.0000 0.17300  0.79400  0.40600  Biso   1.000  H
  N7       1.0000 0.07830  0.41910  0.19580  Biso   1.000  N
  N8       1.0000 0.92170  0.58090  0.80420  Biso   1.000  N
  H5       1.0000 0.12000  0.54100  0.14400  Biso   1.000  H
  H6       1.0000 0.88000  0.45900  0.85600  Biso   1.000  H
  H7       1.0000 0.16700  0.36600  0.12700  Biso   1.000  H
  H8       1.0000 0.83300  0.63400  0.87300  Biso   1.000  H
