data_image0
_cell_length_a       12.589
_cell_length_b       6.455
_cell_length_c       12.677
_cell_angle_alpha    90
_cell_angle_beta     98.748
_cell_angle_gamma    90

_symmetry_space_group_name_H-M    "P 1"
_symmetry_int_tables_number       1

loop_
  _symmetry_equiv_pos_as_xyz
  'x, y, z'

loop_
  _atom_site_label
  _atom_site_occupancy
  _atom_site_fract_x
  _atom_site_fract_y
  _atom_site_fract_z
  _atom_site_thermal_displace_type
  _atom_site_B_iso_or_equiv
  _atom_site_type_symbol
  Cu1      1.0000 0.50000  0.50000  0.50000  Biso   1.000  Cu
  Cu2      1.0000 0.00000  0.00000  0.00000  Biso   1.000  Cu
  O1       1.0000 0.39627  0.71200  0.52234  Biso   1.000  O
  O2       1.0000 0.10373  0.21200  0.97766  Biso   1.000  O
  O3       1.0000 0.60373  0.28800  0.47766  Biso   1.000  O
  O4       1.0000 0.89627  0.78800  0.02234  Biso   1.000  O
  O5       1.0000 0.29633  0.60050  0.37480  Biso   1.000  O
  O6       1.0000 0.20367  0.10050  0.12520  Biso   1.000  O
  O7       1.0000 0.70367  0.39950  0.62520  Biso   1.000  O
  O8       1.0000 0.79633  0.89950  0.87480  Biso   1.000  O
  O9       1.0000 0.34480  0.19740  0.31400  Biso   1.000  O
  O10      1.0000 0.15520  0.69740  0.18600  Biso   1.000  O
  O11      1.0000 0.65520  0.80260  0.68600  Biso   1.000  O
  O12      1.0000 0.84480  0.30260  0.81400  Biso   1.000  O
  H1       1.0000 0.33300  0.31300  0.33100  Biso   1.000  H
  H2       1.0000 0.16700  0.81300  0.16900  Biso   1.000  H
  H3       1.0000 0.66700  0.68700  0.66900  Biso   1.000  H
  H4       1.0000 0.83300  0.18700  0.83100  Biso   1.000  H
  H5       1.0000 0.30400  0.17300  0.26000  Biso   1.000  H
  H6       1.0000 0.19600  0.67300  0.24000  Biso   1.000  H
  H7       1.0000 0.69600  0.82700  0.74000  Biso   1.000  H
  H8       1.0000 0.80400  0.32700  0.76000  Biso   1.000  H
  N1       1.0000 0.58629  0.92860  0.29007  Biso   1.000  N
  N2       1.0000 0.91371  0.42860  0.20993  Biso   1.000  N
  N3       1.0000 0.41371  0.07140  0.70993  Biso   1.000  N
  N4       1.0000 0.08629  0.57140  0.79007  Biso   1.000  N
  N5       1.0000 0.66427  0.78690  0.27856  Biso   1.000  N
  N6       1.0000 0.83573  0.28690  0.22144  Biso   1.000  N
  N7       1.0000 0.33573  0.21310  0.72144  Biso   1.000  N
  N8       1.0000 0.16427  0.71310  0.77856  Biso   1.000  N
  N9       1.0000 0.56288  0.68100  0.39946  Biso   1.000  N
  N10      1.0000 0.93712  0.18100  0.10054  Biso   1.000  N
  N11      1.0000 0.43712  0.31900  0.60054  Biso   1.000  N
  N12      1.0000 0.06288  0.81900  0.89946  Biso   1.000  N
  C1       1.0000 0.64670  0.64160  0.34590  Biso   1.000  C
  C2       1.0000 0.85330  0.14160  0.15410  Biso   1.000  C
  C3       1.0000 0.35330  0.35840  0.65410  Biso   1.000  C
  C4       1.0000 0.14670  0.85840  0.84590  Biso   1.000  C
  H9       1.0000 0.68890  0.51910  0.35650  Biso   1.000  H
  H10      1.0000 0.81110  0.01910  0.14350  Biso   1.000  H
  H11      1.0000 0.31110  0.48090  0.64350  Biso   1.000  H
  H12      1.0000 0.18890  0.98090  0.85650  Biso   1.000  H
  C5       1.0000 0.52720  0.86360  0.36130  Biso   1.000  C
  C6       1.0000 0.97280  0.36360  0.13870  Biso   1.000  C
  C7       1.0000 0.47280  0.13640  0.63870  Biso   1.000  C
  C8       1.0000 0.02720  0.63640  0.86130  Biso   1.000  C
  H13      1.0000 0.46810  0.93660  0.38200  Biso   1.000  H
  H14      1.0000 0.03190  0.43660  0.11800  Biso   1.000  H
  H15      1.0000 0.53190  0.06340  0.61800  Biso   1.000  H
  H16      1.0000 0.96810  0.56340  0.88200  Biso   1.000  H
  C9       1.0000 0.57080  0.11150  0.22200  Biso   1.000  C
  C10      1.0000 0.92920  0.61150  0.27800  Biso   1.000  C
  C11      1.0000 0.42920  0.88850  0.77800  Biso   1.000  C
  C12      1.0000 0.07080  0.38850  0.72200  Biso   1.000  C
  H17      1.0000 0.63910  0.18960  0.22760  Biso   1.000  H
  H18      1.0000 0.86090  0.68960  0.27240  Biso   1.000  H
  H19      1.0000 0.36090  0.81040  0.77240  Biso   1.000  H
  H20      1.0000 0.13910  0.31040  0.72760  Biso   1.000  H
  H21      1.0000 0.51630  0.20280  0.24630  Biso   1.000  H
  H22      1.0000 0.98370  0.70280  0.25370  Biso   1.000  H
  H23      1.0000 0.48370  0.79720  0.75370  Biso   1.000  H
  H24      1.0000 0.01630  0.29720  0.74630  Biso   1.000  H
  C13      1.0000 0.53450  0.05030  0.10670  Biso   1.000  C
  C14      1.0000 0.96550  0.55030  0.39330  Biso   1.000  C
  C15      1.0000 0.46550  0.94970  0.89330  Biso   1.000  C
  C16      1.0000 0.03450  0.44970  0.60670  Biso   1.000  C
  C17      1.0000 0.46070  0.89310  0.07950  Biso   1.000  C
  C18      1.0000 0.03930  0.39310  0.42050  Biso   1.000  C
  C19      1.0000 0.53930  0.10690  0.92050  Biso   1.000  C
  C20      1.0000 0.96070  0.60690  0.57950  Biso   1.000  C
  H25      1.0000 0.43300  0.81880  0.13400  Biso   1.000  H
  H26      1.0000 0.06700  0.31880  0.36600  Biso   1.000  H
  H27      1.0000 0.56700  0.18120  0.86600  Biso   1.000  H
  H28      1.0000 0.93300  0.68120  0.63400  Biso   1.000  H
  C21      1.0000 0.57310  0.15650  0.02590  Biso   1.000  C
  C22      1.0000 0.92690  0.65650  0.47410  Biso   1.000  C
  C23      1.0000 0.42690  0.84350  0.97410  Biso   1.000  C
  C24      1.0000 0.07310  0.34350  0.52590  Biso   1.000  C
  H29      1.0000 0.62370  0.26510  0.04330  Biso   1.000  H
  H30      1.0000 0.87630  0.76510  0.45670  Biso   1.000  H
  H31      1.0000 0.37630  0.73490  0.95670  Biso   1.000  H
  H32      1.0000 0.12370  0.23490  0.54330  Biso   1.000  H
  C25      1.0000 0.22540  0.86810  0.47480  Biso   1.000  C
  C26      1.0000 0.27460  0.36810  0.02520  Biso   1.000  C
  C27      1.0000 0.77460  0.13190  0.52520  Biso   1.000  C
  C28      1.0000 0.72540  0.63190  0.97480  Biso   1.000  C
  H33      1.0000 0.15930  0.84250  0.42490  Biso   1.000  H
  H34      1.0000 0.34070  0.34250  0.07510  Biso   1.000  H
  H35      1.0000 0.84070  0.15750  0.57510  Biso   1.000  H
  H36      1.0000 0.65930  0.65750  0.92490  Biso   1.000  H
  H37      1.0000 0.25070  0.00920  0.46470  Biso   1.000  H
  H38      1.0000 0.24930  0.50920  0.03530  Biso   1.000  H
  H39      1.0000 0.74930  0.99080  0.53530  Biso   1.000  H
  H40      1.0000 0.75070  0.49080  0.96470  Biso   1.000  H
  H41      1.0000 0.21090  0.85210  0.54820  Biso   1.000  H
  H42      1.0000 0.28910  0.35210  0.95180  Biso   1.000  H
  H43      1.0000 0.78910  0.14790  0.45180  Biso   1.000  H
  H44      1.0000 0.71090  0.64790  0.04820  Biso   1.000  H
  C29      1.0000 0.31020  0.71510  0.45430  Biso   1.000  C
  C30      1.0000 0.18980  0.21510  0.04570  Biso   1.000  C
  C31      1.0000 0.68980  0.28490  0.54570  Biso   1.000  C
  C32      1.0000 0.81020  0.78490  0.95430  Biso   1.000  C
