data_image0
_cell_length_a       6.352
_cell_length_b       14.863
_cell_length_c       13.441
_cell_angle_alpha    90
_cell_angle_beta     98.928
_cell_angle_gamma    90

_symmetry_space_group_name_H-M    "P 1"
_symmetry_int_tables_number       1

loop_
  _symmetry_equiv_pos_as_xyz
  'x, y, z'

loop_
  _atom_site_label
  _atom_site_occupancy
  _atom_site_fract_x
  _atom_site_fract_y
  _atom_site_fract_z
  _atom_site_thermal_displace_type
  _atom_site_B_iso_or_equiv
  _atom_site_type_symbol
  Cu1      1.0000 0.00000  0.00000  0.50000  Biso   1.000  Cu
  Cu2      1.0000 0.50000  0.50000  0.00000  Biso   1.000  Cu
  C1       1.0000 0.65580  0.14740  0.55280  Biso   1.000  C
  C2       1.0000 0.84420  0.64740  0.94720  Biso   1.000  C
  C3       1.0000 0.34420  0.85260  0.44720  Biso   1.000  C
  C4       1.0000 0.15580  0.35260  0.05280  Biso   1.000  C
  O1       1.0000 0.77320  0.14260  0.48840  Biso   1.000  O
  O2       1.0000 0.72680  0.64260  0.01160  Biso   1.000  O
  O3       1.0000 0.22680  0.85740  0.51160  Biso   1.000  O
  O4       1.0000 0.27320  0.35740  0.98840  Biso   1.000  O
  C5       1.0000 0.74550  0.19210  0.65420  Biso   1.000  C
  C6       1.0000 0.75450  0.69210  0.84580  Biso   1.000  C
  C7       1.0000 0.25450  0.80790  0.34580  Biso   1.000  C
  C8       1.0000 0.24550  0.30790  0.15420  Biso   1.000  C
  O5       1.0000 0.90970  0.23510  0.66040  Biso   1.000  O
  O6       1.0000 0.59030  0.73510  0.83960  Biso   1.000  O
  O7       1.0000 0.09030  0.76490  0.33960  Biso   1.000  O
  O8       1.0000 0.40970  0.26490  0.16040  Biso   1.000  O
  C9       1.0000 0.62410  0.17960  0.73760  Biso   1.000  C
  C10      1.0000 0.87590  0.67960  0.76240  Biso   1.000  C
  C11      1.0000 0.37590  0.82040  0.26240  Biso   1.000  C
  C12      1.0000 0.12410  0.32040  0.23760  Biso   1.000  C
  C13      1.0000 0.70780  0.21210  0.83360  Biso   1.000  C
  C14      1.0000 0.79220  0.71210  0.66640  Biso   1.000  C
  C15      1.0000 0.29220  0.78790  0.16640  Biso   1.000  C
  C16      1.0000 0.20780  0.28790  0.33360  Biso   1.000  C
  H1       1.0000 0.84470  0.23940  0.84470  Biso   1.000  H
  H2       1.0000 0.65530  0.73940  0.65530  Biso   1.000  H
  H3       1.0000 0.15530  0.76060  0.15530  Biso   1.000  H
  H4       1.0000 0.34470  0.26060  0.34470  Biso   1.000  H
  C17      1.0000 0.59160  0.20430  0.91180  Biso   1.000  C
  C18      1.0000 0.90840  0.70430  0.58820  Biso   1.000  C
  C19      1.0000 0.40840  0.79570  0.08820  Biso   1.000  C
  C20      1.0000 0.09160  0.29570  0.41180  Biso   1.000  C
  H5       1.0000 0.64840  0.22650  0.97670  Biso   1.000  H
  H6       1.0000 0.85160  0.72650  0.52330  Biso   1.000  H
  H7       1.0000 0.35160  0.77350  0.02330  Biso   1.000  H
  H8       1.0000 0.14840  0.27350  0.47670  Biso   1.000  H
  C21      1.0000 0.39180  0.16420  0.89590  Biso   1.000  C
  C22      1.0000 0.10820  0.66420  0.60410  Biso   1.000  C
  C23      1.0000 0.60820  0.83580  0.10410  Biso   1.000  C
  C24      1.0000 0.89180  0.33580  0.39590  Biso   1.000  C
  H9       1.0000 0.31210  0.15980  0.94990  Biso   1.000  H
  H10      1.0000 0.18790  0.65980  0.55010  Biso   1.000  H
  H11      1.0000 0.68790  0.84020  0.05010  Biso   1.000  H
  H12      1.0000 0.81210  0.34020  0.44990  Biso   1.000  H
  C25      1.0000 0.30680  0.13020  0.80130  Biso   1.000  C
  C26      1.0000 0.19320  0.63020  0.69870  Biso   1.000  C
  C27      1.0000 0.69320  0.86980  0.19870  Biso   1.000  C
  C28      1.0000 0.80680  0.36980  0.30130  Biso   1.000  C
  H13      1.0000 0.17110  0.10190  0.79100  Biso   1.000  H
  H14      1.0000 0.32890  0.60190  0.70900  Biso   1.000  H
  H15      1.0000 0.82890  0.89810  0.20900  Biso   1.000  H
  H16      1.0000 0.67110  0.39810  0.29100  Biso   1.000  H
  C29      1.0000 0.42340  0.13840  0.72200  Biso   1.000  C
  C30      1.0000 0.07660  0.63840  0.77800  Biso   1.000  C
  C31      1.0000 0.57660  0.86160  0.27800  Biso   1.000  C
  C32      1.0000 0.92340  0.36160  0.22200  Biso   1.000  C
  C33      1.0000 0.33090  0.10170  0.62120  Biso   1.000  C
  C34      1.0000 0.16910  0.60170  0.87880  Biso   1.000  C
  C35      1.0000 0.66910  0.89830  0.37880  Biso   1.000  C
  C36      1.0000 0.83090  0.39830  0.12120  Biso   1.000  C
  O9       1.0000 0.15240  0.06300  0.61510  Biso   1.000  O
  O10      1.0000 0.34760  0.56300  0.88490  Biso   1.000  O
  O11      1.0000 0.84760  0.93700  0.38490  Biso   1.000  O
  O12      1.0000 0.65240  0.43700  0.11510  Biso   1.000  O
  C37      1.0000 0.44090  0.11270  0.53860  Biso   1.000  C
  C38      1.0000 0.05910  0.61270  0.96140  Biso   1.000  C
  C39      1.0000 0.55910  0.88730  0.46140  Biso   1.000  C
  C40      1.0000 0.94090  0.38730  0.03860  Biso   1.000  C
  N1       1.0000 0.35870  0.09840  0.43920  Biso   1.000  N
  N2       1.0000 0.14130  0.59840  0.06080  Biso   1.000  N
  N3       1.0000 0.64130  0.90160  0.56080  Biso   1.000  N
  N4       1.0000 0.85870  0.40160  0.93920  Biso   1.000  N
  N5       1.0000 0.17270  0.06550  0.41290  Biso   1.000  N
  N6       1.0000 0.32730  0.56550  0.08710  Biso   1.000  N
  N7       1.0000 0.82730  0.93450  0.58710  Biso   1.000  N
  N8       1.0000 0.67270  0.43450  0.91290  Biso   1.000  N
  C41      1.0000 0.10680  0.07160  0.30430  Biso   1.000  C
  C42      1.0000 0.39320  0.57160  0.19570  Biso   1.000  C
  C43      1.0000 0.89320  0.92840  0.69570  Biso   1.000  C
  C44      1.0000 0.60680  0.42840  0.80430  Biso   1.000  C
  C45      1.0000 0.25080  0.05250  0.23890  Biso   1.000  C
  C46      1.0000 0.24920  0.55250  0.26110  Biso   1.000  C
  C47      1.0000 0.74920  0.94750  0.76110  Biso   1.000  C
  C48      1.0000 0.75080  0.44750  0.73890  Biso   1.000  C
  H17      1.0000 0.39340  0.03590  0.26440  Biso   1.000  H
  H18      1.0000 0.10660  0.53590  0.23560  Biso   1.000  H
  H19      1.0000 0.60660  0.96410  0.73560  Biso   1.000  H
  H20      1.0000 0.89340  0.46410  0.76440  Biso   1.000  H
  C49      1.0000 0.18260  0.05800  0.13600  Biso   1.000  C
  C50      1.0000 0.31740  0.55800  0.36400  Biso   1.000  C
  C51      1.0000 0.81740  0.94200  0.86400  Biso   1.000  C
  C52      1.0000 0.68260  0.44200  0.63600  Biso   1.000  C
  H21      1.0000 0.27770  0.04280  0.09060  Biso   1.000  H
  H22      1.0000 0.22230  0.54280  0.40940  Biso   1.000  H
  H23      1.0000 0.72230  0.95720  0.90940  Biso   1.000  H
  H24      1.0000 0.77770  0.45720  0.59060  Biso   1.000  H
  C53      1.0000 0.97850  0.08530  0.09900  Biso   1.000  C
  C54      1.0000 0.52150  0.58530  0.40100  Biso   1.000  C
  C55      1.0000 0.02150  0.91470  0.90100  Biso   1.000  C
  C56      1.0000 0.47850  0.41470  0.59900  Biso   1.000  C
  H25      1.0000 0.93360  0.08950  0.02840  Biso   1.000  H
  H26      1.0000 0.56640  0.58950  0.47160  Biso   1.000  H
  H27      1.0000 0.06640  0.91050  0.97160  Biso   1.000  H
  H28      1.0000 0.43360  0.41050  0.52840  Biso   1.000  H
  C57      1.0000 0.83890  0.10660  0.16480  Biso   1.000  C
  C58      1.0000 0.66110  0.60660  0.33520  Biso   1.000  C
  C59      1.0000 0.16110  0.89340  0.83520  Biso   1.000  C
  C60      1.0000 0.33890  0.39340  0.66480  Biso   1.000  C
  H29      1.0000 0.69950  0.12720  0.13910  Biso   1.000  H
  H30      1.0000 0.80050  0.62720  0.36090  Biso   1.000  H
  H31      1.0000 0.30050  0.87280  0.86090  Biso   1.000  H
  H32      1.0000 0.19950  0.37280  0.63910  Biso   1.000  H
  C61      1.0000 0.90080  0.09820  0.26790  Biso   1.000  C
  C62      1.0000 0.59920  0.59820  0.23210  Biso   1.000  C
  C63      1.0000 0.09920  0.90180  0.73210  Biso   1.000  C
  C64      1.0000 0.40080  0.40180  0.76790  Biso   1.000  C
  H33      1.0000 0.80290  0.11050  0.31290  Biso   1.000  H
  H34      1.0000 0.69710  0.61050  0.18710  Biso   1.000  H
  H35      1.0000 0.19710  0.88950  0.68710  Biso   1.000  H
  H36      1.0000 0.30290  0.38950  0.81290  Biso   1.000  H
