data_image0
_cell_length_a       18.9186
_cell_length_b       8.1263
_cell_length_c       24.8022
_cell_angle_alpha    90
_cell_angle_beta     90
_cell_angle_gamma    90

_symmetry_space_group_name_H-M    "P 1"
_symmetry_int_tables_number       1

loop_
  _symmetry_equiv_pos_as_xyz
  'x, y, z'

loop_
  _atom_site_label
  _atom_site_occupancy
  _atom_site_fract_x
  _atom_site_fract_y
  _atom_site_fract_z
  _atom_site_thermal_displace_type
  _atom_site_B_iso_or_equiv
  _atom_site_type_symbol
  Cu1      1.0000 0.43389  0.44595  0.14474  Biso   1.000  Cu
  Cu2      1.0000 0.06611  0.55405  0.64474  Biso   1.000  Cu
  Cu3      1.0000 0.56611  0.94595  0.35526  Biso   1.000  Cu
  Cu4      1.0000 0.93389  0.05405  0.85526  Biso   1.000  Cu
  Cu5      1.0000 0.56611  0.55405  0.85526  Biso   1.000  Cu
  Cu6      1.0000 0.93389  0.44595  0.35526  Biso   1.000  Cu
  Cu7      1.0000 0.43389  0.05405  0.64474  Biso   1.000  Cu
  Cu8      1.0000 0.06611  0.94595  0.14474  Biso   1.000  Cu
  O1       1.0000 0.50582  0.34150  0.19347  Biso   1.000  O
  O2       1.0000 0.99418  0.65850  0.69347  Biso   1.000  O
  O3       1.0000 0.49418  0.84150  0.30653  Biso   1.000  O
  O4       1.0000 0.00582  0.15850  0.80653  Biso   1.000  O
  O5       1.0000 0.49418  0.65850  0.80653  Biso   1.000  O
  O6       1.0000 0.00582  0.34150  0.30653  Biso   1.000  O
  O7       1.0000 0.50582  0.15850  0.69347  Biso   1.000  O
  O8       1.0000 0.99418  0.84150  0.19347  Biso   1.000  O
  N1       1.0000 0.49215  0.32720  0.09004  Biso   1.000  N
  N2       1.0000 0.00785  0.67280  0.59004  Biso   1.000  N
  N3       1.0000 0.50785  0.82720  0.40996  Biso   1.000  N
  N4       1.0000 0.99215  0.17280  0.90996  Biso   1.000  N
  N5       1.0000 0.50785  0.67280  0.90996  Biso   1.000  N
  N6       1.0000 0.99215  0.32720  0.40996  Biso   1.000  N
  N7       1.0000 0.49215  0.17280  0.59004  Biso   1.000  N
  N8       1.0000 0.00785  0.82720  0.09004  Biso   1.000  N
  N9       1.0000 0.61491  0.02970  0.28937  Biso   1.000  N
  N10      1.0000 0.88509  0.97030  0.78937  Biso   1.000  N
  N11      1.0000 0.38509  0.52970  0.21063  Biso   1.000  N
  N12      1.0000 0.11491  0.47030  0.71063  Biso   1.000  N
  N13      1.0000 0.38509  0.97030  0.71063  Biso   1.000  N
  N14      1.0000 0.11491  0.02970  0.21063  Biso   1.000  N
  N15      1.0000 0.61491  0.47030  0.78937  Biso   1.000  N
  N16      1.0000 0.88509  0.52970  0.28937  Biso   1.000  N
  N17      1.0000 0.35930  0.52800  0.09539  Biso   1.000  N
  N18      1.0000 0.14070  0.47200  0.59539  Biso   1.000  N
  N19      1.0000 0.64070  0.02800  0.40461  Biso   1.000  N
  N20      1.0000 0.85930  0.97200  0.90461  Biso   1.000  N
  N21      1.0000 0.64070  0.47200  0.90461  Biso   1.000  N
  N22      1.0000 0.85930  0.52800  0.40461  Biso   1.000  N
  N23      1.0000 0.35930  0.97200  0.59539  Biso   1.000  N
  N24      1.0000 0.14070  0.02800  0.09539  Biso   1.000  N
  C1       1.0000 0.48100  0.31880  0.03727  Biso   1.000  C
  C2       1.0000 0.01900  0.68120  0.53727  Biso   1.000  C
  C3       1.0000 0.51900  0.81880  0.46273  Biso   1.000  C
  C4       1.0000 0.98100  0.18120  0.96273  Biso   1.000  C
  C5       1.0000 0.51900  0.68120  0.96273  Biso   1.000  C
  C6       1.0000 0.98100  0.31880  0.46273  Biso   1.000  C
  C7       1.0000 0.48100  0.18120  0.53727  Biso   1.000  C
  C8       1.0000 0.01900  0.81880  0.03727  Biso   1.000  C
  H1       1.0000 0.44430  0.37940  0.02220  Biso   1.000  H
  H2       1.0000 0.05570  0.62060  0.52220  Biso   1.000  H
  H3       1.0000 0.55570  0.87940  0.47780  Biso   1.000  H
  H4       1.0000 0.94430  0.12060  0.97780  Biso   1.000  H
  H5       1.0000 0.55570  0.62060  0.97780  Biso   1.000  H
  H6       1.0000 0.94430  0.37940  0.47780  Biso   1.000  H
  H7       1.0000 0.44430  0.12060  0.52220  Biso   1.000  H
  H8       1.0000 0.05570  0.87940  0.02220  Biso   1.000  H
  C9       1.0000 0.52300  0.22170  0.00374  Biso   1.000  C
  C10      1.0000 0.97700  0.77830  0.50374  Biso   1.000  C
  C11      1.0000 0.47700  0.72170  0.49626  Biso   1.000  C
  C12      1.0000 0.02300  0.27830  0.99626  Biso   1.000  C
  C13      1.0000 0.47700  0.77830  0.99626  Biso   1.000  C
  C14      1.0000 0.02300  0.22170  0.49626  Biso   1.000  C
  C15      1.0000 0.52300  0.27830  0.50374  Biso   1.000  C
  C16      1.0000 0.97700  0.72170  0.00374  Biso   1.000  C
  H9       1.0000 0.51540  0.22040  0.96670  Biso   1.000  H
  H10      1.0000 0.98460  0.77960  0.46670  Biso   1.000  H
  H11      1.0000 0.48460  0.72040  0.53330  Biso   1.000  H
  H12      1.0000 0.01540  0.27960  0.03330  Biso   1.000  H
  H13      1.0000 0.48460  0.77960  0.03330  Biso   1.000  H
  H14      1.0000 0.01540  0.22040  0.53330  Biso   1.000  H
  H15      1.0000 0.51540  0.27960  0.46670  Biso   1.000  H
  H16      1.0000 0.98460  0.72040  0.96670  Biso   1.000  H
  C17      1.0000 0.57570  0.12790  0.02621  Biso   1.000  C
  C18      1.0000 0.92430  0.87210  0.52621  Biso   1.000  C
  C19      1.0000 0.42430  0.62790  0.47379  Biso   1.000  C
  C20      1.0000 0.07570  0.37210  0.97379  Biso   1.000  C
  C21      1.0000 0.42430  0.87210  0.97379  Biso   1.000  C
  C22      1.0000 0.07570  0.12790  0.47379  Biso   1.000  C
  C23      1.0000 0.57570  0.37210  0.52621  Biso   1.000  C
  C24      1.0000 0.92430  0.62790  0.02621  Biso   1.000  C
  H17      1.0000 0.60330  0.06030  0.00450  Biso   1.000  H
  H18      1.0000 0.89670  0.93970  0.50450  Biso   1.000  H
  H19      1.0000 0.39670  0.56030  0.49550  Biso   1.000  H
  H20      1.0000 0.10330  0.43970  0.99550  Biso   1.000  H
  H21      1.0000 0.39670  0.93970  0.99550  Biso   1.000  H
  H22      1.0000 0.10330  0.06030  0.49550  Biso   1.000  H
  H23      1.0000 0.60330  0.43970  0.50450  Biso   1.000  H
  H24      1.0000 0.89670  0.56030  0.00450  Biso   1.000  H
  C25      1.0000 0.58750  0.13440  0.08107  Biso   1.000  C
  C26      1.0000 0.91250  0.86560  0.58107  Biso   1.000  C
  C27      1.0000 0.41250  0.63440  0.41893  Biso   1.000  C
  C28      1.0000 0.08750  0.36560  0.91893  Biso   1.000  C
  C29      1.0000 0.41250  0.86560  0.91893  Biso   1.000  C
  C30      1.0000 0.08750  0.13440  0.41893  Biso   1.000  C
  C31      1.0000 0.58750  0.36560  0.58107  Biso   1.000  C
  C32      1.0000 0.91250  0.63440  0.08107  Biso   1.000  C
  H25      1.0000 0.62260  0.07080  0.09690  Biso   1.000  H
  H26      1.0000 0.87740  0.92920  0.59690  Biso   1.000  H
  H27      1.0000 0.37740  0.57080  0.40310  Biso   1.000  H
  H28      1.0000 0.12260  0.42920  0.90310  Biso   1.000  H
  H29      1.0000 0.37740  0.92920  0.90310  Biso   1.000  H
  H30      1.0000 0.12260  0.07080  0.40310  Biso   1.000  H
  H31      1.0000 0.62260  0.42920  0.59690  Biso   1.000  H
  H32      1.0000 0.87740  0.57080  0.09690  Biso   1.000  H
  C33      1.0000 0.54600  0.23710  0.11169  Biso   1.000  C
  C34      1.0000 0.95400  0.76290  0.61169  Biso   1.000  C
  C35      1.0000 0.45400  0.73710  0.38831  Biso   1.000  C
  C36      1.0000 0.04600  0.26290  0.88831  Biso   1.000  C
  C37      1.0000 0.45400  0.76290  0.88831  Biso   1.000  C
  C38      1.0000 0.04600  0.23710  0.38831  Biso   1.000  C
  C39      1.0000 0.54600  0.26290  0.61169  Biso   1.000  C
  C40      1.0000 0.95400  0.73710  0.11169  Biso   1.000  C
  C41      1.0000 0.55030  0.25550  0.17083  Biso   1.000  C
  C42      1.0000 0.94970  0.74450  0.67083  Biso   1.000  C
  C43      1.0000 0.44970  0.75550  0.32917  Biso   1.000  C
  C44      1.0000 0.05030  0.24450  0.82917  Biso   1.000  C
  C45      1.0000 0.44970  0.74450  0.82917  Biso   1.000  C
  C46      1.0000 0.05030  0.25550  0.32917  Biso   1.000  C
  C47      1.0000 0.55030  0.24450  0.67083  Biso   1.000  C
  C48      1.0000 0.94970  0.75550  0.17083  Biso   1.000  C
  C49      1.0000 0.57490  0.10690  0.25284  Biso   1.000  C
  C50      1.0000 0.92510  0.89310  0.75284  Biso   1.000  C
  C51      1.0000 0.42510  0.60690  0.24716  Biso   1.000  C
  C52      1.0000 0.07490  0.39310  0.74716  Biso   1.000  C
  C53      1.0000 0.42510  0.89310  0.74716  Biso   1.000  C
  C54      1.0000 0.07490  0.10690  0.24716  Biso   1.000  C
  C55      1.0000 0.57490  0.39310  0.75284  Biso   1.000  C
  C56      1.0000 0.92510  0.60690  0.25284  Biso   1.000  C
  H33      1.0000 0.52680  0.11910  0.25970  Biso   1.000  H
  H34      1.0000 0.97320  0.88090  0.75970  Biso   1.000  H
  H35      1.0000 0.47320  0.61910  0.24030  Biso   1.000  H
  H36      1.0000 0.02680  0.38090  0.74030  Biso   1.000  H
  H37      1.0000 0.47320  0.88090  0.74030  Biso   1.000  H
  H38      1.0000 0.02680  0.11910  0.24030  Biso   1.000  H
  H39      1.0000 0.52680  0.38090  0.75970  Biso   1.000  H
  H40      1.0000 0.97320  0.61910  0.25970  Biso   1.000  H
  C57      1.0000 0.60180  0.16930  0.20534  Biso   1.000  C
  C58      1.0000 0.89820  0.83070  0.70534  Biso   1.000  C
  C59      1.0000 0.39820  0.66930  0.29466  Biso   1.000  C
  C60      1.0000 0.10180  0.33070  0.79466  Biso   1.000  C
  C61      1.0000 0.39820  0.83070  0.79466  Biso   1.000  C
  C62      1.0000 0.10180  0.16930  0.29466  Biso   1.000  C
  C63      1.0000 0.60180  0.33070  0.70534  Biso   1.000  C
  C64      1.0000 0.89820  0.66930  0.20534  Biso   1.000  C
  C65      1.0000 0.67360  0.15260  0.19524  Biso   1.000  C
  C66      1.0000 0.82640  0.84740  0.69524  Biso   1.000  C
  C67      1.0000 0.32640  0.65260  0.30476  Biso   1.000  C
  C68      1.0000 0.17360  0.34740  0.80476  Biso   1.000  C
  C69      1.0000 0.32640  0.84740  0.80476  Biso   1.000  C
  C70      1.0000 0.17360  0.15260  0.30476  Biso   1.000  C
  C71      1.0000 0.67360  0.34740  0.69524  Biso   1.000  C
  C72      1.0000 0.82640  0.65260  0.19524  Biso   1.000  C
  H41      1.0000 0.69330  0.19340  0.16360  Biso   1.000  H
  H42      1.0000 0.80670  0.80660  0.66360  Biso   1.000  H
  H43      1.0000 0.30670  0.69340  0.33640  Biso   1.000  H
  H44      1.0000 0.19330  0.30660  0.83640  Biso   1.000  H
  H45      1.0000 0.30670  0.80660  0.83640  Biso   1.000  H
  H46      1.0000 0.19330  0.19340  0.33640  Biso   1.000  H
  H47      1.0000 0.69330  0.30660  0.66360  Biso   1.000  H
  H48      1.0000 0.80670  0.69340  0.16360  Biso   1.000  H
  C73      1.0000 0.71520  0.07440  0.23310  Biso   1.000  C
  C74      1.0000 0.78480  0.92560  0.73310  Biso   1.000  C
  C75      1.0000 0.28480  0.57440  0.26690  Biso   1.000  C
  C76      1.0000 0.21520  0.42560  0.76690  Biso   1.000  C
  C77      1.0000 0.28480  0.92560  0.76690  Biso   1.000  C
  C78      1.0000 0.21520  0.07440  0.26690  Biso   1.000  C
  C79      1.0000 0.71520  0.42560  0.73310  Biso   1.000  C
  C80      1.0000 0.78480  0.57440  0.23310  Biso   1.000  C
  H49      1.0000 0.76340  0.06190  0.22730  Biso   1.000  H
  H50      1.0000 0.73660  0.93810  0.72730  Biso   1.000  H
  H51      1.0000 0.23660  0.56190  0.27270  Biso   1.000  H
  H52      1.0000 0.26340  0.43810  0.77270  Biso   1.000  H
  H53      1.0000 0.23660  0.93810  0.77270  Biso   1.000  H
  H54      1.0000 0.26340  0.06190  0.27270  Biso   1.000  H
  H55      1.0000 0.76340  0.43810  0.72730  Biso   1.000  H
  H56      1.0000 0.73660  0.56190  0.22730  Biso   1.000  H
  C81      1.0000 0.68430  0.01470  0.27970  Biso   1.000  C
  C82      1.0000 0.81570  0.98530  0.77970  Biso   1.000  C
  C83      1.0000 0.31570  0.51470  0.22030  Biso   1.000  C
  C84      1.0000 0.18430  0.48530  0.72030  Biso   1.000  C
  C85      1.0000 0.31570  0.98530  0.72030  Biso   1.000  C
  C86      1.0000 0.18430  0.01470  0.22030  Biso   1.000  C
  C87      1.0000 0.68430  0.48530  0.77970  Biso   1.000  C
  C88      1.0000 0.81570  0.51470  0.27970  Biso   1.000  C
  H57      1.0000 0.71260  0.96250  0.30510  Biso   1.000  H
  H58      1.0000 0.78740  0.03750  0.80510  Biso   1.000  H
  H59      1.0000 0.28740  0.46250  0.19490  Biso   1.000  H
  H60      1.0000 0.21260  0.53750  0.69490  Biso   1.000  H
  H61      1.0000 0.28740  0.03750  0.69490  Biso   1.000  H
  H62      1.0000 0.21260  0.96250  0.19490  Biso   1.000  H
  H63      1.0000 0.71260  0.53750  0.80510  Biso   1.000  H
  H64      1.0000 0.78740  0.46250  0.30510  Biso   1.000  H
  C89      1.0000 0.26270  0.67930  0.04130  Biso   1.000  C
  C90      1.0000 0.23730  0.32070  0.54130  Biso   1.000  C
  C91      1.0000 0.73730  0.17930  0.45870  Biso   1.000  C
  C92      1.0000 0.76270  0.82070  0.95870  Biso   1.000  C
  C93      1.0000 0.73730  0.32070  0.95870  Biso   1.000  C
  C94      1.0000 0.76270  0.67930  0.45870  Biso   1.000  C
  C95      1.0000 0.26270  0.82070  0.54130  Biso   1.000  C
  C96      1.0000 0.23730  0.17930  0.04130  Biso   1.000  C
  H65      1.0000 0.27830  0.78870  0.03280  Biso   1.000  H
  H66      1.0000 0.22170  0.21130  0.53280  Biso   1.000  H
  H67      1.0000 0.72170  0.28870  0.46720  Biso   1.000  H
  H68      1.0000 0.77830  0.71130  0.96720  Biso   1.000  H
  H69      1.0000 0.72170  0.21130  0.96720  Biso   1.000  H
  H70      1.0000 0.77830  0.78870  0.46720  Biso   1.000  H
  H71      1.0000 0.27830  0.71130  0.53280  Biso   1.000  H
  H72      1.0000 0.22170  0.28870  0.03280  Biso   1.000  H
  H73      1.0000 0.22040  0.68500  0.06260  Biso   1.000  H
  H74      1.0000 0.27960  0.31500  0.56260  Biso   1.000  H
  H75      1.0000 0.77960  0.18500  0.43740  Biso   1.000  H
  H76      1.0000 0.72040  0.81500  0.93740  Biso   1.000  H
  H77      1.0000 0.77960  0.31500  0.93740  Biso   1.000  H
  H78      1.0000 0.72040  0.68500  0.43740  Biso   1.000  H
  H79      1.0000 0.22040  0.81500  0.56260  Biso   1.000  H
  H80      1.0000 0.27960  0.18500  0.06260  Biso   1.000  H
  H81      1.0000 0.25330  0.62020  0.00860  Biso   1.000  H
  H82      1.0000 0.24670  0.37980  0.50860  Biso   1.000  H
  H83      1.0000 0.74670  0.12020  0.49140  Biso   1.000  H
  H84      1.0000 0.75330  0.87980  0.99140  Biso   1.000  H
  H85      1.0000 0.74670  0.37980  0.99140  Biso   1.000  H
  H86      1.0000 0.75330  0.62020  0.49140  Biso   1.000  H
  H87      1.0000 0.25330  0.87980  0.50860  Biso   1.000  H
  H88      1.0000 0.24670  0.12020  0.00860  Biso   1.000  H
  C97      1.0000 0.31770  0.59440  0.07170  Biso   1.000  C
  C98      1.0000 0.18230  0.40560  0.57170  Biso   1.000  C
  C99      1.0000 0.68230  0.09440  0.42830  Biso   1.000  C
  C100     1.0000 0.81770  0.90560  0.92830  Biso   1.000  C
  C101     1.0000 0.68230  0.40560  0.92830  Biso   1.000  C
  C102     1.0000 0.81770  0.59440  0.42830  Biso   1.000  C
  C103     1.0000 0.31770  0.90560  0.57170  Biso   1.000  C
  C104     1.0000 0.18230  0.09440  0.07170  Biso   1.000  C
  Cl1      1.0000 0.82887  0.11660  0.08297  Biso   1.000  Cl
  Cl2      1.0000 0.67113  0.88340  0.58297  Biso   1.000  Cl
  Cl3      1.0000 0.17113  0.61660  0.41703  Biso   1.000  Cl
  Cl4      1.0000 0.32887  0.38340  0.91703  Biso   1.000  Cl
  Cl5      1.0000 0.17113  0.88340  0.91703  Biso   1.000  Cl
  Cl6      1.0000 0.32887  0.11660  0.41703  Biso   1.000  Cl
  Cl7      1.0000 0.82887  0.38340  0.58297  Biso   1.000  Cl
  Cl8      1.0000 0.67113  0.61660  0.08297  Biso   1.000  Cl
  O9       1.0000 0.75620  0.12270  0.07513  Biso   1.000  O
  O10      1.0000 0.74380  0.87730  0.57513  Biso   1.000  O
  O11      1.0000 0.24380  0.62270  0.42487  Biso   1.000  O
  O12      1.0000 0.25620  0.37730  0.92487  Biso   1.000  O
  O13      1.0000 0.24380  0.87730  0.92487  Biso   1.000  O
  O14      1.0000 0.25620  0.12270  0.42487  Biso   1.000  O
  O15      1.0000 0.75620  0.37730  0.57513  Biso   1.000  O
  O16      1.0000 0.74380  0.62270  0.07513  Biso   1.000  O
  O17      1.0000 0.84600  0.04500  0.13290  Biso   1.000  O
  O18      1.0000 0.65400  0.95500  0.63290  Biso   1.000  O
  O19      1.0000 0.15400  0.54500  0.36710  Biso   1.000  O
  O20      1.0000 0.34600  0.45500  0.86710  Biso   1.000  O
  O21      1.0000 0.15400  0.95500  0.86710  Biso   1.000  O
  O22      1.0000 0.34600  0.04500  0.36710  Biso   1.000  O
  O23      1.0000 0.84600  0.45500  0.63290  Biso   1.000  O
  O24      1.0000 0.65400  0.54500  0.13290  Biso   1.000  O
  O25      1.0000 0.85950  0.00870  0.04330  Biso   1.000  O
  O26      1.0000 0.64050  0.99130  0.54330  Biso   1.000  O
  O27      1.0000 0.14050  0.50870  0.45670  Biso   1.000  O
  O28      1.0000 0.35950  0.49130  0.95670  Biso   1.000  O
  O29      1.0000 0.14050  0.99130  0.95670  Biso   1.000  O
  O30      1.0000 0.35950  0.00870  0.45670  Biso   1.000  O
  O31      1.0000 0.85950  0.49130  0.54330  Biso   1.000  O
  O32      1.0000 0.64050  0.50870  0.04330  Biso   1.000  O
  O33      1.0000 0.86160  0.26660  0.07370  Biso   1.000  O
  O34      1.0000 0.63840  0.73340  0.57370  Biso   1.000  O
  O35      1.0000 0.13840  0.76660  0.42630  Biso   1.000  O
  O36      1.0000 0.36160  0.23340  0.92630  Biso   1.000  O
  O37      1.0000 0.13840  0.73340  0.92630  Biso   1.000  O
  O38      1.0000 0.36160  0.26660  0.42630  Biso   1.000  O
  O39      1.0000 0.86160  0.23340  0.57370  Biso   1.000  O
  O40      1.0000 0.63840  0.76660  0.07370  Biso   1.000  O
  O41      1.0000 0.84430  0.21800  0.12780  Biso   1.000  O
  O42      1.0000 0.65570  0.78200  0.62780  Biso   1.000  O
  O43      1.0000 0.15570  0.71800  0.37220  Biso   1.000  O
  O44      1.0000 0.34430  0.28200  0.87220  Biso   1.000  O
  O45      1.0000 0.15570  0.78200  0.87220  Biso   1.000  O
  O46      1.0000 0.34430  0.21800  0.37220  Biso   1.000  O
  O47      1.0000 0.84430  0.28200  0.62780  Biso   1.000  O
  O48      1.0000 0.65570  0.71800  0.12780  Biso   1.000  O
  O49      1.0000 0.85210  0.95740  0.09440  Biso   1.000  O
  O50      1.0000 0.64790  0.04260  0.59440  Biso   1.000  O
  O51      1.0000 0.14790  0.45740  0.40560  Biso   1.000  O
  O52      1.0000 0.35210  0.54260  0.90560  Biso   1.000  O
  O53      1.0000 0.14790  0.04260  0.90560  Biso   1.000  O
  O54      1.0000 0.35210  0.95740  0.40560  Biso   1.000  O
  O55      1.0000 0.85210  0.54260  0.59440  Biso   1.000  O
  O56      1.0000 0.64790  0.45740  0.09440  Biso   1.000  O
  O57      1.0000 0.86410  0.18100  0.03810  Biso   1.000  O
  O58      1.0000 0.63590  0.81900  0.53810  Biso   1.000  O
  O59      1.0000 0.13590  0.68100  0.46190  Biso   1.000  O
  O60      1.0000 0.36410  0.31900  0.96190  Biso   1.000  O
  O61      1.0000 0.13590  0.81900  0.96190  Biso   1.000  O
  O62      1.0000 0.36410  0.18100  0.46190  Biso   1.000  O
  O63      1.0000 0.86410  0.31900  0.53810  Biso   1.000  O
  O64      1.0000 0.63590  0.68100  0.03810  Biso   1.000  O
  Cl9      1.0000 0.37771  0.01397  0.15051  Biso   1.000  Cl
  Cl10     1.0000 0.12229  0.98603  0.65051  Biso   1.000  Cl
  Cl11     1.0000 0.62229  0.51397  0.34949  Biso   1.000  Cl
  Cl12     1.0000 0.87771  0.48603  0.84949  Biso   1.000  Cl
  Cl13     1.0000 0.62229  0.98603  0.84949  Biso   1.000  Cl
  Cl14     1.0000 0.87771  0.01397  0.34949  Biso   1.000  Cl
  Cl15     1.0000 0.37771  0.48603  0.65051  Biso   1.000  Cl
  Cl16     1.0000 0.12229  0.51397  0.15051  Biso   1.000  Cl
  O65      1.0000 0.35850  0.18090  0.15650  Biso   1.000  O
  O66      1.0000 0.14150  0.81910  0.65650  Biso   1.000  O
  O67      1.0000 0.64150  0.68090  0.34350  Biso   1.000  O
  O68      1.0000 0.85850  0.31910  0.84350  Biso   1.000  O
  O69      1.0000 0.64150  0.81910  0.84350  Biso   1.000  O
  O70      1.0000 0.85850  0.18090  0.34350  Biso   1.000  O
  O71      1.0000 0.35850  0.31910  0.65650  Biso   1.000  O
  O72      1.0000 0.14150  0.68090  0.15650  Biso   1.000  O
  O73      1.0000 0.32890  0.90120  0.16820  Biso   1.000  O
  O74      1.0000 0.17110  0.09880  0.66820  Biso   1.000  O
  O75      1.0000 0.67110  0.40120  0.33180  Biso   1.000  O
  O76      1.0000 0.82890  0.59880  0.83180  Biso   1.000  O
  O77      1.0000 0.67110  0.09880  0.83180  Biso   1.000  O
  O78      1.0000 0.82890  0.90120  0.33180  Biso   1.000  O
  O79      1.0000 0.32890  0.59880  0.66820  Biso   1.000  O
  O80      1.0000 0.17110  0.40120  0.16820  Biso   1.000  O
  O81      1.0000 0.44590  0.98350  0.17270  Biso   1.000  O
  O82      1.0000 0.05410  0.01650  0.67270  Biso   1.000  O
  O83      1.0000 0.55410  0.48350  0.32730  Biso   1.000  O
  O84      1.0000 0.94590  0.51650  0.82730  Biso   1.000  O
  O85      1.0000 0.55410  0.01650  0.82730  Biso   1.000  O
  O86      1.0000 0.94590  0.98350  0.32730  Biso   1.000  O
  O87      1.0000 0.44590  0.51650  0.67270  Biso   1.000  O
  O88      1.0000 0.05410  0.48350  0.17270  Biso   1.000  O
  O89      1.0000 0.38820  0.99040  0.09360  Biso   1.000  O
  O90      1.0000 0.11180  0.00960  0.59360  Biso   1.000  O
  O91      1.0000 0.61180  0.49040  0.40640  Biso   1.000  O
  O92      1.0000 0.88820  0.50960  0.90640  Biso   1.000  O
  O93      1.0000 0.61180  0.00960  0.90640  Biso   1.000  O
  O94      1.0000 0.88820  0.99040  0.40640  Biso   1.000  O
  O95      1.0000 0.38820  0.50960  0.59360  Biso   1.000  O
  O96      1.0000 0.11180  0.49040  0.09360  Biso   1.000  O
  O97      1.0000 0.37390  0.95700  0.20480  Biso   1.000  O
  O98      1.0000 0.12610  0.04300  0.70480  Biso   1.000  O
  O99      1.0000 0.62610  0.45700  0.29520  Biso   1.000  O
  O100     1.0000 0.87390  0.54300  0.79520  Biso   1.000  O
  O101     1.0000 0.62610  0.04300  0.79520  Biso   1.000  O
  O102     1.0000 0.87390  0.95700  0.29520  Biso   1.000  O
  O103     1.0000 0.37390  0.54300  0.70480  Biso   1.000  O
  O104     1.0000 0.12610  0.45700  0.20480  Biso   1.000  O
  O105     1.0000 0.44430  0.98700  0.13010  Biso   1.000  O
  O106     1.0000 0.05570  0.01300  0.63010  Biso   1.000  O
  O107     1.0000 0.55570  0.48700  0.36990  Biso   1.000  O
  O108     1.0000 0.94430  0.51300  0.86990  Biso   1.000  O
  O109     1.0000 0.55570  0.01300  0.86990  Biso   1.000  O
  O110     1.0000 0.94430  0.98700  0.36990  Biso   1.000  O
  O111     1.0000 0.44430  0.51300  0.63010  Biso   1.000  O
  O112     1.0000 0.05570  0.48700  0.13010  Biso   1.000  O
  O113     1.0000 0.32450  0.93300  0.12160  Biso   1.000  O
  O114     1.0000 0.17550  0.06700  0.62160  Biso   1.000  O
  O115     1.0000 0.67550  0.43300  0.37840  Biso   1.000  O
  O116     1.0000 0.82450  0.56700  0.87840  Biso   1.000  O
  O117     1.0000 0.67550  0.06700  0.87840  Biso   1.000  O
  O118     1.0000 0.82450  0.93300  0.37840  Biso   1.000  O
  O119     1.0000 0.32450  0.56700  0.62160  Biso   1.000  O
  O120     1.0000 0.17550  0.43300  0.12160  Biso   1.000  O
  O121     1.0000 0.50090  0.67460  0.13816  Biso   1.000  O
  O122     1.0000 0.99910  0.32540  0.63816  Biso   1.000  O
  O123     1.0000 0.49910  0.17460  0.36184  Biso   1.000  O
  O124     1.0000 0.00090  0.82540  0.86184  Biso   1.000  O
  O125     1.0000 0.49910  0.32540  0.86184  Biso   1.000  O
  O126     1.0000 0.00090  0.67460  0.36184  Biso   1.000  O
  O127     1.0000 0.50090  0.82540  0.63816  Biso   1.000  O
  O128     1.0000 0.99910  0.17460  0.13816  Biso   1.000  O
  H89      1.0000 0.47830  0.75410  0.14900  Biso   1.000  H
  H90      1.0000 0.02170  0.24590  0.64900  Biso   1.000  H
  H91      1.0000 0.52170  0.25410  0.35100  Biso   1.000  H
  H92      1.0000 0.97830  0.74590  0.85100  Biso   1.000  H
  H93      1.0000 0.52170  0.24590  0.85100  Biso   1.000  H
  H94      1.0000 0.97830  0.75410  0.35100  Biso   1.000  H
  H95      1.0000 0.47830  0.74590  0.64900  Biso   1.000  H
  H96      1.0000 0.02170  0.25410  0.14900  Biso   1.000  H
  H97      1.0000 0.54740  0.66840  0.13850  Biso   1.000  H
  H98      1.0000 0.95260  0.33160  0.63850  Biso   1.000  H
  H99      1.0000 0.45260  0.16840  0.36150  Biso   1.000  H
  H100     1.0000 0.04740  0.83160  0.86150  Biso   1.000  H
  H101     1.0000 0.45260  0.33160  0.86150  Biso   1.000  H
  H102     1.0000 0.04740  0.66840  0.36150  Biso   1.000  H
  H103     1.0000 0.54740  0.83160  0.63850  Biso   1.000  H
  H104     1.0000 0.95260  0.16840  0.13850  Biso   1.000  H
