data_image0
_cell_length_a       20.599
_cell_length_b       11.872
_cell_length_c       16.534
_cell_angle_alpha    90
_cell_angle_beta     90
_cell_angle_gamma    90

_symmetry_space_group_name_H-M    "P 1"
_symmetry_int_tables_number       1

loop_
  _symmetry_equiv_pos_as_xyz
  'x, y, z'

loop_
  _atom_site_label
  _atom_site_occupancy
  _atom_site_fract_x
  _atom_site_fract_y
  _atom_site_fract_z
  _atom_site_thermal_displace_type
  _atom_site_B_iso_or_equiv
  _atom_site_type_symbol
  P1       1.0000 0.25000  0.75000  0.76530  Biso   1.000  P
  P2       1.0000 0.75000  0.25000  0.23470  Biso   1.000  P
  Mo1      1.0000 0.41952  0.75000  0.77517  Biso   1.000  Mo
  Mo2      1.0000 0.08048  0.75000  0.77517  Biso   1.000  Mo
  Mo3      1.0000 0.58048  0.25000  0.22483  Biso   1.000  Mo
  Mo4      1.0000 0.91952  0.25000  0.22483  Biso   1.000  Mo
  Mo5      1.0000 0.33897  0.60228  0.91980  Biso   1.000  Mo
  Mo6      1.0000 0.16103  0.89772  0.91980  Biso   1.000  Mo
  Mo7      1.0000 0.66103  0.10228  0.08020  Biso   1.000  Mo
  Mo8      1.0000 0.83897  0.39772  0.08020  Biso   1.000  Mo
  Mo9      1.0000 0.66103  0.39772  0.08020  Biso   1.000  Mo
  Mo10     1.0000 0.83897  0.10228  0.08020  Biso   1.000  Mo
  Mo11     1.0000 0.33897  0.89772  0.91980  Biso   1.000  Mo
  Mo12     1.0000 0.16103  0.60228  0.91980  Biso   1.000  Mo
  Mo13     1.0000 0.33216  0.58970  0.61758  Biso   1.000  Mo
  Mo14     1.0000 0.16784  0.91030  0.61758  Biso   1.000  Mo
  Mo15     1.0000 0.66784  0.08970  0.38242  Biso   1.000  Mo
  Mo16     1.0000 0.83216  0.41030  0.38242  Biso   1.000  Mo
  Mo17     1.0000 0.66784  0.41030  0.38242  Biso   1.000  Mo
  Mo18     1.0000 0.83216  0.08970  0.38242  Biso   1.000  Mo
  Mo19     1.0000 0.33216  0.91030  0.61758  Biso   1.000  Mo
  Mo20     1.0000 0.16784  0.58970  0.61758  Biso   1.000  Mo
  O1       1.0000 0.31010  0.75000  0.81930  Biso   1.000  O
  O2       1.0000 0.18990  0.75000  0.81930  Biso   1.000  O
  O3       1.0000 0.68990  0.25000  0.18070  Biso   1.000  O
  O4       1.0000 0.81010  0.25000  0.18070  Biso   1.000  O
  O5       1.0000 0.25000  0.64490  0.71090  Biso   1.000  O
  O6       1.0000 0.25000  0.85510  0.71090  Biso   1.000  O
  O7       1.0000 0.75000  0.14490  0.28910  Biso   1.000  O
  O8       1.0000 0.75000  0.35510  0.28910  Biso   1.000  O
  O9       1.0000 0.49870  0.75000  0.75180  Biso   1.000  O
  O10      1.0000 0.00130  0.75000  0.75180  Biso   1.000  O
  O11      1.0000 0.50130  0.25000  0.24820  Biso   1.000  O
  O12      1.0000 0.99870  0.25000  0.24820  Biso   1.000  O
  O13      1.0000 0.38790  0.64130  0.70030  Biso   1.000  O
  O14      1.0000 0.11210  0.85870  0.70030  Biso   1.000  O
  O15      1.0000 0.61210  0.14130  0.29970  Biso   1.000  O
  O16      1.0000 0.88790  0.35870  0.29970  Biso   1.000  O
  O17      1.0000 0.61210  0.35870  0.29970  Biso   1.000  O
  O18      1.0000 0.88790  0.14130  0.29970  Biso   1.000  O
  O19      1.0000 0.38790  0.85870  0.70030  Biso   1.000  O
  O20      1.0000 0.11210  0.64130  0.70030  Biso   1.000  O
  O21      1.0000 0.41600  0.63770  0.85760  Biso   1.000  O
  O22      1.0000 0.08400  0.86230  0.85760  Biso   1.000  O
  O23      1.0000 0.58400  0.13770  0.14240  Biso   1.000  O
  O24      1.0000 0.91600  0.36230  0.14240  Biso   1.000  O
  O25      1.0000 0.58400  0.36230  0.14240  Biso   1.000  O
  O26      1.0000 0.91600  0.13770  0.14240  Biso   1.000  O
  O27      1.0000 0.41600  0.86230  0.85760  Biso   1.000  O
  O28      1.0000 0.08400  0.63770  0.85760  Biso   1.000  O
  O29      1.0000 0.25000  0.61350  0.94750  Biso   1.000  O
  O30      1.0000 0.25000  0.88650  0.94750  Biso   1.000  O
  O31      1.0000 0.75000  0.11350  0.05250  Biso   1.000  O
  O32      1.0000 0.75000  0.38650  0.05250  Biso   1.000  O
  O33      1.0000 0.31660  0.49530  0.84000  Biso   1.000  O
  O34      1.0000 0.18340  0.00470  0.84000  Biso   1.000  O
  O35      1.0000 0.68340  0.99530  0.16000  Biso   1.000  O
  O36      1.0000 0.81660  0.50470  0.16000  Biso   1.000  O
  O37      1.0000 0.68340  0.50470  0.16000  Biso   1.000  O
  O38      1.0000 0.81660  0.99530  0.16000  Biso   1.000  O
  O39      1.0000 0.31660  0.00470  0.84000  Biso   1.000  O
  O40      1.0000 0.18340  0.49530  0.84000  Biso   1.000  O
  O41      1.0000 0.35230  0.75000  0.97130  Biso   1.000  O
  O42      1.0000 0.14770  0.75000  0.97130  Biso   1.000  O
  O43      1.0000 0.64770  0.25000  0.02870  Biso   1.000  O
  O44      1.0000 0.85230  0.25000  0.02870  Biso   1.000  O
  O45      1.0000 0.37040  0.52110  0.99430  Biso   1.000  O
  O46      1.0000 0.12960  0.97890  0.99430  Biso   1.000  O
  O47      1.0000 0.62960  0.02110  0.00570  Biso   1.000  O
  O48      1.0000 0.87040  0.47890  0.00570  Biso   1.000  O
  O49      1.0000 0.62960  0.47890  0.00570  Biso   1.000  O
  O50      1.0000 0.87040  0.02110  0.00570  Biso   1.000  O
  O51      1.0000 0.37040  0.97890  0.99430  Biso   1.000  O
  O52      1.0000 0.12960  0.52110  0.99430  Biso   1.000  O
  O53      1.0000 0.31870  0.45010  0.67650  Biso   1.000  O
  O54      1.0000 0.18130  0.04990  0.67650  Biso   1.000  O
  O55      1.0000 0.68130  0.95010  0.32350  Biso   1.000  O
  O56      1.0000 0.81870  0.54990  0.32350  Biso   1.000  O
  O57      1.0000 0.68130  0.54990  0.32350  Biso   1.000  O
  O58      1.0000 0.81870  0.95010  0.32350  Biso   1.000  O
  O59      1.0000 0.31870  0.04990  0.67650  Biso   1.000  O
  O60      1.0000 0.18130  0.45010  0.67650  Biso   1.000  O
  O61      1.0000 0.25000  0.56870  0.56770  Biso   1.000  O
  O62      1.0000 0.25000  0.93130  0.56770  Biso   1.000  O
  O63      1.0000 0.75000  0.06870  0.43230  Biso   1.000  O
  O64      1.0000 0.75000  0.43130  0.43230  Biso   1.000  O
  O65      1.0000 0.32920  0.75000  0.58460  Biso   1.000  O
  O66      1.0000 0.17080  0.75000  0.58460  Biso   1.000  O
  O67      1.0000 0.67080  0.25000  0.41540  Biso   1.000  O
  O68      1.0000 0.82920  0.25000  0.41540  Biso   1.000  O
  O69      1.0000 0.38520  0.54210  0.54850  Biso   1.000  O
  O70      1.0000 0.11480  0.95790  0.54850  Biso   1.000  O
  O71      1.0000 0.61480  0.04210  0.45150  Biso   1.000  O
  O72      1.0000 0.88520  0.45790  0.45150  Biso   1.000  O
  O73      1.0000 0.61480  0.45790  0.45150  Biso   1.000  O
  O74      1.0000 0.88520  0.04210  0.45150  Biso   1.000  O
  O75      1.0000 0.38520  0.95790  0.54850  Biso   1.000  O
  O76      1.0000 0.11480  0.54210  0.54850  Biso   1.000  O
  O77      1.0000 0.25000  0.30890  0.77760  Biso   1.000  O
  O78      1.0000 0.25000  0.19110  0.77760  Biso   1.000  O
  O79      1.0000 0.75000  0.80890  0.22240  Biso   1.000  O
  O80      1.0000 0.75000  0.69110  0.22240  Biso   1.000  O
  Mo21     1.0000 0.25000  0.44874  0.76406  Biso   1.000  Mo
  Mo22     1.0000 0.25000  0.05126  0.76406  Biso   1.000  Mo
  Mo23     1.0000 0.75000  0.94874  0.23594  Biso   1.000  Mo
  Mo24     1.0000 0.75000  0.55126  0.23594  Biso   1.000  Mo
  Cu1      1.0000 0.33610  0.25000  0.26096  Biso   1.000  Cu
  Cu2      1.0000 0.16390  0.25000  0.26096  Biso   1.000  Cu
  Cu3      1.0000 0.66390  0.75000  0.73904  Biso   1.000  Cu
  Cu4      1.0000 0.83610  0.75000  0.73904  Biso   1.000  Cu
  Cu5      1.0000 0.40051  0.49628  0.13811  Biso   1.000  Cu
  Cu6      1.0000 0.09949  0.00372  0.13811  Biso   1.000  Cu
  Cu7      1.0000 0.59949  0.99628  0.86189  Biso   1.000  Cu
  Cu8      1.0000 0.90051  0.50372  0.86189  Biso   1.000  Cu
  Cu9      1.0000 0.59949  0.50372  0.86189  Biso   1.000  Cu
  Cu10     1.0000 0.90051  0.99628  0.86189  Biso   1.000  Cu
  Cu11     1.0000 0.40051  0.00372  0.13811  Biso   1.000  Cu
  Cu12     1.0000 0.09949  0.49628  0.13811  Biso   1.000  Cu
  Cu13     1.0000 0.50000  0.50000  0.50000  Biso   1.000  Cu
  Cu14     1.0000 0.00000  0.00000  0.50000  Biso   1.000  Cu
  Cu15     1.0000 0.50000  0.00000  0.50000  Biso   1.000  Cu
  Cu16     1.0000 0.00000  0.50000  0.50000  Biso   1.000  Cu
  N1       1.0000 0.41980  0.45200  0.27190  Biso   1.000  N
  N2       1.0000 0.08020  0.04800  0.27190  Biso   1.000  N
  N3       1.0000 0.58020  0.95200  0.72810  Biso   1.000  N
  N4       1.0000 0.91980  0.54800  0.72810  Biso   1.000  N
  N5       1.0000 0.58020  0.54800  0.72810  Biso   1.000  N
  N6       1.0000 0.91980  0.95200  0.72810  Biso   1.000  N
  N7       1.0000 0.41980  0.04800  0.27190  Biso   1.000  N
  N8       1.0000 0.08020  0.45200  0.27190  Biso   1.000  N
  N9       1.0000 0.38890  0.37230  0.31440  Biso   1.000  N
  N10      1.0000 0.11110  0.12770  0.31440  Biso   1.000  N
  N11      1.0000 0.61110  0.87230  0.68560  Biso   1.000  N
  N12      1.0000 0.88890  0.62770  0.68560  Biso   1.000  N
  N13      1.0000 0.61110  0.62770  0.68560  Biso   1.000  N
  N14      1.0000 0.88890  0.87230  0.68560  Biso   1.000  N
  N15      1.0000 0.38890  0.12770  0.31440  Biso   1.000  N
  N16      1.0000 0.11110  0.37230  0.31440  Biso   1.000  N
  N17      1.0000 0.40870  0.37630  0.38850  Biso   1.000  N
  N18      1.0000 0.09130  0.12370  0.38850  Biso   1.000  N
  N19      1.0000 0.59130  0.87630  0.61150  Biso   1.000  N
  N20      1.0000 0.90870  0.62370  0.61150  Biso   1.000  N
  N21      1.0000 0.59130  0.62370  0.61150  Biso   1.000  N
  N22      1.0000 0.90870  0.87630  0.61150  Biso   1.000  N
  N23      1.0000 0.40870  0.12370  0.38850  Biso   1.000  N
  N24      1.0000 0.09130  0.37630  0.38850  Biso   1.000  N
  N25      1.0000 0.45380  0.45820  0.39640  Biso   1.000  N
  N26      1.0000 0.04620  0.04180  0.39640  Biso   1.000  N
  N27      1.0000 0.54620  0.95820  0.60360  Biso   1.000  N
  N28      1.0000 0.95380  0.54180  0.60360  Biso   1.000  N
  N29      1.0000 0.54620  0.54180  0.60360  Biso   1.000  N
  N30      1.0000 0.95380  0.95820  0.60360  Biso   1.000  N
  N31      1.0000 0.45380  0.04180  0.39640  Biso   1.000  N
  N32      1.0000 0.04620  0.45820  0.39640  Biso   1.000  N
  C1       1.0000 0.45920  0.50210  0.32210  Biso   1.000  C
  C2       1.0000 0.04080  0.99790  0.32210  Biso   1.000  C
  C3       1.0000 0.54080  0.00210  0.67790  Biso   1.000  C
  C4       1.0000 0.95920  0.49790  0.67790  Biso   1.000  C
  C5       1.0000 0.54080  0.49790  0.67790  Biso   1.000  C
  C6       1.0000 0.95920  0.00210  0.67790  Biso   1.000  C
  C7       1.0000 0.45920  0.99790  0.32210  Biso   1.000  C
  C8       1.0000 0.04080  0.50210  0.32210  Biso   1.000  C
  H1       1.0000 0.48720  0.56040  0.30820  Biso   1.000  H
  H2       1.0000 0.01280  0.93960  0.30820  Biso   1.000  H
  H3       1.0000 0.51280  0.06040  0.69180  Biso   1.000  H
  H4       1.0000 0.98720  0.43960  0.69180  Biso   1.000  H
  H5       1.0000 0.51280  0.43960  0.69180  Biso   1.000  H
  H6       1.0000 0.98720  0.06040  0.69180  Biso   1.000  H
  H7       1.0000 0.48720  0.93960  0.30820  Biso   1.000  H
  H8       1.0000 0.01280  0.56040  0.30820  Biso   1.000  H
  N33      1.0000 0.41760  0.33970  0.10190  Biso   1.000  N
  N34      1.0000 0.08240  0.16030  0.10190  Biso   1.000  N
  N35      1.0000 0.58240  0.83970  0.89810  Biso   1.000  N
  N36      1.0000 0.91760  0.66030  0.89810  Biso   1.000  N
  N37      1.0000 0.58240  0.66030  0.89810  Biso   1.000  N
  N38      1.0000 0.91760  0.83970  0.89810  Biso   1.000  N
  N39      1.0000 0.41760  0.16030  0.10190  Biso   1.000  N
  N40      1.0000 0.08240  0.33970  0.10190  Biso   1.000  N
  N41      1.0000 0.41110  0.75000  0.12830  Biso   1.000  N
  N42      1.0000 0.08890  0.75000  0.12830  Biso   1.000  N
  N43      1.0000 0.58890  0.25000  0.87170  Biso   1.000  N
  N44      1.0000 0.91110  0.25000  0.87170  Biso   1.000  N
  N45      1.0000 0.38500  0.65900  0.16080  Biso   1.000  N
  N46      1.0000 0.11500  0.84100  0.16080  Biso   1.000  N
  N47      1.0000 0.61500  0.15900  0.83920  Biso   1.000  N
  N48      1.0000 0.88500  0.34100  0.83920  Biso   1.000  N
  N49      1.0000 0.61500  0.34100  0.83920  Biso   1.000  N
  N50      1.0000 0.88500  0.15900  0.83920  Biso   1.000  N
  N51      1.0000 0.38500  0.84100  0.16080  Biso   1.000  N
  N52      1.0000 0.11500  0.65900  0.16080  Biso   1.000  N
  C9       1.0000 0.34170  0.69600  0.21610  Biso   1.000  C
  C10      1.0000 0.15830  0.80400  0.21610  Biso   1.000  C
  C11      1.0000 0.65830  0.19600  0.78390  Biso   1.000  C
  C12      1.0000 0.84170  0.30400  0.78390  Biso   1.000  C
  C13      1.0000 0.65830  0.30400  0.78390  Biso   1.000  C
  C14      1.0000 0.84170  0.19600  0.78390  Biso   1.000  C
  C15      1.0000 0.34170  0.80400  0.21610  Biso   1.000  C
  C16      1.0000 0.15830  0.69600  0.21610  Biso   1.000  C
  H9       1.0000 0.31520  0.64870  0.24980  Biso   1.000  H
  H10      1.0000 0.18480  0.85130  0.24980  Biso   1.000  H
  H11      1.0000 0.68480  0.14870  0.75020  Biso   1.000  H
  H12      1.0000 0.81520  0.35130  0.75020  Biso   1.000  H
  H13      1.0000 0.68480  0.35130  0.75020  Biso   1.000  H
  H14      1.0000 0.81520  0.14870  0.75020  Biso   1.000  H
  H15      1.0000 0.31520  0.85130  0.24980  Biso   1.000  H
  H16      1.0000 0.18480  0.64870  0.24980  Biso   1.000  H
  C17      1.0000 0.53840  0.69580  0.40190  Biso   1.000  C
  C18      1.0000 0.96160  0.80420  0.40190  Biso   1.000  C
  C19      1.0000 0.46160  0.19580  0.59810  Biso   1.000  C
  C20      1.0000 0.03840  0.30420  0.59810  Biso   1.000  C
  C21      1.0000 0.46160  0.30420  0.59810  Biso   1.000  C
  C22      1.0000 0.03840  0.19580  0.59810  Biso   1.000  C
  C23      1.0000 0.53840  0.80420  0.40190  Biso   1.000  C
  C24      1.0000 0.96160  0.69580  0.40190  Biso   1.000  C
  H17      1.0000 0.55920  0.64910  0.36230  Biso   1.000  H
  H18      1.0000 0.94080  0.85090  0.36230  Biso   1.000  H
  H19      1.0000 0.44080  0.14910  0.63770  Biso   1.000  H
  H20      1.0000 0.05920  0.35090  0.63770  Biso   1.000  H
  H21      1.0000 0.44080  0.35090  0.63770  Biso   1.000  H
  H22      1.0000 0.05920  0.14910  0.63770  Biso   1.000  H
  H23      1.0000 0.55920  0.85090  0.36230  Biso   1.000  H
  H24      1.0000 0.94080  0.64910  0.36230  Biso   1.000  H
  N53      1.0000 0.50500  0.65850  0.46500  Biso   1.000  N
  N54      1.0000 0.99500  0.84150  0.46500  Biso   1.000  N
  N55      1.0000 0.49500  0.15850  0.53500  Biso   1.000  N
  N56      1.0000 0.00500  0.34150  0.53500  Biso   1.000  N
  N57      1.0000 0.49500  0.34150  0.53500  Biso   1.000  N
  N58      1.0000 0.00500  0.15850  0.53500  Biso   1.000  N
  N59      1.0000 0.50500  0.84150  0.46500  Biso   1.000  N
  N60      1.0000 0.99500  0.65850  0.46500  Biso   1.000  N
  N61      1.0000 0.48440  0.75000  0.50360  Biso   1.000  N
  N62      1.0000 0.01560  0.75000  0.50360  Biso   1.000  N
  N63      1.0000 0.51560  0.25000  0.49640  Biso   1.000  N
  N64      1.0000 0.98440  0.25000  0.49640  Biso   1.000  N
  N65      1.0000 0.28130  0.37270  0.20200  Biso   1.000  N
  N66      1.0000 0.21870  0.12730  0.20200  Biso   1.000  N
  N67      1.0000 0.71870  0.87270  0.79800  Biso   1.000  N
  N68      1.0000 0.78130  0.62730  0.79800  Biso   1.000  N
  N69      1.0000 0.71870  0.62730  0.79800  Biso   1.000  N
  N70      1.0000 0.78130  0.87270  0.79800  Biso   1.000  N
  N71      1.0000 0.28130  0.12730  0.20200  Biso   1.000  N
  N72      1.0000 0.21870  0.37270  0.20200  Biso   1.000  N
  N73      1.0000 0.30280  0.45610  0.15590  Biso   1.000  N
  N74      1.0000 0.19720  0.04390  0.15590  Biso   1.000  N
  N75      1.0000 0.69720  0.95610  0.84410  Biso   1.000  N
  N76      1.0000 0.80280  0.54390  0.84410  Biso   1.000  N
  N77      1.0000 0.69720  0.54390  0.84410  Biso   1.000  N
  N78      1.0000 0.80280  0.95610  0.84410  Biso   1.000  N
  N79      1.0000 0.30280  0.04390  0.15590  Biso   1.000  N
  N80      1.0000 0.19720  0.45610  0.15590  Biso   1.000  N
  C25      1.0000 0.25000  0.50730  0.12830  Biso   1.000  C
  C26      1.0000 0.25000  0.99270  0.12830  Biso   1.000  C
  C27      1.0000 0.75000  0.00730  0.87170  Biso   1.000  C
  C28      1.0000 0.75000  0.49270  0.87170  Biso   1.000  C
  H25      1.0000 0.25000  0.56990  0.09450  Biso   1.000  H
  H26      1.0000 0.25000  0.93010  0.09450  Biso   1.000  H
  H27      1.0000 0.75000  0.06990  0.90550  Biso   1.000  H
  H28      1.0000 0.75000  0.43010  0.90550  Biso   1.000  H
  N81      1.0000 0.39530  0.25000  0.14020  Biso   1.000  N
  N82      1.0000 0.10470  0.25000  0.14020  Biso   1.000  N
  N83      1.0000 0.60470  0.75000  0.85980  Biso   1.000  N
  N84      1.0000 0.89530  0.75000  0.85980  Biso   1.000  N
  H29      1.0000 0.47540  0.34900  0.00600  Biso   1.000  H
  H30      1.0000 0.02460  0.15100  0.00600  Biso   1.000  H
  H31      1.0000 0.52460  0.84900  0.99400  Biso   1.000  H
  H32      1.0000 0.97540  0.65100  0.99400  Biso   1.000  H
  H33      1.0000 0.52460  0.65100  0.99400  Biso   1.000  H
  H34      1.0000 0.97540  0.84900  0.99400  Biso   1.000  H
  H35      1.0000 0.47540  0.15100  0.00600  Biso   1.000  H
  H36      1.0000 0.02460  0.34900  0.00600  Biso   1.000  H
  C29      1.0000 0.45530  0.30620  0.03960  Biso   1.000  C
  C30      1.0000 0.04470  0.19380  0.03960  Biso   1.000  C
  C31      1.0000 0.54470  0.80620  0.96040  Biso   1.000  C
  C32      1.0000 0.95530  0.69380  0.96040  Biso   1.000  C
  C33      1.0000 0.54470  0.69380  0.96040  Biso   1.000  C
  C34      1.0000 0.95530  0.80620  0.96040  Biso   1.000  C
  C35      1.0000 0.45530  0.19380  0.03960  Biso   1.000  C
  C36      1.0000 0.04470  0.30620  0.03960  Biso   1.000  C
  O81      1.0000 0.25000  0.25000  0.35030  Biso   1.000  O
  O82      1.0000 0.75000  0.75000  0.64970  Biso   1.000  O
  O83      1.0000 0.49310  0.53560  0.10890  Biso   1.000  O
  O84      1.0000 0.00690  0.96440  0.10890  Biso   1.000  O
  O85      1.0000 0.50690  0.03560  0.89110  Biso   1.000  O
  O86      1.0000 0.99310  0.46440  0.89110  Biso   1.000  O
  O87      1.0000 0.50690  0.46440  0.89110  Biso   1.000  O
  O88      1.0000 0.99310  0.03560  0.89110  Biso   1.000  O
  O89      1.0000 0.49310  0.96440  0.10890  Biso   1.000  O
  O90      1.0000 0.00690  0.53560  0.10890  Biso   1.000  O
  O91      1.0000 0.56520  0.62950  0.22080  Biso   1.000  O
  O92      1.0000 0.93480  0.87050  0.22080  Biso   1.000  O
  O93      1.0000 0.43480  0.12950  0.77920  Biso   1.000  O
  O94      1.0000 0.06520  0.37050  0.77920  Biso   1.000  O
  O95      1.0000 0.43480  0.37050  0.77920  Biso   1.000  O
  O96      1.0000 0.06520  0.12950  0.77920  Biso   1.000  O
  O97      1.0000 0.56520  0.87050  0.22080  Biso   1.000  O
  O98      1.0000 0.93480  0.62950  0.22080  Biso   1.000  O
  O99      1.0000 0.25000  0.06800  0.43190  Biso   1.000  O
  O100     1.0000 0.25000  0.43200  0.43190  Biso   1.000  O
  O101     1.0000 0.75000  0.56800  0.56810  Biso   1.000  O
  O102     1.0000 0.75000  0.93200  0.56810  Biso   1.000  O
  O103     1.0000 0.31510  0.25000  0.56840  Biso   1.000  O
  O104     1.0000 0.18490  0.25000  0.56840  Biso   1.000  O
  O105     1.0000 0.68490  0.75000  0.43160  Biso   1.000  O
  O106     1.0000 0.81510  0.75000  0.43160  Biso   1.000  O
  O107     1.0000 0.34010  0.25000  0.92000  Biso   1.000  O
  O108     1.0000 0.15990  0.25000  0.92000  Biso   1.000  O
  O109     1.0000 0.65990  0.75000  0.08000  Biso   1.000  O
  O110     1.0000 0.84010  0.75000  0.08000  Biso   1.000  O
  O111     1.0000 0.25000  0.89700  0.32530  Biso   1.000  O
  O112     1.0000 0.25000  0.60300  0.32530  Biso   1.000  O
  O113     1.0000 0.75000  0.39700  0.67470  Biso   1.000  O
  O114     1.0000 0.75000  0.10300  0.67470  Biso   1.000  O
  O115     1.0000 0.25000  0.25000  0.03300  Biso   1.000  O
  O116     1.0000 0.75000  0.75000  0.96700  Biso   1.000  O
  O117     1.0000 0.25000  0.02600  0.40500  Biso   1.000  O
  O118     1.0000 0.25000  0.47400  0.40500  Biso   1.000  O
  O119     1.0000 0.75000  0.52600  0.59500  Biso   1.000  O
  O120     1.0000 0.75000  0.97400  0.59500  Biso   1.000  O
