data_image0
_cell_length_a       8.8759
_cell_length_b       14.058
_cell_length_c       9.0414
_cell_angle_alpha    90
_cell_angle_beta     112.35
_cell_angle_gamma    90

_symmetry_space_group_name_H-M    "P 1"
_symmetry_int_tables_number       1

loop_
  _symmetry_equiv_pos_as_xyz
  'x, y, z'

loop_
  _atom_site_label
  _atom_site_occupancy
  _atom_site_fract_x
  _atom_site_fract_y
  _atom_site_fract_z
  _atom_site_thermal_displace_type
  _atom_site_B_iso_or_equiv
  _atom_site_type_symbol
  C1       1.0000 0.92300  0.83493  0.22890  Biso   1.000  C
  C2       1.0000 0.07700  0.33493  0.27110  Biso   1.000  C
  C3       1.0000 0.07700  0.16507  0.77110  Biso   1.000  C
  C4       1.0000 0.92300  0.66507  0.72890  Biso   1.000  C
  C5       1.0000 0.85420  0.82584  0.35660  Biso   1.000  C
  C6       1.0000 0.14580  0.32584  0.14340  Biso   1.000  C
  C7       1.0000 0.14580  0.17416  0.64340  Biso   1.000  C
  C8       1.0000 0.85420  0.67416  0.85660  Biso   1.000  C
  H1       1.0000 0.77014  0.77536  0.32645  Biso   1.000  H
  H2       1.0000 0.22986  0.27536  0.17355  Biso   1.000  H
  H3       1.0000 0.22986  0.22464  0.67355  Biso   1.000  H
  H4       1.0000 0.77014  0.72464  0.82645  Biso   1.000  H
  H5       1.0000 0.94192  0.80722  0.45867  Biso   1.000  H
  H6       1.0000 0.05808  0.30722  0.04133  Biso   1.000  H
  H7       1.0000 0.05808  0.19278  0.54133  Biso   1.000  H
  H8       1.0000 0.94192  0.69278  0.95867  Biso   1.000  H
  C9       1.0000 0.78030  0.91801  0.37850  Biso   1.000  C
  C10      1.0000 0.21970  0.41801  0.12150  Biso   1.000  C
  C11      1.0000 0.21970  0.08199  0.62150  Biso   1.000  C
  C12      1.0000 0.78030  0.58199  0.87850  Biso   1.000  C
  H9       1.0000 0.84911  0.97137  0.36946  Biso   1.000  H
  H10      1.0000 0.15089  0.47137  0.13054  Biso   1.000  H
  H11      1.0000 0.15089  0.02863  0.63054  Biso   1.000  H
  H12      1.0000 0.84911  0.52863  0.86946  Biso   1.000  H
  H13      1.0000 0.67128  0.92513  0.29227  Biso   1.000  H
  H14      1.0000 0.32872  0.42513  0.20773  Biso   1.000  H
  H15      1.0000 0.32872  0.07487  0.70773  Biso   1.000  H
  H16      1.0000 0.67128  0.57487  0.79227  Biso   1.000  H
  C13      1.0000 0.63680  0.89960  0.57350  Biso   1.000  C
  C14      1.0000 0.36320  0.39960  0.92650  Biso   1.000  C
  C15      1.0000 0.36320  0.10040  0.42650  Biso   1.000  C
  C16      1.0000 0.63680  0.60040  0.07350  Biso   1.000  C
  C17      1.0000 0.68940  0.92074  0.73620  Biso   1.000  C
  C18      1.0000 0.31060  0.42074  0.76380  Biso   1.000  C
  C19      1.0000 0.31060  0.07926  0.26380  Biso   1.000  C
  C20      1.0000 0.68940  0.57926  0.23620  Biso   1.000  C
  C21      1.0000 0.58600  0.90806  0.81900  Biso   1.000  C
  C22      1.0000 0.41400  0.40806  0.68100  Biso   1.000  C
  C23      1.0000 0.41400  0.09194  0.18100  Biso   1.000  C
  C24      1.0000 0.58600  0.59194  0.31900  Biso   1.000  C
  H17      1.0000 0.61943  0.92345  0.92919  Biso   1.000  H
  H18      1.0000 0.38057  0.42345  0.57081  Biso   1.000  H
  H19      1.0000 0.38057  0.07655  0.07081  Biso   1.000  H
  H20      1.0000 0.61943  0.57655  0.42919  Biso   1.000  H
  C25      1.0000 0.43450  0.87240  0.73330  Biso   1.000  C
  C26      1.0000 0.56550  0.37240  0.76670  Biso   1.000  C
  C27      1.0000 0.56550  0.12760  0.26670  Biso   1.000  C
  C28      1.0000 0.43450  0.62760  0.23330  Biso   1.000  C
  H21      1.0000 0.36147  0.86180  0.78586  Biso   1.000  H
  H22      1.0000 0.63853  0.36180  0.71414  Biso   1.000  H
  H23      1.0000 0.63853  0.13820  0.21414  Biso   1.000  H
  H24      1.0000 0.36147  0.63820  0.28586  Biso   1.000  H
  C29      1.0000 0.38350  0.85087  0.56910  Biso   1.000  C
  C30      1.0000 0.61650  0.35087  0.93090  Biso   1.000  C
  C31      1.0000 0.61650  0.14913  0.43090  Biso   1.000  C
  C32      1.0000 0.38350  0.64913  0.06910  Biso   1.000  C
  H25      1.0000 0.27690  0.82628  0.51474  Biso   1.000  H
  H26      1.0000 0.72310  0.32628  0.98526  Biso   1.000  H
  H27      1.0000 0.72310  0.17372  0.48526  Biso   1.000  H
  H28      1.0000 0.27690  0.67372  0.01474  Biso   1.000  H
  C33      1.0000 0.48110  0.86396  0.48530  Biso   1.000  C
  C34      1.0000 0.51890  0.36396  0.01470  Biso   1.000  C
  C35      1.0000 0.51890  0.13604  0.51470  Biso   1.000  C
  C36      1.0000 0.48110  0.63604  0.98530  Biso   1.000  C
  H29      1.0000 0.44582  0.84984  0.37448  Biso   1.000  H
  H30      1.0000 0.55418  0.34984  0.12552  Biso   1.000  H
  H31      1.0000 0.55418  0.15016  0.62552  Biso   1.000  H
  H32      1.0000 0.44582  0.65016  0.87448  Biso   1.000  H
  N1       1.0000 0.03950  0.77451  0.23480  Biso   1.000  N
  N2       1.0000 0.96050  0.27451  0.26520  Biso   1.000  N
  N3       1.0000 0.96050  0.22549  0.76520  Biso   1.000  N
  N4       1.0000 0.03950  0.72549  0.73480  Biso   1.000  N
  H33      1.0000 0.08461  0.77809  0.16360  Biso   1.000  H
  H34      1.0000 0.91539  0.27809  0.33640  Biso   1.000  H
  H35      1.0000 0.91539  0.22191  0.83640  Biso   1.000  H
  H36      1.0000 0.08461  0.72191  0.66360  Biso   1.000  H
  H37      1.0000 0.07176  0.73075  0.31001  Biso   1.000  H
  H38      1.0000 0.92824  0.23075  0.18999  Biso   1.000  H
  H39      1.0000 0.92824  0.26925  0.68999  Biso   1.000  H
  H40      1.0000 0.07176  0.76925  0.81001  Biso   1.000  H
  N5       1.0000 0.76460  0.92298  0.53346  Biso   1.000  N
  N6       1.0000 0.23540  0.42298  0.96654  Biso   1.000  N
  N7       1.0000 0.23540  0.07702  0.46654  Biso   1.000  N
  N8       1.0000 0.76460  0.57702  0.03346  Biso   1.000  N
  N9       1.0000 0.88980  0.95575  0.65969  Biso   1.000  N
  N10      1.0000 0.11020  0.45575  0.84031  Biso   1.000  N
  N11      1.0000 0.11020  0.04425  0.34031  Biso   1.000  N
  N12      1.0000 0.88980  0.54425  0.15969  Biso   1.000  N
  N13      1.0000 0.84610  0.95449  0.78309  Biso   1.000  N
  N14      1.0000 0.15390  0.45449  0.71691  Biso   1.000  N
  N15      1.0000 0.15390  0.04551  0.21691  Biso   1.000  N
  N16      1.0000 0.84610  0.54551  0.28309  Biso   1.000  N
  O1       1.0000 0.87283  0.89763  0.12651  Biso   1.000  O
  O2       1.0000 0.12717  0.39763  0.37349  Biso   1.000  O
  O3       1.0000 0.12717  0.10237  0.87349  Biso   1.000  O
  O4       1.0000 0.87283  0.60237  0.62651  Biso   1.000  O
  Cl1      1.0000 0.19389  0.88472  0.00965  Biso   1.000  Cl
  Cl2      1.0000 0.80611  0.38472  0.49035  Biso   1.000  Cl
  Cl3      1.0000 0.80611  0.11528  0.99035  Biso   1.000  Cl
  Cl4      1.0000 0.19389  0.61528  0.50965  Biso   1.000  Cl
  Cu1      1.0000 0.00000  0.00000  0.00000  Biso   1.000  Cu
  Cu2      1.0000 0.00000  0.50000  0.50000  Biso   1.000  Cu
