data_image0
_cell_length_a       11.6891
_cell_length_b       14.1824
_cell_length_c       12.0379
_cell_angle_alpha    90
_cell_angle_beta     92.574
_cell_angle_gamma    90

_symmetry_space_group_name_H-M    "P 1"
_symmetry_int_tables_number       1

loop_
  _symmetry_equiv_pos_as_xyz
  'x, y, z'

loop_
  _atom_site_label
  _atom_site_occupancy
  _atom_site_fract_x
  _atom_site_fract_y
  _atom_site_fract_z
  _atom_site_thermal_displace_type
  _atom_site_B_iso_or_equiv
  _atom_site_type_symbol
  Cu1      1.0000 0.79789  0.57853  0.07155  Biso   1.000  Cu
  Cu2      1.0000 0.20211  0.07853  0.92845  Biso   1.000  Cu
  Cu3      1.0000 0.44826  0.34083  0.29141  Biso   1.000  Cu
  Cu4      1.0000 0.55174  0.84083  0.70859  Biso   1.000  Cu
  F1       1.0000 0.00280  0.35080  0.17850  Biso   1.000  F
  F2       1.0000 0.99720  0.85080  0.82150  Biso   1.000  F
  F3       1.0000 0.67090  0.61380  0.50740  Biso   1.000  F
  F4       1.0000 0.32910  0.11380  0.49260  Biso   1.000  F
  N1       1.0000 0.68360  0.66900  0.13980  Biso   1.000  N
  N2       1.0000 0.31640  0.16900  0.86020  Biso   1.000  N
  N3       1.0000 0.95160  0.64730  0.12380  Biso   1.000  N
  N4       1.0000 0.04840  0.14730  0.87620  Biso   1.000  N
  N5       1.0000 0.38130  0.40950  0.41800  Biso   1.000  N
  N6       1.0000 0.61870  0.90950  0.58200  Biso   1.000  N
  N7       1.0000 0.36870  0.43660  0.16910  Biso   1.000  N
  N8       1.0000 0.63130  0.93660  0.83090  Biso   1.000  N
  O1       1.0000 0.60730  0.38740  0.32670  Biso   1.000  O
  O2       1.0000 0.39270  0.88740  0.67330  Biso   1.000  O
  O3       1.0000 0.61030  0.27000  0.45250  Biso   1.000  O
  O4       1.0000 0.38970  0.77000  0.54750  Biso   1.000  O
  O5       1.0000 0.80650  0.48890  0.19400  Biso   1.000  O
  O6       1.0000 0.19350  0.98890  0.80600  Biso   1.000  O
  O7       1.0000 0.71770  0.36330  0.11420  Biso   1.000  O
  O8       1.0000 0.28230  0.86330  0.88580  Biso   1.000  O
  O9       1.0000 0.78830  0.62760  0.91590  Biso   1.000  O
  O10      1.0000 0.21170  0.12760  0.08410  Biso   1.000  O
  O11      1.0000 0.87380  0.49750  0.94270  Biso   1.000  O
  O12      1.0000 0.12620  0.99750  0.05730  Biso   1.000  O
  O13      1.0000 0.67390  0.73870  0.70540  Biso   1.000  O
  O14      1.0000 0.32610  0.23870  0.29460  Biso   1.000  O
  O15      1.0000 0.57990  0.61690  0.77530  Biso   1.000  O
  O16      1.0000 0.42010  0.11690  0.22470  Biso   1.000  O
  O17      1.0000 0.66220  0.52090  0.99350  Biso   1.000  O
  O18      1.0000 0.33780  0.02090  0.00650  Biso   1.000  O
  H1       1.0000 0.67270  0.46290  0.00820  Biso   1.000  H
  H2       1.0000 0.32730  0.96290  0.99180  Biso   1.000  H
  H3       1.0000 0.63900  0.52650  0.92590  Biso   1.000  H
  H4       1.0000 0.36100  0.02650  0.07410  Biso   1.000  H
  O19      1.0000 0.51650  0.27390  0.16300  Biso   1.000  O
  O20      1.0000 0.48350  0.77390  0.83700  Biso   1.000  O
  H5       1.0000 0.58710  0.28360  0.15320  Biso   1.000  H
  H6       1.0000 0.41290  0.78360  0.84680  Biso   1.000  H
  H7       1.0000 0.50780  0.21690  0.18300  Biso   1.000  H
  H8       1.0000 0.49220  0.71690  0.81700  Biso   1.000  H
  C1       1.0000 0.65720  0.32470  0.38670  Biso   1.000  C
  C2       1.0000 0.34280  0.82470  0.61330  Biso   1.000  C
  C3       1.0000 0.77840  0.40120  0.18780  Biso   1.000  C
  C4       1.0000 0.22160  0.90120  0.81220  Biso   1.000  C
  C5       1.0000 0.78440  0.31230  0.37430  Biso   1.000  C
  C6       1.0000 0.21560  0.81230  0.62570  Biso   1.000  C
  C7       1.0000 0.83630  0.34280  0.27870  Biso   1.000  C
  C8       1.0000 0.16370  0.84280  0.72130  Biso   1.000  C
  C9       1.0000 0.95050  0.32060  0.27130  Biso   1.000  C
  C10      1.0000 0.04950  0.82060  0.72870  Biso   1.000  C
  C11      1.0000 0.01310  0.26640  0.34910  Biso   1.000  C
  C12      1.0000 0.98690  0.76640  0.65090  Biso   1.000  C
  H9       1.0000 0.08840  0.24930  0.33720  Biso   1.000  H
  H10      1.0000 0.91160  0.74930  0.66280  Biso   1.000  H
  C13      1.0000 0.96180  0.23930  0.44170  Biso   1.000  C
  C14      1.0000 0.03820  0.73930  0.55830  Biso   1.000  C
  H11      1.0000 0.00290  0.20740  0.49780  Biso   1.000  H
  H12      1.0000 0.99710  0.70740  0.50220  Biso   1.000  H
  C15      1.0000 0.84810  0.25950  0.45230  Biso   1.000  C
  C16      1.0000 0.15190  0.75950  0.54770  Biso   1.000  C
  H13      1.0000 0.81200  0.23690  0.51430  Biso   1.000  H
  H14      1.0000 0.18800  0.73690  0.48570  Biso   1.000  H
  C17      1.0000 0.84050  0.55970  0.87560  Biso   1.000  C
  C18      1.0000 0.15950  0.05970  0.12440  Biso   1.000  C
  C19      1.0000 0.66040  0.65350  0.72990  Biso   1.000  C
  C20      1.0000 0.33960  0.15350  0.27010  Biso   1.000  C
  C21      1.0000 0.83460  0.54740  0.75500  Biso   1.000  C
  C22      1.0000 0.16540  0.04740  0.24500  Biso   1.000  C
  C23      1.0000 0.75300  0.58970  0.68550  Biso   1.000  C
  C24      1.0000 0.24700  0.08970  0.31450  Biso   1.000  C
  C25      1.0000 0.75580  0.57530  0.57060  Biso   1.000  C
  C26      1.0000 0.24420  0.07530  0.42940  Biso   1.000  C
  C27      1.0000 0.83480  0.51900  0.52310  Biso   1.000  C
  C28      1.0000 0.16520  0.01900  0.47690  Biso   1.000  C
  H15      1.0000 0.83370  0.50860  0.44680  Biso   1.000  H
  H16      1.0000 0.16630  0.00860  0.55320  Biso   1.000  H
  C29      1.0000 0.91780  0.47770  0.59560  Biso   1.000  C
  C30      1.0000 0.08220  0.97770  0.40440  Biso   1.000  C
  H17      1.0000 0.97480  0.44130  0.56530  Biso   1.000  H
  H18      1.0000 0.02520  0.94130  0.43470  Biso   1.000  H
  C31      1.0000 0.91910  0.48810  0.70550  Biso   1.000  C
  C32      1.0000 0.08090  0.98810  0.29450  Biso   1.000  C
  H19      1.0000 0.97410  0.45730  0.75040  Biso   1.000  H
  H20      1.0000 0.02590  0.95730  0.24960  Biso   1.000  H
  C33      1.0000 0.65250  0.66110  0.24520  Biso   1.000  C
  C34      1.0000 0.34750  0.16110  0.75480  Biso   1.000  C
  H21      1.0000 0.68280  0.61200  0.28840  Biso   1.000  H
  H22      1.0000 0.31720  0.11200  0.71160  Biso   1.000  H
  C35      1.0000 0.57760  0.72250  0.29200  Biso   1.000  C
  C36      1.0000 0.42240  0.22250  0.70800  Biso   1.000  C
  H23      1.0000 0.55940  0.71480  0.36590  Biso   1.000  H
  H24      1.0000 0.44060  0.21480  0.63410  Biso   1.000  H
  C37      1.0000 0.52900  0.79580  0.23000  Biso   1.000  C
  C38      1.0000 0.47100  0.29580  0.77000  Biso   1.000  C
  C39      1.0000 0.56370  0.80270  0.12040  Biso   1.000  C
  C40      1.0000 0.43630  0.30270  0.87960  Biso   1.000  C
  H25      1.0000 0.53420  0.85090  0.07510  Biso   1.000  H
  H26      1.0000 0.46580  0.35090  0.92490  Biso   1.000  H
  C41      1.0000 0.63710  0.74260  0.07990  Biso   1.000  C
  C42      1.0000 0.36290  0.24260  0.92010  Biso   1.000  C
  H27      1.0000 0.65840  0.75060  0.00700  Biso   1.000  H
  H28      1.0000 0.34160  0.25060  0.99300  Biso   1.000  H
  C43      1.0000 0.02140  0.61550  0.20990  Biso   1.000  C
  C44      1.0000 0.97860  0.11550  0.79010  Biso   1.000  C
  H29      1.0000 0.99880  0.56470  0.25250  Biso   1.000  H
  H30      1.0000 0.00120  0.06470  0.74750  Biso   1.000  H
  C45      1.0000 0.12680  0.65930  0.23430  Biso   1.000  C
  C46      1.0000 0.87320  0.15930  0.76570  Biso   1.000  C
  H31      1.0000 0.17220  0.63830  0.29470  Biso   1.000  H
  H32      1.0000 0.82780  0.13830  0.70530  Biso   1.000  H
  C47      1.0000 0.16530  0.73360  0.17000  Biso   1.000  C
  C48      1.0000 0.83470  0.23360  0.83000  Biso   1.000  C
  C49      1.0000 0.09040  0.76730  0.08690  Biso   1.000  C
  C50      1.0000 0.90960  0.26730  0.91310  Biso   1.000  C
  H33      1.0000 0.11130  0.81840  0.04400  Biso   1.000  H
  H34      1.0000 0.88870  0.31840  0.95600  Biso   1.000  H
  C51      1.0000 0.98550  0.72550  0.06770  Biso   1.000  C
  C52      1.0000 0.01450  0.22550  0.93230  Biso   1.000  C
  H35      1.0000 0.93520  0.75160  0.01410  Biso   1.000  H
  H36      1.0000 0.06480  0.25160  0.98590  Biso   1.000  H
  C53      1.0000 0.43940  0.85850  0.27710  Biso   1.000  C
  C54      1.0000 0.56060  0.35850  0.72290  Biso   1.000  C
  H37      1.0000 0.43700  0.91740  0.23620  Biso   1.000  H
  H38      1.0000 0.56300  0.41740  0.76380  Biso   1.000  H
  H39      1.0000 0.46140  0.87270  0.35390  Biso   1.000  H
  H40      1.0000 0.53860  0.37270  0.64610  Biso   1.000  H
  C55      1.0000 0.32010  0.81510  0.27230  Biso   1.000  C
  C56      1.0000 0.67990  0.31510  0.72770  Biso   1.000  C
  H41      1.0000 0.32080  0.76020  0.32040  Biso   1.000  H
  H42      1.0000 0.67920  0.26020  0.67960  Biso   1.000  H
  H43      1.0000 0.26690  0.86030  0.30150  Biso   1.000  H
  H44      1.0000 0.73310  0.36030  0.69850  Biso   1.000  H
  C57      1.0000 0.27730  0.78620  0.15910  Biso   1.000  C
  C58      1.0000 0.72270  0.28620  0.84090  Biso   1.000  C
  H45      1.0000 0.33300  0.74570  0.12530  Biso   1.000  H
  H46      1.0000 0.66700  0.24570  0.87470  Biso   1.000  H
  H47      1.0000 0.26530  0.84130  0.11240  Biso   1.000  H
  H48      1.0000 0.73470  0.34130  0.88760  Biso   1.000  H
  C59      1.0000 0.42100  0.49610  0.44630  Biso   1.000  C
  C60      1.0000 0.57900  0.99610  0.55370  Biso   1.000  C
  H49      1.0000 0.47790  0.52250  0.40460  Biso   1.000  H
  H50      1.0000 0.52210  0.02250  0.59540  Biso   1.000  H
  C61      1.0000 0.38320  0.54460  0.52970  Biso   1.000  C
  C62      1.0000 0.61680  0.04460  0.47030  Biso   1.000  C
  H51      1.0000 0.41410  0.60390  0.54510  Biso   1.000  H
  H52      1.0000 0.58590  0.10390  0.45490  Biso   1.000  H
  C63      1.0000 0.30120  0.51130  0.59360  Biso   1.000  C
  C64      1.0000 0.69880  0.01130  0.40640  Biso   1.000  C
  C65      1.0000 0.26110  0.41870  0.56990  Biso   1.000  C
  C66      1.0000 0.73890  0.91870  0.43010  Biso   1.000  C
  H53      1.0000 0.20740  0.39050  0.61390  Biso   1.000  H
  H54      1.0000 0.79260  0.89050  0.38610  Biso   1.000  H
  C67      1.0000 0.30240  0.37210  0.48160  Biso   1.000  C
  C68      1.0000 0.69760  0.87210  0.51840  Biso   1.000  C
  H55      1.0000 0.27480  0.31200  0.46500  Biso   1.000  H
  H56      1.0000 0.72520  0.81200  0.53500  Biso   1.000  H
  C69      1.0000 0.43010  0.50120  0.11650  Biso   1.000  C
  C70      1.0000 0.56990  0.00120  0.88350  Biso   1.000  C
  H57      1.0000 0.50600  0.51170  0.13970  Biso   1.000  H
  H58      1.0000 0.49400  0.01170  0.86030  Biso   1.000  H
  C71      1.0000 0.38250  0.55240  0.02810  Biso   1.000  C
  C72      1.0000 0.61750  0.05240  0.97190  Biso   1.000  C
  H59      1.0000 0.42760  0.59590  0.99220  Biso   1.000  H
  H60      1.0000 0.57240  0.09590  0.00780  Biso   1.000  H
  C73      1.0000 0.27140  0.54060  0.99240  Biso   1.000  C
  C74      1.0000 0.72860  0.04060  0.00760  Biso   1.000  C
  C75      1.0000 0.20840  0.47390  0.04600  Biso   1.000  C
  C76      1.0000 0.79160  0.97390  0.95400  Biso   1.000  C
  H61      1.0000 0.13290  0.46150  0.02290  Biso   1.000  H
  H62      1.0000 0.86710  0.96150  0.97710  Biso   1.000  H
  C77      1.0000 0.25890  0.42640  0.13370  Biso   1.000  C
  C78      1.0000 0.74110  0.92640  0.86630  Biso   1.000  C
  H63      1.0000 0.21420  0.38400  0.17150  Biso   1.000  H
  H64      1.0000 0.78580  0.88400  0.82850  Biso   1.000  H
  C79      1.0000 0.24340  0.57190  0.67710  Biso   1.000  C
  C80      1.0000 0.75660  0.07190  0.32290  Biso   1.000  C
  H65      1.0000 0.16120  0.57180  0.66190  Biso   1.000  H
  H66      1.0000 0.83880  0.07180  0.33810  Biso   1.000  H
  H67      1.0000 0.27060  0.63640  0.67260  Biso   1.000  H
  H68      1.0000 0.72940  0.13640  0.32740  Biso   1.000  H
  C81      1.0000 0.27100  0.53270  0.79160  Biso   1.000  C
  C82      1.0000 0.72900  0.03270  0.20840  Biso   1.000  C
  H69      1.0000 0.35360  0.52810  0.80180  Biso   1.000  H
  H70      1.0000 0.64640  0.02810  0.19820  Biso   1.000  H
  H71      1.0000 0.24040  0.46930  0.79460  Biso   1.000  H
  H72      1.0000 0.75960  0.96930  0.20540  Biso   1.000  H
  C83      1.0000 0.22570  0.58910  0.89010  Biso   1.000  C
  C84      1.0000 0.77430  0.08910  0.10990  Biso   1.000  C
  H73      1.0000 0.25240  0.65380  0.88830  Biso   1.000  H
  H74      1.0000 0.74760  0.15380  0.11170  Biso   1.000  H
  H75      1.0000 0.14270  0.58920  0.88720  Biso   1.000  H
  H76      1.0000 0.85730  0.08920  0.11280  Biso   1.000  H
