data_image0
_cell_length_a       18.3303
_cell_length_b       10.4149
_cell_length_c       20.581
_cell_angle_alpha    90
_cell_angle_beta     97.284
_cell_angle_gamma    90

_symmetry_space_group_name_H-M    "P 1"
_symmetry_int_tables_number       1

loop_
  _symmetry_equiv_pos_as_xyz
  'x, y, z'

loop_
  _atom_site_label
  _atom_site_occupancy
  _atom_site_fract_x
  _atom_site_fract_y
  _atom_site_fract_z
  _atom_site_thermal_displace_type
  _atom_site_B_iso_or_equiv
  _atom_site_type_symbol
  Cu1      1.0000 0.65816  0.34780  0.72359  Biso   1.000  Cu
  Cu2      1.0000 0.34184  0.34780  0.77641  Biso   1.000  Cu
  Cu3      1.0000 0.15816  0.84780  0.72359  Biso   1.000  Cu
  Cu4      1.0000 0.84184  0.84780  0.77641  Biso   1.000  Cu
  Cu5      1.0000 0.34184  0.65220  0.27641  Biso   1.000  Cu
  Cu6      1.0000 0.65816  0.65220  0.22359  Biso   1.000  Cu
  Cu7      1.0000 0.84184  0.15220  0.27641  Biso   1.000  Cu
  Cu8      1.0000 0.15816  0.15220  0.22359  Biso   1.000  Cu
  F1       1.0000 0.84627  0.86120  0.55180  Biso   1.000  F
  F2       1.0000 0.15373  0.86120  0.94820  Biso   1.000  F
  F3       1.0000 0.34627  0.36120  0.55180  Biso   1.000  F
  F4       1.0000 0.65373  0.36120  0.94820  Biso   1.000  F
  F5       1.0000 0.15373  0.13880  0.44820  Biso   1.000  F
  F6       1.0000 0.84627  0.13880  0.05180  Biso   1.000  F
  F7       1.0000 0.65373  0.63880  0.44820  Biso   1.000  F
  F8       1.0000 0.34627  0.63880  0.05180  Biso   1.000  F
  N1       1.0000 0.62013  0.20430  0.77566  Biso   1.000  N
  N2       1.0000 0.37987  0.20430  0.72434  Biso   1.000  N
  N3       1.0000 0.12013  0.70430  0.77566  Biso   1.000  N
  N4       1.0000 0.87987  0.70430  0.72434  Biso   1.000  N
  N5       1.0000 0.37987  0.79570  0.22434  Biso   1.000  N
  N6       1.0000 0.62013  0.79570  0.27566  Biso   1.000  N
  N7       1.0000 0.87987  0.29570  0.22434  Biso   1.000  N
  N8       1.0000 0.12013  0.29570  0.27566  Biso   1.000  N
  N9       1.0000 0.36642  0.50340  0.83095  Biso   1.000  N
  N10      1.0000 0.63358  0.50340  0.66905  Biso   1.000  N
  N11      1.0000 0.86642  0.00340  0.83095  Biso   1.000  N
  N12      1.0000 0.13358  0.00340  0.66905  Biso   1.000  N
  N13      1.0000 0.63358  0.49660  0.16905  Biso   1.000  N
  N14      1.0000 0.36642  0.49660  0.33095  Biso   1.000  N
  N15      1.0000 0.13358  0.99660  0.16905  Biso   1.000  N
  N16      1.0000 0.86642  0.99660  0.33095  Biso   1.000  N
  O1       1.0000 0.76126  0.24089  0.68447  Biso   1.000  O
  O2       1.0000 0.23874  0.24089  0.81553  Biso   1.000  O
  O3       1.0000 0.26126  0.74089  0.68447  Biso   1.000  O
  O4       1.0000 0.73874  0.74089  0.81553  Biso   1.000  O
  O5       1.0000 0.23874  0.75911  0.31553  Biso   1.000  O
  O6       1.0000 0.76126  0.75911  0.18447  Biso   1.000  O
  O7       1.0000 0.73874  0.25911  0.31553  Biso   1.000  O
  O8       1.0000 0.26126  0.25911  0.18447  Biso   1.000  O
  O9       1.0000 0.64482  0.24056  0.64284  Biso   1.000  O
  O10      1.0000 0.35518  0.24056  0.85716  Biso   1.000  O
  O11      1.0000 0.14482  0.74056  0.64284  Biso   1.000  O
  O12      1.0000 0.85518  0.74056  0.85716  Biso   1.000  O
  O13      1.0000 0.35518  0.75944  0.35716  Biso   1.000  O
  O14      1.0000 0.64482  0.75944  0.14284  Biso   1.000  O
  O15      1.0000 0.85518  0.25944  0.35716  Biso   1.000  O
  O16      1.0000 0.14482  0.25944  0.14284  Biso   1.000  O
  O17      1.0000 0.79242  0.93634  0.70077  Biso   1.000  O
  O18      1.0000 0.20758  0.93634  0.79923  Biso   1.000  O
  O19      1.0000 0.29242  0.43634  0.70077  Biso   1.000  O
  O20      1.0000 0.70758  0.43634  0.79923  Biso   1.000  O
  O21      1.0000 0.20758  0.06366  0.29923  Biso   1.000  O
  O22      1.0000 0.79242  0.06366  0.20077  Biso   1.000  O
  O23      1.0000 0.70758  0.56366  0.29923  Biso   1.000  O
  O24      1.0000 0.29242  0.56366  0.20077  Biso   1.000  O
  O25      1.0000 0.89296  0.02840  0.67005  Biso   1.000  O
  O26      1.0000 0.10704  0.02840  0.82995  Biso   1.000  O
  O27      1.0000 0.39296  0.52840  0.67005  Biso   1.000  O
  O28      1.0000 0.60704  0.52840  0.82995  Biso   1.000  O
  O29      1.0000 0.10704  0.97160  0.32995  Biso   1.000  O
  O30      1.0000 0.89296  0.97160  0.17005  Biso   1.000  O
  O31      1.0000 0.60704  0.47160  0.32995  Biso   1.000  O
  O32      1.0000 0.39296  0.47160  0.17005  Biso   1.000  O
  O33      1.0000 0.50000  0.68430  0.75000  Biso   1.000  O
  O34      1.0000 0.00000  0.18430  0.75000  Biso   1.000  O
  O35      1.0000 0.50000  0.31570  0.25000  Biso   1.000  O
  O36      1.0000 0.00000  0.81570  0.25000  Biso   1.000  O
  H1       1.0000 0.46920  0.63660  0.72700  Biso   1.000  H
  H2       1.0000 0.53080  0.63660  0.77300  Biso   1.000  H
  H3       1.0000 0.96920  0.13660  0.72700  Biso   1.000  H
  H4       1.0000 0.03080  0.13660  0.77300  Biso   1.000  H
  H5       1.0000 0.53080  0.36340  0.27300  Biso   1.000  H
  H6       1.0000 0.46920  0.36340  0.22700  Biso   1.000  H
  H7       1.0000 0.03080  0.86340  0.27300  Biso   1.000  H
  H8       1.0000 0.96920  0.86340  0.22700  Biso   1.000  H
  C1       1.0000 0.71144  0.20670  0.64166  Biso   1.000  C
  C2       1.0000 0.28856  0.20670  0.85834  Biso   1.000  C
  C3       1.0000 0.21144  0.70670  0.64166  Biso   1.000  C
  C4       1.0000 0.78856  0.70670  0.85834  Biso   1.000  C
  C5       1.0000 0.28856  0.79330  0.35834  Biso   1.000  C
  C6       1.0000 0.71144  0.79330  0.14166  Biso   1.000  C
  C7       1.0000 0.78856  0.29330  0.35834  Biso   1.000  C
  C8       1.0000 0.21144  0.29330  0.14166  Biso   1.000  C
  C9       1.0000 0.82775  0.99920  0.66102  Biso   1.000  C
  C10      1.0000 0.17225  0.99920  0.83898  Biso   1.000  C
  C11      1.0000 0.32775  0.49920  0.66102  Biso   1.000  C
  C12      1.0000 0.67225  0.49920  0.83898  Biso   1.000  C
  C13      1.0000 0.17225  0.00080  0.33898  Biso   1.000  C
  C14      1.0000 0.82775  0.00080  0.16102  Biso   1.000  C
  C15      1.0000 0.67225  0.50080  0.33898  Biso   1.000  C
  C16      1.0000 0.32775  0.50080  0.16102  Biso   1.000  C
  C17      1.0000 0.72810  0.12270  0.58598  Biso   1.000  C
  C18      1.0000 0.27190  0.12270  0.91402  Biso   1.000  C
  C19      1.0000 0.22810  0.62270  0.58598  Biso   1.000  C
  C20      1.0000 0.77190  0.62270  0.91402  Biso   1.000  C
  C21      1.0000 0.27190  0.87730  0.41402  Biso   1.000  C
  C22      1.0000 0.72810  0.87730  0.08598  Biso   1.000  C
  C23      1.0000 0.77190  0.37730  0.41402  Biso   1.000  C
  C24      1.0000 0.22810  0.37730  0.08598  Biso   1.000  C
  C25      1.0000 0.78290  0.02970  0.59547  Biso   1.000  C
  C26      1.0000 0.21710  0.02970  0.90453  Biso   1.000  C
  C27      1.0000 0.28290  0.52970  0.59547  Biso   1.000  C
  C28      1.0000 0.71710  0.52970  0.90453  Biso   1.000  C
  C29      1.0000 0.21710  0.97030  0.40453  Biso   1.000  C
  C30      1.0000 0.78290  0.97030  0.09547  Biso   1.000  C
  C31      1.0000 0.71710  0.47030  0.40453  Biso   1.000  C
  C32      1.0000 0.28290  0.47030  0.09547  Biso   1.000  C
  C33      1.0000 0.79580  0.95720  0.54191  Biso   1.000  C
  C34      1.0000 0.20420  0.95720  0.95809  Biso   1.000  C
  C35      1.0000 0.29580  0.45720  0.54191  Biso   1.000  C
  C36      1.0000 0.70420  0.45720  0.95809  Biso   1.000  C
  C37      1.0000 0.20420  0.04280  0.45809  Biso   1.000  C
  C38      1.0000 0.79580  0.04280  0.04191  Biso   1.000  C
  C39      1.0000 0.70420  0.54280  0.45809  Biso   1.000  C
  C40      1.0000 0.29580  0.54280  0.04191  Biso   1.000  C
  C41      1.0000 0.75930  0.97450  0.48066  Biso   1.000  C
  C42      1.0000 0.24070  0.97450  0.01934  Biso   1.000  C
  C43      1.0000 0.25930  0.47450  0.48066  Biso   1.000  C
  C44      1.0000 0.74070  0.47450  0.01934  Biso   1.000  C
  C45      1.0000 0.24070  0.02550  0.51934  Biso   1.000  C
  C46      1.0000 0.75930  0.02550  0.98066  Biso   1.000  C
  C47      1.0000 0.74070  0.52550  0.51934  Biso   1.000  C
  C48      1.0000 0.25930  0.52550  0.98066  Biso   1.000  C
  H9       1.0000 0.76960  0.92350  0.44590  Biso   1.000  H
  H10      1.0000 0.23040  0.92350  0.05410  Biso   1.000  H
  H11      1.0000 0.26960  0.42350  0.44590  Biso   1.000  H
  H12      1.0000 0.73040  0.42350  0.05410  Biso   1.000  H
  H13      1.0000 0.23040  0.07650  0.55410  Biso   1.000  H
  H14      1.0000 0.76960  0.07650  0.94590  Biso   1.000  H
  H15      1.0000 0.73040  0.57650  0.55410  Biso   1.000  H
  H16      1.0000 0.26960  0.57650  0.94590  Biso   1.000  H
  C49      1.0000 0.70640  0.06970  0.47139  Biso   1.000  C
  C50      1.0000 0.29360  0.06970  0.02861  Biso   1.000  C
  C51      1.0000 0.20640  0.56970  0.47139  Biso   1.000  C
  C52      1.0000 0.79360  0.56970  0.02861  Biso   1.000  C
  C53      1.0000 0.29360  0.93030  0.52861  Biso   1.000  C
  C54      1.0000 0.70640  0.93030  0.97139  Biso   1.000  C
  C55      1.0000 0.79360  0.43030  0.52861  Biso   1.000  C
  C56      1.0000 0.20640  0.43030  0.97139  Biso   1.000  C
  H17      1.0000 0.68210  0.08560  0.42970  Biso   1.000  H
  H18      1.0000 0.31790  0.08560  0.07030  Biso   1.000  H
  H19      1.0000 0.18210  0.58560  0.42970  Biso   1.000  H
  H20      1.0000 0.81790  0.58560  0.07030  Biso   1.000  H
  H21      1.0000 0.31790  0.91440  0.57030  Biso   1.000  H
  H22      1.0000 0.68210  0.91440  0.92970  Biso   1.000  H
  H23      1.0000 0.81790  0.41440  0.57030  Biso   1.000  H
  H24      1.0000 0.18210  0.41440  0.92970  Biso   1.000  H
  C57      1.0000 0.68976  0.14060  0.52386  Biso   1.000  C
  C58      1.0000 0.31024  0.14060  0.97614  Biso   1.000  C
  C59      1.0000 0.18976  0.64060  0.52386  Biso   1.000  C
  C60      1.0000 0.81024  0.64060  0.97614  Biso   1.000  C
  C61      1.0000 0.31024  0.85940  0.47614  Biso   1.000  C
  C62      1.0000 0.68976  0.85940  0.02386  Biso   1.000  C
  C63      1.0000 0.81024  0.35940  0.47614  Biso   1.000  C
  C64      1.0000 0.18976  0.35940  0.02386  Biso   1.000  C
  H25      1.0000 0.65240  0.20150  0.51780  Biso   1.000  H
  H26      1.0000 0.34760  0.20150  0.98220  Biso   1.000  H
  H27      1.0000 0.15240  0.70150  0.51780  Biso   1.000  H
  H28      1.0000 0.84760  0.70150  0.98220  Biso   1.000  H
  H29      1.0000 0.34760  0.79850  0.48220  Biso   1.000  H
  H30      1.0000 0.65240  0.79850  0.01780  Biso   1.000  H
  H31      1.0000 0.84760  0.29850  0.48220  Biso   1.000  H
  H32      1.0000 0.15240  0.29850  0.01780  Biso   1.000  H
  C65      1.0000 0.63666  0.07900  0.76932  Biso   1.000  C
  C66      1.0000 0.36334  0.07900  0.73068  Biso   1.000  C
  C67      1.0000 0.13666  0.57900  0.76932  Biso   1.000  C
  C68      1.0000 0.86334  0.57900  0.73068  Biso   1.000  C
  C69      1.0000 0.36334  0.92100  0.23068  Biso   1.000  C
  C70      1.0000 0.63666  0.92100  0.26932  Biso   1.000  C
  C71      1.0000 0.86334  0.42100  0.23068  Biso   1.000  C
  C72      1.0000 0.13666  0.42100  0.26932  Biso   1.000  C
  H33      1.0000 0.67200  0.05700  0.74250  Biso   1.000  H
  H34      1.0000 0.32800  0.05700  0.75750  Biso   1.000  H
  H35      1.0000 0.17200  0.55700  0.74250  Biso   1.000  H
  H36      1.0000 0.82800  0.55700  0.75750  Biso   1.000  H
  H37      1.0000 0.32800  0.94300  0.25750  Biso   1.000  H
  H38      1.0000 0.67200  0.94300  0.24250  Biso   1.000  H
  H39      1.0000 0.82800  0.44300  0.25750  Biso   1.000  H
  H40      1.0000 0.17200  0.44300  0.24250  Biso   1.000  H
  C73      1.0000 0.60386  0.98260  0.80050  Biso   1.000  C
  C74      1.0000 0.39614  0.98260  0.69950  Biso   1.000  C
  C75      1.0000 0.10386  0.48260  0.80050  Biso   1.000  C
  C76      1.0000 0.89614  0.48260  0.69950  Biso   1.000  C
  C77      1.0000 0.39614  0.01740  0.19950  Biso   1.000  C
  C78      1.0000 0.60386  0.01740  0.30050  Biso   1.000  C
  C79      1.0000 0.89614  0.51740  0.19950  Biso   1.000  C
  C80      1.0000 0.10386  0.51740  0.30050  Biso   1.000  C
  H41      1.0000 0.61760  0.89770  0.79500  Biso   1.000  H
  H42      1.0000 0.38240  0.89770  0.70500  Biso   1.000  H
  H43      1.0000 0.11760  0.39770  0.79500  Biso   1.000  H
  H44      1.0000 0.88240  0.39770  0.70500  Biso   1.000  H
  H45      1.0000 0.38240  0.10230  0.20500  Biso   1.000  H
  H46      1.0000 0.61760  0.10230  0.29500  Biso   1.000  H
  H47      1.0000 0.88240  0.60230  0.20500  Biso   1.000  H
  H48      1.0000 0.11760  0.60230  0.29500  Biso   1.000  H
  C81      1.0000 0.55031  0.01120  0.84012  Biso   1.000  C
  C82      1.0000 0.44969  0.01120  0.65988  Biso   1.000  C
  C83      1.0000 0.05031  0.51120  0.84012  Biso   1.000  C
  C84      1.0000 0.94969  0.51120  0.65988  Biso   1.000  C
  C85      1.0000 0.44969  0.98880  0.15988  Biso   1.000  C
  C86      1.0000 0.55031  0.98880  0.34012  Biso   1.000  C
  C87      1.0000 0.94969  0.48880  0.15988  Biso   1.000  C
  C88      1.0000 0.05031  0.48880  0.34012  Biso   1.000  C
  C89      1.0000 0.53291  0.13940  0.84577  Biso   1.000  C
  C90      1.0000 0.46709  0.13940  0.65423  Biso   1.000  C
  C91      1.0000 0.03291  0.63940  0.84577  Biso   1.000  C
  C92      1.0000 0.96709  0.63940  0.65423  Biso   1.000  C
  C93      1.0000 0.46709  0.86060  0.15423  Biso   1.000  C
  C94      1.0000 0.53291  0.86060  0.34577  Biso   1.000  C
  C95      1.0000 0.96709  0.36060  0.15423  Biso   1.000  C
  C96      1.0000 0.03291  0.36060  0.34577  Biso   1.000  C
  H49      1.0000 0.49690  0.16370  0.87130  Biso   1.000  H
  H50      1.0000 0.50310  0.16370  0.62870  Biso   1.000  H
  H51      1.0000 0.99690  0.66370  0.87130  Biso   1.000  H
  H52      1.0000 0.00310  0.66370  0.62870  Biso   1.000  H
  H53      1.0000 0.50310  0.83630  0.12870  Biso   1.000  H
  H54      1.0000 0.49690  0.83630  0.37130  Biso   1.000  H
  H55      1.0000 0.00310  0.33630  0.12870  Biso   1.000  H
  H56      1.0000 0.99690  0.33630  0.37130  Biso   1.000  H
  C97      1.0000 0.56866  0.23090  0.81386  Biso   1.000  C
  C98      1.0000 0.43134  0.23090  0.68614  Biso   1.000  C
  C99      1.0000 0.06866  0.73090  0.81386  Biso   1.000  C
  C100     1.0000 0.93134  0.73090  0.68614  Biso   1.000  C
  C101     1.0000 0.43134  0.76910  0.18614  Biso   1.000  C
  C102     1.0000 0.56866  0.76910  0.31386  Biso   1.000  C
  C103     1.0000 0.93134  0.26910  0.18614  Biso   1.000  C
  C104     1.0000 0.06866  0.26910  0.31386  Biso   1.000  C
  H57      1.0000 0.55630  0.31650  0.81920  Biso   1.000  H
  H58      1.0000 0.44370  0.31650  0.68080  Biso   1.000  H
  H59      1.0000 0.05630  0.81650  0.81920  Biso   1.000  H
  H60      1.0000 0.94370  0.81650  0.68080  Biso   1.000  H
  H61      1.0000 0.44370  0.68350  0.18080  Biso   1.000  H
  H62      1.0000 0.55630  0.68350  0.31920  Biso   1.000  H
  H63      1.0000 0.94370  0.18350  0.18080  Biso   1.000  H
  H64      1.0000 0.05630  0.18350  0.31920  Biso   1.000  H
  C105     1.0000 0.41944  0.49820  0.88183  Biso   1.000  C
  C106     1.0000 0.58056  0.49820  0.61817  Biso   1.000  C
  C107     1.0000 0.91944  0.99820  0.88183  Biso   1.000  C
  C108     1.0000 0.08056  0.99820  0.61817  Biso   1.000  C
  C109     1.0000 0.58056  0.50180  0.11817  Biso   1.000  C
  C110     1.0000 0.41944  0.50180  0.38183  Biso   1.000  C
  C111     1.0000 0.08056  0.00180  0.11817  Biso   1.000  C
  C112     1.0000 0.91944  0.00180  0.38183  Biso   1.000  C
  H65      1.0000 0.44360  0.42060  0.89110  Biso   1.000  H
  H66      1.0000 0.55640  0.42060  0.60890  Biso   1.000  H
  H67      1.0000 0.94360  0.92060  0.89110  Biso   1.000  H
  H68      1.0000 0.05640  0.92060  0.60890  Biso   1.000  H
  H69      1.0000 0.55640  0.57940  0.10890  Biso   1.000  H
  H70      1.0000 0.44360  0.57940  0.39110  Biso   1.000  H
  H71      1.0000 0.05640  0.07940  0.10890  Biso   1.000  H
  H72      1.0000 0.94360  0.07940  0.39110  Biso   1.000  H
  C113     1.0000 0.43997  0.60210  0.92114  Biso   1.000  C
  C114     1.0000 0.56003  0.60210  0.57886  Biso   1.000  C
  C115     1.0000 0.93997  0.10210  0.92114  Biso   1.000  C
  C116     1.0000 0.06003  0.10210  0.57886  Biso   1.000  C
  C117     1.0000 0.56003  0.39790  0.07886  Biso   1.000  C
  C118     1.0000 0.43997  0.39790  0.42114  Biso   1.000  C
  C119     1.0000 0.06003  0.89790  0.07886  Biso   1.000  C
  C120     1.0000 0.93997  0.89790  0.42114  Biso   1.000  C
  H73      1.0000 0.47800  0.59390  0.95530  Biso   1.000  H
  H74      1.0000 0.52200  0.59390  0.54470  Biso   1.000  H
  H75      1.0000 0.97800  0.09390  0.95530  Biso   1.000  H
  H76      1.0000 0.02200  0.09390  0.54470  Biso   1.000  H
  H77      1.0000 0.52200  0.40610  0.04470  Biso   1.000  H
  H78      1.0000 0.47800  0.40610  0.45530  Biso   1.000  H
  H79      1.0000 0.02200  0.90610  0.04470  Biso   1.000  H
  H80      1.0000 0.97800  0.90610  0.45530  Biso   1.000  H
  C121     1.0000 0.40483  0.71740  0.91035  Biso   1.000  C
  C122     1.0000 0.59517  0.71740  0.58965  Biso   1.000  C
  C123     1.0000 0.90483  0.21740  0.91035  Biso   1.000  C
  C124     1.0000 0.09517  0.21740  0.58965  Biso   1.000  C
  C125     1.0000 0.59517  0.28260  0.08965  Biso   1.000  C
  C126     1.0000 0.40483  0.28260  0.41035  Biso   1.000  C
  C127     1.0000 0.09517  0.78260  0.08965  Biso   1.000  C
  C128     1.0000 0.90483  0.78260  0.41035  Biso   1.000  C
  C129     1.0000 0.34971  0.72280  0.85782  Biso   1.000  C
  C130     1.0000 0.65029  0.72280  0.64218  Biso   1.000  C
  C131     1.0000 0.84971  0.22280  0.85782  Biso   1.000  C
  C132     1.0000 0.15029  0.22280  0.64218  Biso   1.000  C
  C133     1.0000 0.65029  0.27720  0.14218  Biso   1.000  C
  C134     1.0000 0.34971  0.27720  0.35782  Biso   1.000  C
  C135     1.0000 0.15029  0.77720  0.14218  Biso   1.000  C
  C136     1.0000 0.84971  0.77720  0.35782  Biso   1.000  C
  H81      1.0000 0.32360  0.79860  0.84870  Biso   1.000  H
  H82      1.0000 0.67640  0.79860  0.65130  Biso   1.000  H
  H83      1.0000 0.82360  0.29860  0.84870  Biso   1.000  H
  H84      1.0000 0.17640  0.29860  0.65130  Biso   1.000  H
  H85      1.0000 0.67640  0.20140  0.15130  Biso   1.000  H
  H86      1.0000 0.32360  0.20140  0.34870  Biso   1.000  H
  H87      1.0000 0.17640  0.70140  0.15130  Biso   1.000  H
  H88      1.0000 0.82360  0.70140  0.34870  Biso   1.000  H
  C137     1.0000 0.33358  0.61720  0.81929  Biso   1.000  C
  C138     1.0000 0.66642  0.61720  0.68071  Biso   1.000  C
  C139     1.0000 0.83358  0.11720  0.81929  Biso   1.000  C
  C140     1.0000 0.16642  0.11720  0.68071  Biso   1.000  C
  C141     1.0000 0.66642  0.38280  0.18071  Biso   1.000  C
  C142     1.0000 0.33358  0.38280  0.31929  Biso   1.000  C
  C143     1.0000 0.16642  0.88280  0.18071  Biso   1.000  C
  C144     1.0000 0.83358  0.88280  0.31929  Biso   1.000  C
  H89      1.0000 0.29790  0.62480  0.78310  Biso   1.000  H
  H90      1.0000 0.70210  0.62480  0.71690  Biso   1.000  H
  H91      1.0000 0.79790  0.12480  0.78310  Biso   1.000  H
  H92      1.0000 0.20210  0.12480  0.71690  Biso   1.000  H
  H93      1.0000 0.70210  0.37520  0.21690  Biso   1.000  H
  H94      1.0000 0.29790  0.37520  0.28310  Biso   1.000  H
  H95      1.0000 0.20210  0.87520  0.21690  Biso   1.000  H
  H96      1.0000 0.79790  0.87520  0.28310  Biso   1.000  H
  C145     1.0000 0.51489  0.90520  0.87531  Biso   1.000  C
  C146     1.0000 0.48511  0.90520  0.62469  Biso   1.000  C
  C147     1.0000 0.01489  0.40520  0.87531  Biso   1.000  C
  C148     1.0000 0.98511  0.40520  0.62469  Biso   1.000  C
  C149     1.0000 0.48511  0.09480  0.12469  Biso   1.000  C
  C150     1.0000 0.51489  0.09480  0.37531  Biso   1.000  C
  C151     1.0000 0.98511  0.59480  0.12469  Biso   1.000  C
  C152     1.0000 0.01489  0.59480  0.37531  Biso   1.000  C
  H97      1.0000 0.49630  0.84100  0.84320  Biso   1.000  H
  H98      1.0000 0.50370  0.84100  0.65680  Biso   1.000  H
  H99      1.0000 0.99630  0.34100  0.84320  Biso   1.000  H
  H100     1.0000 0.00370  0.34100  0.65680  Biso   1.000  H
  H101     1.0000 0.50370  0.15900  0.15680  Biso   1.000  H
  H102     1.0000 0.49630  0.15900  0.34320  Biso   1.000  H
  H103     1.0000 0.00370  0.65900  0.15680  Biso   1.000  H
  H104     1.0000 0.99630  0.65900  0.34320  Biso   1.000  H
  H105     1.0000 0.55270  0.86450  0.90570  Biso   1.000  H
  H106     1.0000 0.44730  0.86450  0.59430  Biso   1.000  H
  H107     1.0000 0.05270  0.36450  0.90570  Biso   1.000  H
  H108     1.0000 0.94730  0.36450  0.59430  Biso   1.000  H
  H109     1.0000 0.44730  0.13550  0.09430  Biso   1.000  H
  H110     1.0000 0.55270  0.13550  0.40570  Biso   1.000  H
  H111     1.0000 0.94730  0.63550  0.09430  Biso   1.000  H
  H112     1.0000 0.05270  0.63550  0.40570  Biso   1.000  H
  C153     1.0000 0.45347  0.94390  0.91248  Biso   1.000  C
  C154     1.0000 0.54653  0.94390  0.58752  Biso   1.000  C
  C155     1.0000 0.95347  0.44390  0.91248  Biso   1.000  C
  C156     1.0000 0.04653  0.44390  0.58752  Biso   1.000  C
  C157     1.0000 0.54653  0.05610  0.08752  Biso   1.000  C
  C158     1.0000 0.45347  0.05610  0.41248  Biso   1.000  C
  C159     1.0000 0.04653  0.55610  0.08752  Biso   1.000  C
  C160     1.0000 0.95347  0.55610  0.41248  Biso   1.000  C
  H113     1.0000 0.41290  0.97570  0.88190  Biso   1.000  H
  H114     1.0000 0.58710  0.97570  0.61810  Biso   1.000  H
  H115     1.0000 0.91290  0.47570  0.88190  Biso   1.000  H
  H116     1.0000 0.08710  0.47570  0.61810  Biso   1.000  H
  H117     1.0000 0.58710  0.02430  0.11810  Biso   1.000  H
  H118     1.0000 0.41290  0.02430  0.38190  Biso   1.000  H
  H119     1.0000 0.08710  0.52430  0.11810  Biso   1.000  H
  H120     1.0000 0.91290  0.52430  0.38190  Biso   1.000  H
  H121     1.0000 0.47010  0.01340  0.94210  Biso   1.000  H
  H122     1.0000 0.52990  0.01340  0.55790  Biso   1.000  H
  H123     1.0000 0.97010  0.51340  0.94210  Biso   1.000  H
  H124     1.0000 0.02990  0.51340  0.55790  Biso   1.000  H
  H125     1.0000 0.52990  0.98660  0.05790  Biso   1.000  H
  H126     1.0000 0.47010  0.98660  0.44210  Biso   1.000  H
  H127     1.0000 0.02990  0.48660  0.05790  Biso   1.000  H
  H128     1.0000 0.97010  0.48660  0.44210  Biso   1.000  H
  C161     1.0000 0.42630  0.83320  0.95191  Biso   1.000  C
  C162     1.0000 0.57370  0.83320  0.54809  Biso   1.000  C
  C163     1.0000 0.92630  0.33320  0.95191  Biso   1.000  C
  C164     1.0000 0.07370  0.33320  0.54809  Biso   1.000  C
  C165     1.0000 0.57370  0.16680  0.04809  Biso   1.000  C
  C166     1.0000 0.42630  0.16680  0.45191  Biso   1.000  C
  C167     1.0000 0.07370  0.66680  0.04809  Biso   1.000  C
  C168     1.0000 0.92630  0.66680  0.45191  Biso   1.000  C
  H129     1.0000 0.46480  0.80940  0.98660  Biso   1.000  H
  H130     1.0000 0.53520  0.80940  0.51340  Biso   1.000  H
  H131     1.0000 0.96480  0.30940  0.98660  Biso   1.000  H
  H132     1.0000 0.03520  0.30940  0.51340  Biso   1.000  H
  H133     1.0000 0.53520  0.19060  0.01340  Biso   1.000  H
  H134     1.0000 0.46480  0.19060  0.48660  Biso   1.000  H
  H135     1.0000 0.03520  0.69060  0.01340  Biso   1.000  H
  H136     1.0000 0.96480  0.69060  0.48660  Biso   1.000  H
  H137     1.0000 0.38420  0.86180  0.97220  Biso   1.000  H
  H138     1.0000 0.61580  0.86180  0.52780  Biso   1.000  H
  H139     1.0000 0.88420  0.36180  0.97220  Biso   1.000  H
  H140     1.0000 0.11580  0.36180  0.52780  Biso   1.000  H
  H141     1.0000 0.61580  0.13820  0.02780  Biso   1.000  H
  H142     1.0000 0.38420  0.13820  0.47220  Biso   1.000  H
  H143     1.0000 0.11580  0.63820  0.02780  Biso   1.000  H
  H144     1.0000 0.88420  0.63820  0.47220  Biso   1.000  H
  F9       1.0000 0.63770  0.23370  0.51360  Biso   1.000  F
  F10      1.0000 0.36230  0.23370  0.98640  Biso   1.000  F
  F11      1.0000 0.13770  0.73370  0.51360  Biso   1.000  F
  F12      1.0000 0.86230  0.73370  0.98640  Biso   1.000  F
  F13      1.0000 0.36230  0.76630  0.48640  Biso   1.000  F
  F14      1.0000 0.63770  0.76630  0.01360  Biso   1.000  F
  F15      1.0000 0.86230  0.26630  0.48640  Biso   1.000  F
  F16      1.0000 0.13770  0.26630  0.01360  Biso   1.000  F
  H145     1.0000 0.83140  0.89310  0.54800  Biso   1.000  H
  H146     1.0000 0.16860  0.89310  0.95200  Biso   1.000  H
  H147     1.0000 0.33140  0.39310  0.54800  Biso   1.000  H
  H148     1.0000 0.66860  0.39310  0.95200  Biso   1.000  H
  H149     1.0000 0.16860  0.10690  0.45200  Biso   1.000  H
  H150     1.0000 0.83140  0.10690  0.04800  Biso   1.000  H
  H151     1.0000 0.66860  0.60690  0.45200  Biso   1.000  H
  H152     1.0000 0.33140  0.60690  0.04800  Biso   1.000  H
