data_image0
_cell_length_a       8.7183
_cell_length_b       14.0994
_cell_length_c       16.9212
_cell_angle_alpha    90
_cell_angle_beta     100.9
_cell_angle_gamma    90

_symmetry_space_group_name_H-M    "P 1"
_symmetry_int_tables_number       1

loop_
  _symmetry_equiv_pos_as_xyz
  'x, y, z'

loop_
  _atom_site_label
  _atom_site_occupancy
  _atom_site_fract_x
  _atom_site_fract_y
  _atom_site_fract_z
  _atom_site_thermal_displace_type
  _atom_site_B_iso_or_equiv
  _atom_site_type_symbol
  Cu1      1.0000 0.05618  0.23162  0.39480  Biso   1.000  Cu
  Cu2      1.0000 0.94382  0.73162  0.10520  Biso   1.000  Cu
  Cu3      1.0000 0.94382  0.76838  0.60520  Biso   1.000  Cu
  Cu4      1.0000 0.05618  0.26838  0.89480  Biso   1.000  Cu
  Cu5      1.0000 0.00000  0.50000  0.50000  Biso   1.000  Cu
  Cu6      1.0000 0.00000  0.00000  0.00000  Biso   1.000  Cu
  S1       1.0000 0.25049  0.38202  0.26916  Biso   1.000  S
  S2       1.0000 0.74951  0.88202  0.23084  Biso   1.000  S
  S3       1.0000 0.74951  0.61798  0.73084  Biso   1.000  S
  S4       1.0000 0.25049  0.11798  0.76916  Biso   1.000  S
  N1       1.0000 0.26900  0.25420  0.46250  Biso   1.000  N
  N2       1.0000 0.73100  0.75420  0.03750  Biso   1.000  N
  N3       1.0000 0.73100  0.74580  0.53750  Biso   1.000  N
  N4       1.0000 0.26900  0.24580  0.96250  Biso   1.000  N
  N5       1.0000 0.16030  0.11350  0.36580  Biso   1.000  N
  N6       1.0000 0.83970  0.61350  0.13420  Biso   1.000  N
  N7       1.0000 0.83970  0.88650  0.63420  Biso   1.000  N
  N8       1.0000 0.16030  0.38650  0.86580  Biso   1.000  N
  O1       1.0000 0.96490  0.34000  0.43758  Biso   1.000  O
  O2       1.0000 0.03510  0.84000  0.06242  Biso   1.000  O
  O3       1.0000 0.03510  0.66000  0.56242  Biso   1.000  O
  O4       1.0000 0.96490  0.16000  0.93758  Biso   1.000  O
  O5       1.0000 0.79830  0.45370  0.44410  Biso   1.000  O
  O6       1.0000 0.20170  0.95370  0.05590  Biso   1.000  O
  O7       1.0000 0.20170  0.54630  0.55590  Biso   1.000  O
  O8       1.0000 0.79830  0.04630  0.94410  Biso   1.000  O
  O9       1.0000 0.86500  0.19540  0.32950  Biso   1.000  O
  O10      1.0000 0.13500  0.69540  0.17050  Biso   1.000  O
  O11      1.0000 0.13500  0.80460  0.67050  Biso   1.000  O
  O12      1.0000 0.86500  0.30460  0.82950  Biso   1.000  O
  O13      1.0000 0.13540  0.31420  0.28540  Biso   1.000  O
  O14      1.0000 0.86460  0.81420  0.21460  Biso   1.000  O
  O15      1.0000 0.86460  0.68580  0.71460  Biso   1.000  O
  O16      1.0000 0.13540  0.18580  0.78540  Biso   1.000  O
  O17      1.0000 0.22680  0.40500  0.18550  Biso   1.000  O
  O18      1.0000 0.77320  0.90500  0.31450  Biso   1.000  O
  O19      1.0000 0.77320  0.59500  0.81450  Biso   1.000  O
  O20      1.0000 0.22680  0.09500  0.68550  Biso   1.000  O
  O21      1.0000 0.26010  0.46400  0.32080  Biso   1.000  O
  O22      1.0000 0.73990  0.96400  0.17920  Biso   1.000  O
  O23      1.0000 0.73990  0.53600  0.67920  Biso   1.000  O
  O24      1.0000 0.26010  0.03600  0.82080  Biso   1.000  O
  O25      1.0000 0.04510  0.54160  0.39640  Biso   1.000  O
  O26      1.0000 0.95490  0.04160  0.10360  Biso   1.000  O
  O27      1.0000 0.95490  0.45840  0.60360  Biso   1.000  O
  O28      1.0000 0.04510  0.95840  0.89640  Biso   1.000  O
  O29      1.0000 0.02500  0.73130  0.36380  Biso   1.000  O
  O30      1.0000 0.97500  0.23130  0.13620  Biso   1.000  O
  O31      1.0000 0.97500  0.26870  0.63620  Biso   1.000  O
  O32      1.0000 0.02500  0.76870  0.86380  Biso   1.000  O
  O33      1.0000 0.06300  0.71360  0.33350  Biso   1.000  O
  O34      1.0000 0.93700  0.21360  0.16650  Biso   1.000  O
  O35      1.0000 0.93700  0.28640  0.66650  Biso   1.000  O
  O36      1.0000 0.06300  0.78640  0.83350  Biso   1.000  O
  O37      1.0000 0.03800  0.43300  0.03410  Biso   1.000  O
  O38      1.0000 0.96200  0.93300  0.46590  Biso   1.000  O
  O39      1.0000 0.96200  0.56700  0.96590  Biso   1.000  O
  O40      1.0000 0.03800  0.06700  0.53410  Biso   1.000  O
  O41      1.0000 0.03510  0.38400  0.03770  Biso   1.000  O
  O42      1.0000 0.96490  0.88400  0.46230  Biso   1.000  O
  O43      1.0000 0.96490  0.61600  0.96230  Biso   1.000  O
  O44      1.0000 0.03510  0.11600  0.53770  Biso   1.000  O
  C1       1.0000 0.32310  0.32650  0.51030  Biso   1.000  C
  C2       1.0000 0.67690  0.82650  0.98970  Biso   1.000  C
  C3       1.0000 0.67690  0.67350  0.48970  Biso   1.000  C
  C4       1.0000 0.32310  0.17350  0.01030  Biso   1.000  C
  H1       1.0000 0.25420  0.37430  0.51840  Biso   1.000  H
  H2       1.0000 0.74580  0.87430  0.98160  Biso   1.000  H
  H3       1.0000 0.74580  0.62570  0.48160  Biso   1.000  H
  H4       1.0000 0.25420  0.12570  0.01840  Biso   1.000  H
  C5       1.0000 0.47990  0.33350  0.54880  Biso   1.000  C
  C6       1.0000 0.52010  0.83350  0.95120  Biso   1.000  C
  C7       1.0000 0.52010  0.66650  0.45120  Biso   1.000  C
  C8       1.0000 0.47990  0.16650  0.04880  Biso   1.000  C
  H5       1.0000 0.51400  0.38540  0.58130  Biso   1.000  H
  H6       1.0000 0.48600  0.88540  0.91870  Biso   1.000  H
  H7       1.0000 0.48600  0.61460  0.41870  Biso   1.000  H
  H8       1.0000 0.51400  0.11460  0.08130  Biso   1.000  H
  C9       1.0000 0.58230  0.26330  0.53820  Biso   1.000  C
  C10      1.0000 0.41770  0.76330  0.96180  Biso   1.000  C
  C11      1.0000 0.41770  0.73670  0.46180  Biso   1.000  C
  C12      1.0000 0.58230  0.23670  0.03820  Biso   1.000  C
  H9       1.0000 0.68600  0.26660  0.56450  Biso   1.000  H
  H10      1.0000 0.31400  0.76660  0.93550  Biso   1.000  H
  H11      1.0000 0.31400  0.73340  0.43550  Biso   1.000  H
  H12      1.0000 0.68600  0.23340  0.06450  Biso   1.000  H
  C13      1.0000 0.53090  0.18600  0.48750  Biso   1.000  C
  C14      1.0000 0.46910  0.68600  0.01250  Biso   1.000  C
  C15      1.0000 0.46910  0.81400  0.51250  Biso   1.000  C
  C16      1.0000 0.53090  0.31400  0.98750  Biso   1.000  C
  C17      1.0000 0.62770  0.11070  0.46810  Biso   1.000  C
  C18      1.0000 0.37230  0.61070  0.03190  Biso   1.000  C
  C19      1.0000 0.37230  0.88930  0.53190  Biso   1.000  C
  C20      1.0000 0.62770  0.38930  0.96810  Biso   1.000  C
  H13      1.0000 0.73350  0.11100  0.49080  Biso   1.000  H
  H14      1.0000 0.26650  0.61100  0.00920  Biso   1.000  H
  H15      1.0000 0.26650  0.88900  0.50920  Biso   1.000  H
  H16      1.0000 0.73350  0.38900  0.99080  Biso   1.000  H
  C21      1.0000 0.57090  0.04000  0.41840  Biso   1.000  C
  C22      1.0000 0.42910  0.54000  0.08160  Biso   1.000  C
  C23      1.0000 0.42910  0.96000  0.58160  Biso   1.000  C
  C24      1.0000 0.57090  0.46000  0.91840  Biso   1.000  C
  H17      1.0000 0.63760  0.99230  0.40750  Biso   1.000  H
  H18      1.0000 0.36240  0.49230  0.09250  Biso   1.000  H
  H19      1.0000 0.36240  0.00770  0.59250  Biso   1.000  H
  H20      1.0000 0.63760  0.50770  0.90750  Biso   1.000  H
  C25      1.0000 0.41130  0.03680  0.38240  Biso   1.000  C
  C26      1.0000 0.58870  0.53680  0.11760  Biso   1.000  C
  C27      1.0000 0.58870  0.96320  0.61760  Biso   1.000  C
  C28      1.0000 0.41130  0.46320  0.88240  Biso   1.000  C
  C29      1.0000 0.34280  0.96410  0.33000  Biso   1.000  C
  C30      1.0000 0.65720  0.46410  0.17000  Biso   1.000  C
  C31      1.0000 0.65720  0.03590  0.67000  Biso   1.000  C
  C32      1.0000 0.34280  0.53590  0.83000  Biso   1.000  C
  H21      1.0000 0.40330  0.91390  0.31770  Biso   1.000  H
  H22      1.0000 0.59670  0.41390  0.18230  Biso   1.000  H
  H23      1.0000 0.59670  0.08610  0.68230  Biso   1.000  H
  H24      1.0000 0.40330  0.58610  0.81770  Biso   1.000  H
  C33      1.0000 0.18830  0.96800  0.29790  Biso   1.000  C
  C34      1.0000 0.81170  0.46800  0.20210  Biso   1.000  C
  C35      1.0000 0.81170  0.03200  0.70210  Biso   1.000  C
  C36      1.0000 0.18830  0.53200  0.79790  Biso   1.000  C
  H25      1.0000 0.14220  0.92030  0.26350  Biso   1.000  H
  H26      1.0000 0.85780  0.42030  0.23650  Biso   1.000  H
  H27      1.0000 0.85780  0.07970  0.73650  Biso   1.000  H
  H28      1.0000 0.14220  0.57970  0.76350  Biso   1.000  H
  C37      1.0000 0.09770  0.04440  0.31690  Biso   1.000  C
  C38      1.0000 0.90230  0.54440  0.18310  Biso   1.000  C
  C39      1.0000 0.90230  0.95560  0.68310  Biso   1.000  C
  C40      1.0000 0.09770  0.45560  0.81690  Biso   1.000  C
  H29      1.0000 0.99170  0.04640  0.29470  Biso   1.000  H
  H30      1.0000 0.00830  0.54640  0.20530  Biso   1.000  H
  H31      1.0000 0.00830  0.95360  0.70530  Biso   1.000  H
  H32      1.0000 0.99170  0.45360  0.79470  Biso   1.000  H
  C41      1.0000 0.37310  0.18470  0.45090  Biso   1.000  C
  C42      1.0000 0.62690  0.68470  0.04910  Biso   1.000  C
  C43      1.0000 0.62690  0.81530  0.54910  Biso   1.000  C
  C44      1.0000 0.37310  0.31530  0.95090  Biso   1.000  C
  C45      1.0000 0.31350  0.11020  0.39790  Biso   1.000  C
  C46      1.0000 0.68650  0.61020  0.10210  Biso   1.000  C
  C47      1.0000 0.68650  0.88980  0.60210  Biso   1.000  C
  C48      1.0000 0.31350  0.38980  0.89790  Biso   1.000  C
  C49      1.0000 0.82900  0.37400  0.41590  Biso   1.000  C
  C50      1.0000 0.17100  0.87400  0.08410  Biso   1.000  C
  C51      1.0000 0.17100  0.62600  0.58410  Biso   1.000  C
  C52      1.0000 0.82900  0.12600  0.91590  Biso   1.000  C
  C53      1.0000 0.70550  0.32530  0.35970  Biso   1.000  C
  C54      1.0000 0.29450  0.82530  0.14030  Biso   1.000  C
  C55      1.0000 0.29450  0.67470  0.64030  Biso   1.000  C
  C56      1.0000 0.70550  0.17470  0.85970  Biso   1.000  C
  C57      1.0000 0.73230  0.23950  0.32080  Biso   1.000  C
  C58      1.0000 0.26770  0.73950  0.17920  Biso   1.000  C
  C59      1.0000 0.26770  0.76050  0.67920  Biso   1.000  C
  C60      1.0000 0.73230  0.26050  0.82080  Biso   1.000  C
  C61      1.0000 0.60220  0.19850  0.26810  Biso   1.000  C
  C62      1.0000 0.39780  0.69850  0.23190  Biso   1.000  C
  C63      1.0000 0.39780  0.80150  0.73190  Biso   1.000  C
  C64      1.0000 0.60220  0.30150  0.76810  Biso   1.000  C
  H33      1.0000 0.61570  0.14180  0.24220  Biso   1.000  H
  H34      1.0000 0.38430  0.64180  0.25780  Biso   1.000  H
  H35      1.0000 0.38430  0.85820  0.75780  Biso   1.000  H
  H36      1.0000 0.61570  0.35820  0.74220  Biso   1.000  H
  C65      1.0000 0.45780  0.24050  0.25460  Biso   1.000  C
  C66      1.0000 0.54220  0.74050  0.24540  Biso   1.000  C
  C67      1.0000 0.54220  0.75950  0.74540  Biso   1.000  C
  C68      1.0000 0.45780  0.25950  0.75460  Biso   1.000  C
  H37      1.0000 0.37530  0.21180  0.22000  Biso   1.000  H
  H38      1.0000 0.62470  0.71180  0.28000  Biso   1.000  H
  H39      1.0000 0.62470  0.78820  0.78000  Biso   1.000  H
  H40      1.0000 0.37530  0.28820  0.72000  Biso   1.000  H
  C69      1.0000 0.43330  0.32620  0.29220  Biso   1.000  C
  C70      1.0000 0.56670  0.82620  0.20780  Biso   1.000  C
  C71      1.0000 0.56670  0.67380  0.70780  Biso   1.000  C
  C72      1.0000 0.43330  0.17380  0.79220  Biso   1.000  C
  C73      1.0000 0.55640  0.36670  0.34360  Biso   1.000  C
  C74      1.0000 0.44360  0.86670  0.15640  Biso   1.000  C
  C75      1.0000 0.44360  0.63330  0.65640  Biso   1.000  C
  C76      1.0000 0.55640  0.13330  0.84360  Biso   1.000  C
  H41      1.0000 0.54060  0.42370  0.36860  Biso   1.000  H
  H42      1.0000 0.45940  0.92370  0.13140  Biso   1.000  H
  H43      1.0000 0.45940  0.57630  0.63140  Biso   1.000  H
  H44      1.0000 0.54060  0.07630  0.86860  Biso   1.000  H
  H45      1.0000 0.12000  0.51500  0.38000  Biso   1.000  H
  H46      1.0000 0.88000  0.01500  0.12000  Biso   1.000  H
  H47      1.0000 0.88000  0.48500  0.62000  Biso   1.000  H
  H48      1.0000 0.12000  0.98500  0.88000  Biso   1.000  H
  H49      1.0000 0.03500  0.59850  0.38140  Biso   1.000  H
  H50      1.0000 0.96500  0.09850  0.11860  Biso   1.000  H
  H51      1.0000 0.96500  0.40150  0.61860  Biso   1.000  H
  H52      1.0000 0.03500  0.90150  0.88140  Biso   1.000  H
