data_image0
_cell_length_a       21.624
_cell_length_b       7.293
_cell_length_c       18.872
_cell_angle_alpha    90
_cell_angle_beta     105.43
_cell_angle_gamma    90

_symmetry_space_group_name_H-M    "P 1"
_symmetry_int_tables_number       1

loop_
  _symmetry_equiv_pos_as_xyz
  'x, y, z'

loop_
  _atom_site_label
  _atom_site_occupancy
  _atom_site_fract_x
  _atom_site_fract_y
  _atom_site_fract_z
  _atom_site_thermal_displace_type
  _atom_site_B_iso_or_equiv
  _atom_site_type_symbol
  Cu1      1.0000 0.13380  0.13920  0.47780  Biso   1.000  Cu
  Cu2      1.0000 0.86620  0.63920  0.02220  Biso   1.000  Cu
  Cu3      1.0000 0.86620  0.86080  0.52220  Biso   1.000  Cu
  Cu4      1.0000 0.13380  0.36080  0.97780  Biso   1.000  Cu
  Cu5      1.0000 0.01070  0.90110  0.25080  Biso   1.000  Cu
  Cu6      1.0000 0.98930  0.40110  0.24920  Biso   1.000  Cu
  Cu7      1.0000 0.98930  0.09890  0.74920  Biso   1.000  Cu
  Cu8      1.0000 0.01070  0.59890  0.75080  Biso   1.000  Cu
  O1       1.0000 0.15140  0.34230  0.41920  Biso   1.000  O
  O2       1.0000 0.84860  0.84230  0.08080  Biso   1.000  O
  O3       1.0000 0.84860  0.65770  0.58080  Biso   1.000  O
  O4       1.0000 0.15140  0.15770  0.91920  Biso   1.000  O
  O5       1.0000 0.12900  0.94350  0.54450  Biso   1.000  O
  O6       1.0000 0.87100  0.44350  0.95550  Biso   1.000  O
  O7       1.0000 0.87100  0.05650  0.45550  Biso   1.000  O
  O8       1.0000 0.12900  0.55650  0.04450  Biso   1.000  O
  O9       1.0000 0.00380  0.15140  0.25840  Biso   1.000  O
  O10      1.0000 0.99620  0.65140  0.24160  Biso   1.000  O
  O11      1.0000 0.99620  0.84860  0.74160  Biso   1.000  O
  O12      1.0000 0.00380  0.34860  0.75840  Biso   1.000  O
  O13      1.0000 0.02240  0.19980  0.48080  Biso   1.000  O
  O14      1.0000 0.97760  0.69980  0.01920  Biso   1.000  O
  O15      1.0000 0.97760  0.80020  0.51920  Biso   1.000  O
  O16      1.0000 0.02240  0.30020  0.98080  Biso   1.000  O
  O17      1.0000 0.02380  0.23410  0.44220  Biso   1.000  O
  O18      1.0000 0.97620  0.73410  0.05780  Biso   1.000  O
  O19      1.0000 0.97620  0.76590  0.55780  Biso   1.000  O
  O20      1.0000 0.02380  0.26590  0.94220  Biso   1.000  O
  O21      1.0000 0.00450  0.28570  0.08260  Biso   1.000  O
  O22      1.0000 0.99550  0.78570  0.41740  Biso   1.000  O
  O23      1.0000 0.99550  0.71430  0.91740  Biso   1.000  O
  O24      1.0000 0.00450  0.21430  0.58260  Biso   1.000  O
  O25      1.0000 0.00150  0.09810  0.10040  Biso   1.000  O
  O26      1.0000 0.99850  0.59810  0.39960  Biso   1.000  O
  O27      1.0000 0.99850  0.90190  0.89960  Biso   1.000  O
  O28      1.0000 0.00150  0.40190  0.60040  Biso   1.000  O
  O29      1.0000 0.01280  0.93660  0.13390  Biso   1.000  O
  O30      1.0000 0.98720  0.43660  0.36610  Biso   1.000  O
  O31      1.0000 0.98720  0.06340  0.86610  Biso   1.000  O
  O32      1.0000 0.01280  0.56340  0.63390  Biso   1.000  O
  C1       1.0000 0.29170  0.98800  0.48640  Biso   1.000  C
  C2       1.0000 0.70830  0.48800  0.01360  Biso   1.000  C
  C3       1.0000 0.70830  0.01200  0.51360  Biso   1.000  C
  C4       1.0000 0.29170  0.51200  0.98640  Biso   1.000  C
  C5       1.0000 0.30210  0.07450  0.55450  Biso   1.000  C
  C6       1.0000 0.69790  0.57450  0.94550  Biso   1.000  C
  C7       1.0000 0.69790  0.92550  0.44550  Biso   1.000  C
  C8       1.0000 0.30210  0.42550  0.05450  Biso   1.000  C
  C9       1.0000 0.37050  0.09370  0.59420  Biso   1.000  C
  C10      1.0000 0.62950  0.59370  0.90580  Biso   1.000  C
  C11      1.0000 0.62950  0.90630  0.40580  Biso   1.000  C
  C12      1.0000 0.37050  0.40630  0.09420  Biso   1.000  C
  C13      1.0000 0.41420  0.02850  0.56510  Biso   1.000  C
  C14      1.0000 0.58580  0.52850  0.93490  Biso   1.000  C
  C15      1.0000 0.58580  0.97150  0.43490  Biso   1.000  C
  C16      1.0000 0.41420  0.47150  0.06510  Biso   1.000  C
  F1       1.0000 0.47930  0.04660  0.59940  Biso   1.000  F
  F2       1.0000 0.52070  0.54660  0.90060  Biso   1.000  F
  F3       1.0000 0.52070  0.95340  0.40060  Biso   1.000  F
  F4       1.0000 0.47930  0.45340  0.09940  Biso   1.000  F
  C17      1.0000 0.40050  0.94160  0.49450  Biso   1.000  C
  C18      1.0000 0.59950  0.44160  0.00550  Biso   1.000  C
  C19      1.0000 0.59950  0.05840  0.50550  Biso   1.000  C
  C20      1.0000 0.40050  0.55840  0.99450  Biso   1.000  C
  C21      1.0000 0.33490  0.91950  0.45540  Biso   1.000  C
  C22      1.0000 0.66510  0.41950  0.04460  Biso   1.000  C
  C23      1.0000 0.66510  0.08050  0.54460  Biso   1.000  C
  C24      1.0000 0.33490  0.58050  0.95540  Biso   1.000  C
  O33      1.0000 0.22490  0.97570  0.44970  Biso   1.000  O
  O34      1.0000 0.77510  0.47570  0.05030  Biso   1.000  O
  O35      1.0000 0.77510  0.02430  0.55030  Biso   1.000  O
  O36      1.0000 0.22490  0.52430  0.94970  Biso   1.000  O
  C25      1.0000 0.20640  0.91340  0.37460  Biso   1.000  C
  C26      1.0000 0.79360  0.41340  0.12540  Biso   1.000  C
  C27      1.0000 0.79360  0.08660  0.62540  Biso   1.000  C
  C28      1.0000 0.20640  0.58660  0.87460  Biso   1.000  C
  C29      1.0000 0.13250  0.91820  0.35080  Biso   1.000  C
  C30      1.0000 0.86750  0.41820  0.14920  Biso   1.000  C
  C31      1.0000 0.86750  0.08180  0.64920  Biso   1.000  C
  C32      1.0000 0.13250  0.58180  0.85080  Biso   1.000  C
  O37      1.0000 0.10720  0.85270  0.28770  Biso   1.000  O
  O38      1.0000 0.89280  0.35270  0.21230  Biso   1.000  O
  O39      1.0000 0.89280  0.14730  0.71230  Biso   1.000  O
  O40      1.0000 0.10720  0.64730  0.78770  Biso   1.000  O
  O41      1.0000 0.10310  0.98440  0.39060  Biso   1.000  O
  O42      1.0000 0.89690  0.48440  0.10940  Biso   1.000  O
  O43      1.0000 0.89690  0.01560  0.60940  Biso   1.000  O
  O44      1.0000 0.10310  0.51560  0.89060  Biso   1.000  O
  C33      1.0000 0.28500  0.48200  0.69590  Biso   1.000  C
  C34      1.0000 0.71500  0.98200  0.80410  Biso   1.000  C
  C35      1.0000 0.71500  0.51800  0.30410  Biso   1.000  C
  C36      1.0000 0.28500  0.01800  0.19590  Biso   1.000  C
  C37      1.0000 0.30190  0.56800  0.63810  Biso   1.000  C
  C38      1.0000 0.69810  0.06800  0.86190  Biso   1.000  C
  C39      1.0000 0.69810  0.43200  0.36190  Biso   1.000  C
  C40      1.0000 0.30190  0.93200  0.13810  Biso   1.000  C
  C41      1.0000 0.36800  0.59830  0.64120  Biso   1.000  C
  C42      1.0000 0.63200  0.09830  0.85880  Biso   1.000  C
  C43      1.0000 0.63200  0.40170  0.35880  Biso   1.000  C
  C44      1.0000 0.36800  0.90170  0.14120  Biso   1.000  C
  C45      1.0000 0.41290  0.53990  0.70730  Biso   1.000  C
  C46      1.0000 0.58710  0.03990  0.79270  Biso   1.000  C
  C47      1.0000 0.58710  0.46010  0.29270  Biso   1.000  C
  C48      1.0000 0.41290  0.96010  0.20730  Biso   1.000  C
  F5       1.0000 0.47680  0.58060  0.70790  Biso   1.000  F
  F6       1.0000 0.52320  0.08060  0.79210  Biso   1.000  F
  F7       1.0000 0.52320  0.41940  0.29210  Biso   1.000  F
  F8       1.0000 0.47680  0.91940  0.20790  Biso   1.000  F
  C49      1.0000 0.39680  0.44110  0.76200  Biso   1.000  C
  C50      1.0000 0.60320  0.94110  0.73800  Biso   1.000  C
  C51      1.0000 0.60320  0.55890  0.23800  Biso   1.000  C
  C52      1.0000 0.39680  0.05890  0.26200  Biso   1.000  C
  C53      1.0000 0.32890  0.41560  0.75960  Biso   1.000  C
  C54      1.0000 0.67110  0.91560  0.74040  Biso   1.000  C
  C55      1.0000 0.67110  0.58440  0.24040  Biso   1.000  C
  C56      1.0000 0.32890  0.08440  0.25960  Biso   1.000  C
  O45      1.0000 0.22160  0.44660  0.69820  Biso   1.000  O
  O46      1.0000 0.77840  0.94660  0.80180  Biso   1.000  O
  O47      1.0000 0.77840  0.55340  0.30180  Biso   1.000  O
  O48      1.0000 0.22160  0.05340  0.19820  Biso   1.000  O
  C57      1.0000 0.17240  0.54590  0.64830  Biso   1.000  C
  C58      1.0000 0.82760  0.04590  0.85170  Biso   1.000  C
  C59      1.0000 0.82760  0.45410  0.35170  Biso   1.000  C
  C60      1.0000 0.17240  0.95410  0.14830  Biso   1.000  C
  C61      1.0000 0.15620  0.46370  0.57040  Biso   1.000  C
  C62      1.0000 0.84380  0.96370  0.92960  Biso   1.000  C
  C63      1.0000 0.84380  0.53630  0.42960  Biso   1.000  C
  C64      1.0000 0.15620  0.03630  0.07040  Biso   1.000  C
  O49      1.0000 0.13460  0.56720  0.52100  Biso   1.000  O
  O50      1.0000 0.86540  0.06720  0.97900  Biso   1.000  O
  O51      1.0000 0.86540  0.43280  0.47900  Biso   1.000  O
  O52      1.0000 0.13460  0.93280  0.02100  Biso   1.000  O
  O53      1.0000 0.16350  0.29370  0.56450  Biso   1.000  O
  O54      1.0000 0.83650  0.79370  0.93550  Biso   1.000  O
  O55      1.0000 0.83650  0.70630  0.43550  Biso   1.000  O
  O56      1.0000 0.16350  0.20630  0.06450  Biso   1.000  O
  C65      1.0000 0.70940  0.97890  0.16600  Biso   1.000  C
  C66      1.0000 0.29060  0.47890  0.33400  Biso   1.000  C
  C67      1.0000 0.29060  0.02110  0.83400  Biso   1.000  C
  C68      1.0000 0.70940  0.52110  0.66600  Biso   1.000  C
  C69      1.0000 0.66870  0.05100  0.20710  Biso   1.000  C
  C70      1.0000 0.33130  0.55100  0.29290  Biso   1.000  C
  C71      1.0000 0.33130  0.94900  0.79290  Biso   1.000  C
  C72      1.0000 0.66870  0.44900  0.70710  Biso   1.000  C
  C73      1.0000 0.60830  0.07340  0.17480  Biso   1.000  C
  C74      1.0000 0.39170  0.57340  0.32520  Biso   1.000  C
  C75      1.0000 0.39170  0.92660  0.82520  Biso   1.000  C
  C76      1.0000 0.60830  0.42660  0.67480  Biso   1.000  C
  C77      1.0000 0.58320  0.02740  0.10320  Biso   1.000  C
  C78      1.0000 0.41680  0.52740  0.39680  Biso   1.000  C
  C79      1.0000 0.41680  0.97260  0.89680  Biso   1.000  C
  C80      1.0000 0.58320  0.47260  0.60320  Biso   1.000  C
  F9       1.0000 0.51780  0.05100  0.08130  Biso   1.000  F
  F10      1.0000 0.48220  0.55100  0.41870  Biso   1.000  F
  F11      1.0000 0.48220  0.94900  0.91870  Biso   1.000  F
  F12      1.0000 0.51780  0.44900  0.58130  Biso   1.000  F
  C81      1.0000 0.61740  0.93940  0.06170  Biso   1.000  C
  C82      1.0000 0.38260  0.43940  0.43830  Biso   1.000  C
  C83      1.0000 0.38260  0.06060  0.93830  Biso   1.000  C
  C84      1.0000 0.61740  0.56060  0.56170  Biso   1.000  C
  C85      1.0000 0.68140  0.92660  0.09090  Biso   1.000  C
  C86      1.0000 0.31860  0.42660  0.40910  Biso   1.000  C
  C87      1.0000 0.31860  0.07340  0.90910  Biso   1.000  C
  C88      1.0000 0.68140  0.57340  0.59090  Biso   1.000  C
  O57      1.0000 0.77300  0.94560  0.18750  Biso   1.000  O
  O58      1.0000 0.22700  0.44560  0.31250  Biso   1.000  O
  O59      1.0000 0.22700  0.05440  0.81250  Biso   1.000  O
  O60      1.0000 0.77300  0.55440  0.68750  Biso   1.000  O
  C89      1.0000 0.80380  0.98460  0.25980  Biso   1.000  C
  C90      1.0000 0.19620  0.48460  0.24020  Biso   1.000  C
  C91      1.0000 0.19620  0.01540  0.74020  Biso   1.000  C
  C92      1.0000 0.80380  0.51540  0.75980  Biso   1.000  C
  C93      1.0000 0.87330  0.94260  0.27850  Biso   1.000  C
  C94      1.0000 0.12670  0.44260  0.22150  Biso   1.000  C
  C95      1.0000 0.12670  0.05740  0.72150  Biso   1.000  C
  C96      1.0000 0.87330  0.55740  0.77850  Biso   1.000  C
  O61      1.0000 0.91010  0.99020  0.33910  Biso   1.000  O
  O62      1.0000 0.08990  0.49020  0.16090  Biso   1.000  O
  O63      1.0000 0.08990  0.00980  0.66090  Biso   1.000  O
  O64      1.0000 0.91010  0.50980  0.83910  Biso   1.000  O
  O65      1.0000 0.89740  0.87090  0.22750  Biso   1.000  O
  O66      1.0000 0.10260  0.37090  0.27250  Biso   1.000  O
  O67      1.0000 0.10260  0.12910  0.77250  Biso   1.000  O
  O68      1.0000 0.89740  0.62910  0.72750  Biso   1.000  O
