data_image0
_cell_length_a       6.3252
_cell_length_b       7.4324
_cell_length_c       22.3233
_cell_angle_alpha    90
_cell_angle_beta     90
_cell_angle_gamma    90

_symmetry_space_group_name_H-M    "P 1"
_symmetry_int_tables_number       1

loop_
  _symmetry_equiv_pos_as_xyz
  'x, y, z'

loop_
  _atom_site_label
  _atom_site_occupancy
  _atom_site_fract_x
  _atom_site_fract_y
  _atom_site_fract_z
  _atom_site_thermal_displace_type
  _atom_site_B_iso_or_equiv
  _atom_site_type_symbol
  Cu1      1.0000 0.39703  0.75313  0.00149  Biso   1.000  Cu
  Cu2      1.0000 0.10297  0.24687  0.50149  Biso   1.000  Cu
  Cu3      1.0000 0.89703  0.74687  0.99851  Biso   1.000  Cu
  Cu4      1.0000 0.60297  0.25313  0.49851  Biso   1.000  Cu
  O1       1.0000 0.32590  0.60100  0.93331  Biso   1.000  O
  O2       1.0000 0.17410  0.39900  0.43331  Biso   1.000  O
  O3       1.0000 0.82590  0.89900  0.06669  Biso   1.000  O
  O4       1.0000 0.67410  0.10100  0.56669  Biso   1.000  O
  O5       1.0000 0.97100  0.59430  0.93072  Biso   1.000  O
  O6       1.0000 0.52900  0.40570  0.43072  Biso   1.000  O
  O7       1.0000 0.47100  0.90570  0.06928  Biso   1.000  O
  O8       1.0000 0.02900  0.09430  0.56928  Biso   1.000  O
  O9       1.0000 0.64200  0.93070  0.94240  Biso   1.000  O
  O10      1.0000 0.85800  0.06930  0.44240  Biso   1.000  O
  O11      1.0000 0.14200  0.56930  0.05760  Biso   1.000  O
  O12      1.0000 0.35800  0.43070  0.55760  Biso   1.000  O
  N1       1.0000 0.64650  0.59280  0.01662  Biso   1.000  N
  N2       1.0000 0.85350  0.40720  0.51662  Biso   1.000  N
  N3       1.0000 0.14650  0.90720  0.98338  Biso   1.000  N
  N4       1.0000 0.35350  0.09280  0.48338  Biso   1.000  N
  N5       1.0000 0.64150  0.29010  0.98540  Biso   1.000  N
  N6       1.0000 0.85850  0.70990  0.48540  Biso   1.000  N
  N7       1.0000 0.14150  0.20990  0.01460  Biso   1.000  N
  N8       1.0000 0.35850  0.79010  0.51460  Biso   1.000  N
  N9       1.0000 0.64380  0.43790  0.99983  Biso   1.000  N
  N10      1.0000 0.85620  0.56210  0.49983  Biso   1.000  N
  N11      1.0000 0.14380  0.06210  0.00017  Biso   1.000  N
  N12      1.0000 0.35620  0.93790  0.50017  Biso   1.000  N
  C1       1.0000 0.15080  0.55390  0.91116  Biso   1.000  C
  C2       1.0000 0.34920  0.44610  0.41116  Biso   1.000  C
  C3       1.0000 0.65080  0.94610  0.08884  Biso   1.000  C
  C4       1.0000 0.84920  0.05390  0.58884  Biso   1.000  C
  C5       1.0000 0.16680  0.43270  0.85760  Biso   1.000  C
  C6       1.0000 0.33320  0.56730  0.35760  Biso   1.000  C
  C7       1.0000 0.66680  0.06730  0.14240  Biso   1.000  C
  C8       1.0000 0.83320  0.93270  0.64240  Biso   1.000  C
  C9       1.0000 0.99500  0.33440  0.83859  Biso   1.000  C
  C10      1.0000 0.50500  0.66560  0.33859  Biso   1.000  C
  C11      1.0000 0.49500  0.16560  0.16141  Biso   1.000  C
  C12      1.0000 0.00500  0.83440  0.66141  Biso   1.000  C
  H1       1.0000 0.86450  0.34380  0.85940  Biso   1.000  H
  H2       1.0000 0.63550  0.65620  0.35940  Biso   1.000  H
  H3       1.0000 0.36450  0.15620  0.14060  Biso   1.000  H
  H4       1.0000 0.13550  0.84380  0.64060  Biso   1.000  H
  C13      1.0000 0.01060  0.22200  0.78930  Biso   1.000  C
  C14      1.0000 0.48940  0.77800  0.28930  Biso   1.000  C
  C15      1.0000 0.51060  0.27800  0.21070  Biso   1.000  C
  C16      1.0000 0.98940  0.72200  0.71070  Biso   1.000  C
  C17      1.0000 0.19830  0.21300  0.75750  Biso   1.000  C
  C18      1.0000 0.30170  0.78700  0.25750  Biso   1.000  C
  C19      1.0000 0.69830  0.28700  0.24250  Biso   1.000  C
  C20      1.0000 0.80170  0.71300  0.74250  Biso   1.000  C
  C21      1.0000 0.37000  0.30630  0.77690  Biso   1.000  C
  C22      1.0000 0.13000  0.69370  0.27690  Biso   1.000  C
  C23      1.0000 0.87000  0.19370  0.22310  Biso   1.000  C
  C24      1.0000 0.63000  0.80630  0.72310  Biso   1.000  C
  C25      1.0000 0.35840  0.41810  0.82660  Biso   1.000  C
  C26      1.0000 0.14160  0.58190  0.32660  Biso   1.000  C
  C27      1.0000 0.85840  0.08190  0.17340  Biso   1.000  C
  C28      1.0000 0.64160  0.91810  0.67340  Biso   1.000  C
  C29      1.0000 0.62480  0.92860  0.87950  Biso   1.000  C
  C30      1.0000 0.87520  0.07140  0.37950  Biso   1.000  C
  C31      1.0000 0.12480  0.57140  0.12050  Biso   1.000  C
  C32      1.0000 0.37520  0.42860  0.62050  Biso   1.000  C
  H5       1.0000 0.75340  0.97960  0.86180  Biso   1.000  H
  H6       1.0000 0.74660  0.02040  0.36180  Biso   1.000  H
  H7       1.0000 0.25340  0.52040  0.13820  Biso   1.000  H
  H8       1.0000 0.24660  0.47960  0.63820  Biso   1.000  H
  H9       1.0000 0.50230  0.00050  0.86730  Biso   1.000  H
  H10      1.0000 0.99770  0.99950  0.36730  Biso   1.000  H
  H11      1.0000 0.00230  0.49950  0.13270  Biso   1.000  H
  H12      1.0000 0.49770  0.50050  0.63270  Biso   1.000  H
  H13      1.0000 0.60680  0.80450  0.86570  Biso   1.000  H
  H14      1.0000 0.89320  0.19550  0.36570  Biso   1.000  H
  H15      1.0000 0.10680  0.69550  0.13430  Biso   1.000  H
  H16      1.0000 0.39320  0.30450  0.63430  Biso   1.000  H
  H17      1.0000 0.62900  0.00600  0.96000  Biso   1.000  H
  H18      1.0000 0.87100  0.99400  0.46000  Biso   1.000  H
  H19      1.0000 0.12900  0.49400  0.04000  Biso   1.000  H
  H20      1.0000 0.37100  0.50600  0.54000  Biso   1.000  H
  H21      1.0000 0.90400  0.17100  0.77920  Biso   1.000  H
  H22      1.0000 0.59600  0.82900  0.27920  Biso   1.000  H
  H23      1.0000 0.40400  0.32900  0.22080  Biso   1.000  H
  H24      1.0000 0.09600  0.67100  0.72080  Biso   1.000  H
  H25      1.0000 0.48400  0.29900  0.75690  Biso   1.000  H
  H26      1.0000 0.01600  0.70100  0.25690  Biso   1.000  H
  H27      1.0000 0.98400  0.20100  0.24310  Biso   1.000  H
  H28      1.0000 0.51600  0.79900  0.74310  Biso   1.000  H
  H29      1.0000 0.48100  0.48400  0.84770  Biso   1.000  H
  H30      1.0000 0.01900  0.51600  0.34770  Biso   1.000  H
  H31      1.0000 0.98100  0.01600  0.15230  Biso   1.000  H
  H32      1.0000 0.51900  0.98400  0.65230  Biso   1.000  H
  H33      1.0000 0.20300  0.13400  0.72460  Biso   1.000  H
  H34      1.0000 0.29700  0.86600  0.22460  Biso   1.000  H
  H35      1.0000 0.70300  0.36600  0.27540  Biso   1.000  H
  H36      1.0000 0.79700  0.63400  0.77540  Biso   1.000  H
