data_image0
_cell_length_a       8.787
_cell_length_b       9.753
_cell_length_c       10.525
_cell_angle_alpha    90
_cell_angle_beta     101.69
_cell_angle_gamma    90

_symmetry_space_group_name_H-M    "P 1"
_symmetry_int_tables_number       1

loop_
  _symmetry_equiv_pos_as_xyz
  'x, y, z'

loop_
  _atom_site_label
  _atom_site_occupancy
  _atom_site_fract_x
  _atom_site_fract_y
  _atom_site_fract_z
  _atom_site_thermal_displace_type
  _atom_site_B_iso_or_equiv
  _atom_site_type_symbol
  Cu1      1.0000 0.02960  0.35000  0.16260  Biso   1.000  Cu
  Cu2      1.0000 0.97040  0.85000  0.83740  Biso   1.000  Cu
  O1       1.0000 0.89980  0.49400  0.06100  Biso   1.000  O
  O2       1.0000 0.10020  0.99400  0.93900  Biso   1.000  O
  O3       1.0000 0.69530  0.51070  0.90180  Biso   1.000  O
  O4       1.0000 0.30470  0.01070  0.09820  Biso   1.000  O
  O5       1.0000 0.74480  0.02650  0.11840  Biso   1.000  O
  O6       1.0000 0.25520  0.52650  0.88160  Biso   1.000  O
  O7       1.0000 0.12730  0.29270  0.97770  Biso   1.000  O
  O8       1.0000 0.87270  0.79270  0.02230  Biso   1.000  O
  O9       1.0000 0.58230  0.58220  0.54390  Biso   1.000  O
  O10      1.0000 0.41770  0.08220  0.45610  Biso   1.000  O
  O11      1.0000 0.45420  0.43800  0.71840  Biso   1.000  O
  O12      1.0000 0.54580  0.93800  0.28160  Biso   1.000  O
  N1       1.0000 0.84630  0.24330  0.11810  Biso   1.000  N
  N2       1.0000 0.15370  0.74330  0.88190  Biso   1.000  N
  N3       1.0000 0.12530  0.17510  0.25180  Biso   1.000  N
  N4       1.0000 0.87470  0.67510  0.74820  Biso   1.000  N
  N5       1.0000 0.80410  0.98790  0.77300  Biso   1.000  N
  N6       1.0000 0.19590  0.48790  0.22700  Biso   1.000  N
  C1       1.0000 0.77450  0.44580  0.99110  Biso   1.000  C
  C2       1.0000 0.22550  0.94580  0.00890  Biso   1.000  C
  C3       1.0000 0.72220  0.30060  0.02290  Biso   1.000  C
  C4       1.0000 0.27780  0.80060  0.97710  Biso   1.000  C
  C5       1.0000 0.56260  0.31110  0.06610  Biso   1.000  C
  C6       1.0000 0.43740  0.81110  0.93390  Biso   1.000  C
  C7       1.0000 0.85160  0.11360  0.15350  Biso   1.000  C
  C8       1.0000 0.14840  0.61360  0.84650  Biso   1.000  C
  C9       1.0000 0.00010  0.06550  0.23890  Biso   1.000  C
  C10      1.0000 0.99990  0.56550  0.76110  Biso   1.000  C
  C11      1.0000 0.98580  0.00050  0.36270  Biso   1.000  C
  C12      1.0000 0.01420  0.50050  0.63730  Biso   1.000  C
  C13      1.0000 0.93010  0.09120  0.45690  Biso   1.000  C
  C14      1.0000 0.06990  0.59120  0.54310  Biso   1.000  C
  C15      1.0000 0.88950  0.00750  0.56600  Biso   1.000  C
  C16      1.0000 0.11050  0.50750  0.43400  Biso   1.000  C
  C17      1.0000 0.83960  0.08360  0.67200  Biso   1.000  C
  C18      1.0000 0.16040  0.58360  0.32800  Biso   1.000  C
  C19      1.0000 0.57160  0.38540  0.19290  Biso   1.000  C
  C20      1.0000 0.42840  0.88540  0.80710  Biso   1.000  C
  C21      1.0000 0.55930  0.31150  0.30250  Biso   1.000  C
  C22      1.0000 0.44070  0.81150  0.69750  Biso   1.000  C
  C23      1.0000 0.56220  0.37510  0.41900  Biso   1.000  C
  C24      1.0000 0.43780  0.87510  0.58100  Biso   1.000  C
  C25      1.0000 0.57900  0.51230  0.43030  Biso   1.000  C
  C26      1.0000 0.42100  0.01230  0.56970  Biso   1.000  C
  C27      1.0000 0.59390  0.59190  0.32090  Biso   1.000  C
  C28      1.0000 0.40610  0.09190  0.67910  Biso   1.000  C
  C29      1.0000 0.58790  0.52700  0.20380  Biso   1.000  C
  C30      1.0000 0.41210  0.02700  0.79620  Biso   1.000  C
