data_image0
_cell_length_a       12.646
_cell_length_b       9.369
_cell_length_c       10.619
_cell_angle_alpha    90
_cell_angle_beta     108.69
_cell_angle_gamma    90

_symmetry_space_group_name_H-M    "P 1"
_symmetry_int_tables_number       1

loop_
  _symmetry_equiv_pos_as_xyz
  'x, y, z'

loop_
  _atom_site_label
  _atom_site_occupancy
  _atom_site_fract_x
  _atom_site_fract_y
  _atom_site_fract_z
  _atom_site_thermal_displace_type
  _atom_site_B_iso_or_equiv
  _atom_site_type_symbol
  Cu1      1.0000 0.17737  0.24628  0.25019  Biso   1.000  Cu
  Cu2      1.0000 0.32263  0.74628  0.24981  Biso   1.000  Cu
  Cu3      1.0000 0.82263  0.75372  0.74981  Biso   1.000  Cu
  Cu4      1.0000 0.67737  0.25372  0.75019  Biso   1.000  Cu
  O1       1.0000 0.19860  0.14590  0.44210  Biso   1.000  O
  O2       1.0000 0.30140  0.64590  0.05790  Biso   1.000  O
  O3       1.0000 0.80140  0.85410  0.55790  Biso   1.000  O
  O4       1.0000 0.69860  0.35410  0.94210  Biso   1.000  O
  O5       1.0000 0.06050  0.12950  0.11580  Biso   1.000  O
  O6       1.0000 0.43950  0.62950  0.38420  Biso   1.000  O
  O7       1.0000 0.93950  0.87050  0.88420  Biso   1.000  O
  O8       1.0000 0.56050  0.37050  0.61580  Biso   1.000  O
  O9       1.0000 0.24200  0.44240  0.28030  Biso   1.000  O
  O10      1.0000 0.25800  0.94240  0.21970  Biso   1.000  O
  O11      1.0000 0.75800  0.55760  0.71970  Biso   1.000  O
  O12      1.0000 0.74200  0.05760  0.78030  Biso   1.000  O
  O13      1.0000 0.31490  0.16930  0.24030  Biso   1.000  O
  O14      1.0000 0.18510  0.66930  0.25970  Biso   1.000  O
  O15      1.0000 0.68510  0.83070  0.75970  Biso   1.000  O
  O16      1.0000 0.81490  0.33070  0.74030  Biso   1.000  O
  N1       1.0000 0.04740  0.33950  0.28660  Biso   1.000  N
  N2       1.0000 0.45260  0.83950  0.21340  Biso   1.000  N
  N3       1.0000 0.95260  0.66050  0.71340  Biso   1.000  N
  N4       1.0000 0.54740  0.16050  0.78660  Biso   1.000  N
  C1       1.0000 0.06790  0.32720  0.43250  Biso   1.000  C
  C2       1.0000 0.43210  0.82720  0.06750  Biso   1.000  C
  C3       1.0000 0.93210  0.67280  0.56750  Biso   1.000  C
  C4       1.0000 0.56790  0.17280  0.93250  Biso   1.000  C
  C5       1.0000 0.10320  0.17940  0.48190  Biso   1.000  C
  C6       1.0000 0.39680  0.67940  0.01810  Biso   1.000  C
  C7       1.0000 0.89680  0.82060  0.51810  Biso   1.000  C
  C8       1.0000 0.60320  0.32060  0.98190  Biso   1.000  C
  C9       1.0000 0.94220  0.26680  0.20710  Biso   1.000  C
  C10      1.0000 0.55780  0.76680  0.29290  Biso   1.000  C
  C11      1.0000 0.05780  0.73320  0.79290  Biso   1.000  C
  C12      1.0000 0.44220  0.23320  0.70710  Biso   1.000  C
  C13      1.0000 0.95700  0.20620  0.08320  Biso   1.000  C
  C14      1.0000 0.54300  0.70620  0.41680  Biso   1.000  C
  C15      1.0000 0.04300  0.79380  0.91680  Biso   1.000  C
  C16      1.0000 0.45700  0.29380  0.58320  Biso   1.000  C
  C17      1.0000 0.05080  0.49070  0.24880  Biso   1.000  C
  C18      1.0000 0.44920  0.99070  0.25120  Biso   1.000  C
  C19      1.0000 0.94920  0.50930  0.75120  Biso   1.000  C
  C20      1.0000 0.55080  0.00930  0.74880  Biso   1.000  C
  C21      1.0000 0.16910  0.53650  0.26670  Biso   1.000  C
  C22      1.0000 0.33090  0.03650  0.23330  Biso   1.000  C
  C23      1.0000 0.83090  0.46350  0.73330  Biso   1.000  C
  C24      1.0000 0.66910  0.96350  0.76670  Biso   1.000  C
  Cl1      1.0000 0.23500  0.30410  0.90900  Biso   1.000  Cl
  Cl2      1.0000 0.26500  0.80410  0.59100  Biso   1.000  Cl
  Cl3      1.0000 0.76500  0.69590  0.09100  Biso   1.000  Cl
  Cl4      1.0000 0.73500  0.19590  0.40900  Biso   1.000  Cl
  O17      1.0000 0.22890  0.15560  0.90560  Biso   1.000  O
  O18      1.0000 0.27110  0.65560  0.59440  Biso   1.000  O
  O19      1.0000 0.77110  0.84440  0.09440  Biso   1.000  O
  O20      1.0000 0.72890  0.34440  0.40560  Biso   1.000  O
  O21      1.0000 0.16760  0.36200  0.98340  Biso   1.000  O
  O22      1.0000 0.33240  0.86200  0.51660  Biso   1.000  O
  O23      1.0000 0.83240  0.63800  0.01660  Biso   1.000  O
  O24      1.0000 0.66760  0.13800  0.48340  Biso   1.000  O
  O25      1.0000 0.34410  0.34630  0.97550  Biso   1.000  O
  O26      1.0000 0.15590  0.84630  0.52450  Biso   1.000  O
  O27      1.0000 0.65590  0.65370  0.02450  Biso   1.000  O
  O28      1.0000 0.84410  0.15370  0.47550  Biso   1.000  O
  O29      1.0000 0.19910  0.35970  0.77920  Biso   1.000  O
  O30      1.0000 0.30090  0.85970  0.72080  Biso   1.000  O
  O31      1.0000 0.80090  0.64030  0.22080  Biso   1.000  O
  O32      1.0000 0.69910  0.14030  0.27920  Biso   1.000  O
  O33      1.0000 0.01930  0.90030  0.23130  Biso   1.000  O
  O34      1.0000 0.48070  0.40030  0.26870  Biso   1.000  O
  O35      1.0000 0.98070  0.09970  0.76870  Biso   1.000  O
  O36      1.0000 0.51930  0.59970  0.73130  Biso   1.000  O
  H1       1.0000 0.07500  0.84000  0.26100  Biso   1.000  H
  H2       1.0000 0.42500  0.34000  0.23900  Biso   1.000  H
  H3       1.0000 0.92500  0.16000  0.73900  Biso   1.000  H
  H4       1.0000 0.57500  0.66000  0.76100  Biso   1.000  H
  H5       1.0000 0.96800  0.87700  0.22300  Biso   1.000  H
  H6       1.0000 0.53200  0.37700  0.27700  Biso   1.000  H
  H7       1.0000 0.03200  0.12300  0.77700  Biso   1.000  H
  H8       1.0000 0.46800  0.62300  0.72300  Biso   1.000  H
  H9       1.0000 0.20700  0.06300  0.44100  Biso   1.000  H
  H10      1.0000 0.29300  0.56300  0.05900  Biso   1.000  H
  H11      1.0000 0.79300  0.93700  0.55900  Biso   1.000  H
  H12      1.0000 0.70700  0.43700  0.94100  Biso   1.000  H
  H13      1.0000 0.05500  0.06200  0.14600  Biso   1.000  H
  H14      1.0000 0.44500  0.56200  0.35400  Biso   1.000  H
  H15      1.0000 0.94500  0.93800  0.85400  Biso   1.000  H
  H16      1.0000 0.55500  0.43800  0.64600  Biso   1.000  H
  H17      1.0000 0.00100  0.35500  0.44000  Biso   1.000  H
  H18      1.0000 0.49900  0.85500  0.06000  Biso   1.000  H
  H19      1.0000 0.99900  0.64500  0.56000  Biso   1.000  H
  H20      1.0000 0.50100  0.14500  0.94000  Biso   1.000  H
  H21      1.0000 0.12400  0.39900  0.47300  Biso   1.000  H
  H22      1.0000 0.37600  0.89900  0.02700  Biso   1.000  H
  H23      1.0000 0.87600  0.60100  0.52700  Biso   1.000  H
  H24      1.0000 0.62400  0.10100  0.97300  Biso   1.000  H
  H25      1.0000 0.11700  0.19000  0.55900  Biso   1.000  H
  H26      1.0000 0.38300  0.69000  0.94100  Biso   1.000  H
  H27      1.0000 0.88300  0.81000  0.44100  Biso   1.000  H
  H28      1.0000 0.61700  0.31000  0.05900  Biso   1.000  H
  H29      1.0000 0.04200  0.11900  0.44500  Biso   1.000  H
  H30      1.0000 0.45800  0.61900  0.05500  Biso   1.000  H
  H31      1.0000 0.95800  0.88100  0.55500  Biso   1.000  H
  H32      1.0000 0.54200  0.38100  0.94500  Biso   1.000  H
  H33      1.0000 0.87900  0.32400  0.17900  Biso   1.000  H
  H34      1.0000 0.62100  0.82400  0.32100  Biso   1.000  H
  H35      1.0000 0.12100  0.67600  0.82100  Biso   1.000  H
  H36      1.0000 0.37900  0.17600  0.67900  Biso   1.000  H
  H37      1.0000 0.92700  0.19600  0.26000  Biso   1.000  H
  H38      1.0000 0.57300  0.69600  0.24000  Biso   1.000  H
  H39      1.0000 0.07300  0.80400  0.74000  Biso   1.000  H
  H40      1.0000 0.42700  0.30400  0.76000  Biso   1.000  H
  H41      1.0000 0.90400  0.14400  0.04200  Biso   1.000  H
  H42      1.0000 0.59600  0.64400  0.45800  Biso   1.000  H
  H43      1.0000 0.09600  0.85600  0.95800  Biso   1.000  H
  H44      1.0000 0.40400  0.35600  0.54200  Biso   1.000  H
  H45      1.0000 0.96500  0.27400  0.02300  Biso   1.000  H
  H46      1.0000 0.53500  0.77400  0.47700  Biso   1.000  H
  H47      1.0000 0.03500  0.72600  0.97700  Biso   1.000  H
  H48      1.0000 0.46500  0.22600  0.52300  Biso   1.000  H
  H49      1.0000 0.01800  0.55400  0.29500  Biso   1.000  H
  H50      1.0000 0.48200  0.05400  0.20500  Biso   1.000  H
  H51      1.0000 0.98200  0.44600  0.70500  Biso   1.000  H
  H52      1.0000 0.51800  0.94600  0.79500  Biso   1.000  H
  H53      1.0000 0.00800  0.51000  0.15100  Biso   1.000  H
  H54      1.0000 0.49200  0.01000  0.34900  Biso   1.000  H
  H55      1.0000 0.99200  0.49000  0.84900  Biso   1.000  H
  H56      1.0000 0.50800  0.99000  0.65100  Biso   1.000  H
