data_image0
_cell_length_a       9.2047
_cell_length_b       18.3674
_cell_length_c       10.8366
_cell_angle_alpha    90
_cell_angle_beta     93.798
_cell_angle_gamma    90

_symmetry_space_group_name_H-M    "P 1"
_symmetry_int_tables_number       1

loop_
  _symmetry_equiv_pos_as_xyz
  'x, y, z'

loop_
  _atom_site_label
  _atom_site_occupancy
  _atom_site_fract_x
  _atom_site_fract_y
  _atom_site_fract_z
  _atom_site_thermal_displace_type
  _atom_site_B_iso_or_equiv
  _atom_site_type_symbol
  Cu1      1.0000 0.73340  0.83715  0.75659  Biso   1.000  Cu
  Cu2      1.0000 0.76660  0.33715  0.74341  Biso   1.000  Cu
  Cu3      1.0000 0.26660  0.16285  0.24341  Biso   1.000  Cu
  Cu4      1.0000 0.23340  0.66285  0.25659  Biso   1.000  Cu
  N1       1.0000 0.79380  0.84167  0.57956  Biso   1.000  N
  N2       1.0000 0.70620  0.34167  0.92044  Biso   1.000  N
  N3       1.0000 0.20620  0.15833  0.42044  Biso   1.000  N
  N4       1.0000 0.29380  0.65833  0.07956  Biso   1.000  N
  C1       1.0000 0.85740  0.90180  0.53830  Biso   1.000  C
  C2       1.0000 0.64260  0.40180  0.96170  Biso   1.000  C
  C3       1.0000 0.14260  0.09820  0.46170  Biso   1.000  C
  C4       1.0000 0.35740  0.59820  0.03830  Biso   1.000  C
  H1       1.0000 0.86410  0.94260  0.58930  Biso   1.000  H
  H2       1.0000 0.63590  0.44260  0.91070  Biso   1.000  H
  H3       1.0000 0.13590  0.05740  0.41070  Biso   1.000  H
  H4       1.0000 0.36410  0.55740  0.08930  Biso   1.000  H
  C5       1.0000 0.91330  0.90573  0.42370  Biso   1.000  C
  C6       1.0000 0.58670  0.40573  0.07630  Biso   1.000  C
  C7       1.0000 0.08670  0.09427  0.57630  Biso   1.000  C
  C8       1.0000 0.41330  0.59427  0.92370  Biso   1.000  C
  H5       1.0000 0.95950  0.94800  0.39990  Biso   1.000  H
  H6       1.0000 0.54050  0.44800  0.10010  Biso   1.000  H
  H7       1.0000 0.04050  0.05200  0.60010  Biso   1.000  H
  H8       1.0000 0.45950  0.55200  0.89990  Biso   1.000  H
  C9       1.0000 0.90080  0.84705  0.34420  Biso   1.000  C
  C10      1.0000 0.59920  0.34705  0.15580  Biso   1.000  C
  C11      1.0000 0.09920  0.15295  0.65580  Biso   1.000  C
  C12      1.0000 0.40080  0.65295  0.84420  Biso   1.000  C
  C13      1.0000 0.82920  0.78708  0.38500  Biso   1.000  C
  C14      1.0000 0.67080  0.28708  0.11500  Biso   1.000  C
  C15      1.0000 0.17080  0.21292  0.61500  Biso   1.000  C
  C16      1.0000 0.32920  0.71292  0.88500  Biso   1.000  C
  H9       1.0000 0.81590  0.74660  0.33390  Biso   1.000  H
  H10      1.0000 0.68410  0.24660  0.16610  Biso   1.000  H
  H11      1.0000 0.18410  0.25340  0.66610  Biso   1.000  H
  H12      1.0000 0.31590  0.75340  0.83390  Biso   1.000  H
  C17      1.0000 0.77700  0.78628  0.50120  Biso   1.000  C
  C18      1.0000 0.72300  0.28628  0.99880  Biso   1.000  C
  C19      1.0000 0.22300  0.21372  0.49880  Biso   1.000  C
  C20      1.0000 0.27700  0.71372  0.00120  Biso   1.000  C
  H13      1.0000 0.72770  0.74510  0.52590  Biso   1.000  H
  H14      1.0000 0.77230  0.24510  0.97410  Biso   1.000  H
  H15      1.0000 0.27230  0.25490  0.47410  Biso   1.000  H
  H16      1.0000 0.22770  0.75490  0.02590  Biso   1.000  H
  C21      1.0000 0.96300  0.84916  0.21850  Biso   1.000  C
  C22      1.0000 0.53700  0.34916  0.28150  Biso   1.000  C
  C23      1.0000 0.03700  0.15084  0.78150  Biso   1.000  C
  C24      1.0000 0.46300  0.65084  0.71850  Biso   1.000  C
  H17      1.0000 0.97900  0.79970  0.19100  Biso   1.000  H
  H18      1.0000 0.52100  0.29970  0.30900  Biso   1.000  H
  H19      1.0000 0.02100  0.20030  0.80900  Biso   1.000  H
  H20      1.0000 0.47900  0.70030  0.69100  Biso   1.000  H
  H21      1.0000 0.89270  0.87170  0.15970  Biso   1.000  H
  H22      1.0000 0.60730  0.37170  0.34030  Biso   1.000  H
  H23      1.0000 0.10730  0.12830  0.84030  Biso   1.000  H
  H24      1.0000 0.39270  0.62830  0.65970  Biso   1.000  H
  N5       1.0000 0.09936  0.88918  0.21940  Biso   1.000  N
  N6       1.0000 0.40064  0.38918  0.28060  Biso   1.000  N
  N7       1.0000 0.90064  0.11082  0.78060  Biso   1.000  N
  N8       1.0000 0.59936  0.61082  0.71940  Biso   1.000  N
  H25      1.0000 0.10000  0.93760  0.20600  Biso   1.000  H
  H26      1.0000 0.40000  0.43760  0.29400  Biso   1.000  H
  H27      1.0000 0.90000  0.06240  0.79400  Biso   1.000  H
  H28      1.0000 0.60000  0.56240  0.70600  Biso   1.000  H
  C25      1.0000 0.22690  0.85542  0.25093  Biso   1.000  C
  C26      1.0000 0.27310  0.35542  0.24907  Biso   1.000  C
  C27      1.0000 0.77310  0.14458  0.74907  Biso   1.000  C
  C28      1.0000 0.72690  0.64458  0.75093  Biso   1.000  C
  O1       1.0000 0.23594  0.78890  0.26205  Biso   1.000  O
  O2       1.0000 0.26406  0.28890  0.23795  Biso   1.000  O
  O3       1.0000 0.76406  0.21110  0.73795  Biso   1.000  O
  O4       1.0000 0.73594  0.71110  0.76205  Biso   1.000  O
  N9       1.0000 0.34410  0.89933  0.26897  Biso   1.000  N
  N10      1.0000 0.15590  0.39933  0.23103  Biso   1.000  N
  N11      1.0000 0.65590  0.10067  0.73103  Biso   1.000  N
  N12      1.0000 0.84410  0.60067  0.76897  Biso   1.000  N
  H29      1.0000 0.33700  0.94812  0.27300  Biso   1.000  H
  H30      1.0000 0.16300  0.44812  0.22700  Biso   1.000  H
  H31      1.0000 0.66300  0.05188  0.72700  Biso   1.000  H
  H32      1.0000 0.83700  0.55188  0.77300  Biso   1.000  H
  C29      1.0000 0.48930  0.86848  0.28690  Biso   1.000  C
  C30      1.0000 0.01070  0.36848  0.21310  Biso   1.000  C
  C31      1.0000 0.51070  0.13152  0.71310  Biso   1.000  C
  C32      1.0000 0.98930  0.63152  0.78690  Biso   1.000  C
  H33      1.0000 0.48390  0.82150  0.32720  Biso   1.000  H
  H34      1.0000 0.01610  0.32150  0.17280  Biso   1.000  H
  H35      1.0000 0.51610  0.17850  0.67280  Biso   1.000  H
  H36      1.0000 0.98390  0.67850  0.82720  Biso   1.000  H
  H37      1.0000 0.54990  0.90020  0.34030  Biso   1.000  H
  H38      1.0000 0.95010  0.40020  0.15970  Biso   1.000  H
  H39      1.0000 0.45010  0.09980  0.65970  Biso   1.000  H
  H40      1.0000 0.04990  0.59980  0.84030  Biso   1.000  H
  C33      1.0000 0.55740  0.85943  0.16449  Biso   1.000  C
  C34      1.0000 0.94260  0.35943  0.33551  Biso   1.000  C
  C35      1.0000 0.44260  0.14057  0.83551  Biso   1.000  C
  C36      1.0000 0.05740  0.64057  0.66449  Biso   1.000  C
  C37      1.0000 0.58550  0.92012  0.09290  Biso   1.000  C
  C38      1.0000 0.91450  0.42012  0.40710  Biso   1.000  C
  C39      1.0000 0.41450  0.07988  0.90710  Biso   1.000  C
  C40      1.0000 0.08550  0.57988  0.59290  Biso   1.000  C
  H41      1.0000 0.56670  0.96660  0.12190  Biso   1.000  H
  H42      1.0000 0.93330  0.46660  0.37810  Biso   1.000  H
  H43      1.0000 0.43330  0.03340  0.87810  Biso   1.000  H
  H44      1.0000 0.06670  0.53340  0.62190  Biso   1.000  H
  C41      1.0000 0.64130  0.91129  0.97880  Biso   1.000  C
  C42      1.0000 0.85870  0.41129  0.52120  Biso   1.000  C
  C43      1.0000 0.35870  0.08871  0.02120  Biso   1.000  C
  C44      1.0000 0.14130  0.58871  0.47880  Biso   1.000  C
  H45      1.0000 0.65960  0.95240  0.93210  Biso   1.000  H
  H46      1.0000 0.84040  0.45240  0.56790  Biso   1.000  H
  H47      1.0000 0.34040  0.04760  0.06790  Biso   1.000  H
  H48      1.0000 0.15960  0.54760  0.43210  Biso   1.000  H
  N13      1.0000 0.67010  0.84494  0.93280  Biso   1.000  N
  N14      1.0000 0.82990  0.34494  0.56720  Biso   1.000  N
  N15      1.0000 0.32990  0.15506  0.06720  Biso   1.000  N
  N16      1.0000 0.17010  0.65506  0.43280  Biso   1.000  N
  C45      1.0000 0.64810  0.78718  0.00310  Biso   1.000  C
  C46      1.0000 0.85190  0.28718  0.49690  Biso   1.000  C
  C47      1.0000 0.35190  0.21282  0.99690  Biso   1.000  C
  C48      1.0000 0.14810  0.71282  0.50310  Biso   1.000  C
  H49      1.0000 0.67190  0.74140  0.97390  Biso   1.000  H
  H50      1.0000 0.82810  0.24140  0.52610  Biso   1.000  H
  H51      1.0000 0.32810  0.25860  0.02610  Biso   1.000  H
  H52      1.0000 0.17190  0.75860  0.47390  Biso   1.000  H
  C49      1.0000 0.59110  0.79231  0.11840  Biso   1.000  C
  C50      1.0000 0.90890  0.29231  0.38160  Biso   1.000  C
  C51      1.0000 0.40890  0.20769  0.88160  Biso   1.000  C
  C52      1.0000 0.09110  0.70769  0.61840  Biso   1.000  C
  H53      1.0000 0.57580  0.75050  0.16410  Biso   1.000  H
  H54      1.0000 0.92420  0.25050  0.33590  Biso   1.000  H
  H55      1.0000 0.42420  0.24950  0.83590  Biso   1.000  H
  H56      1.0000 0.07580  0.74950  0.66410  Biso   1.000  H
  C53      1.0000 0.98390  0.90591  0.84130  Biso   1.000  C
  C54      1.0000 0.51610  0.40591  0.65870  Biso   1.000  C
  C55      1.0000 0.01610  0.09409  0.15870  Biso   1.000  C
  C56      1.0000 0.48390  0.59409  0.34130  Biso   1.000  C
  O5       1.0000 0.94028  0.84137  0.81921  Biso   1.000  O
  O6       1.0000 0.55972  0.34137  0.68079  Biso   1.000  O
  O7       1.0000 0.05972  0.15863  0.18079  Biso   1.000  O
  O8       1.0000 0.44028  0.65863  0.31921  Biso   1.000  O
  O9       1.0000 0.90600  0.96025  0.81900  Biso   1.000  O
  O10      1.0000 0.59400  0.46025  0.68100  Biso   1.000  O
  O11      1.0000 0.09400  0.03975  0.18100  Biso   1.000  O
  O12      1.0000 0.40600  0.53975  0.31900  Biso   1.000  O
  C57      1.0000 0.13620  0.91524  0.89830  Biso   1.000  C
  C58      1.0000 0.36380  0.41524  0.60170  Biso   1.000  C
  C59      1.0000 0.86380  0.08476  0.10170  Biso   1.000  C
  C60      1.0000 0.63620  0.58476  0.39830  Biso   1.000  C
  H57      1.0000 0.13910  0.95590  0.95410  Biso   1.000  H
  H58      1.0000 0.36090  0.45590  0.54590  Biso   1.000  H
  H59      1.0000 0.86090  0.04410  0.04590  Biso   1.000  H
  H60      1.0000 0.63910  0.54410  0.45410  Biso   1.000  H
  H61      1.0000 0.20150  0.92390  0.83440  Biso   1.000  H
  H62      1.0000 0.29850  0.42390  0.66560  Biso   1.000  H
  H63      1.0000 0.79850  0.07610  0.16560  Biso   1.000  H
  H64      1.0000 0.70150  0.57610  0.33440  Biso   1.000  H
  H65      1.0000 0.16520  0.87190  0.94290  Biso   1.000  H
  H66      1.0000 0.33480  0.37190  0.55710  Biso   1.000  H
  H67      1.0000 0.83480  0.12810  0.05710  Biso   1.000  H
  H68      1.0000 0.66520  0.62810  0.44290  Biso   1.000  H
  C61      1.0000 0.48380  0.90118  0.66590  Biso   1.000  C
  C62      1.0000 0.01620  0.40118  0.83410  Biso   1.000  C
  C63      1.0000 0.51620  0.09882  0.33410  Biso   1.000  C
  C64      1.0000 0.98380  0.59882  0.16590  Biso   1.000  C
  O13      1.0000 0.52784  0.83700  0.69193  Biso   1.000  O
  O14      1.0000 0.97216  0.33700  0.80807  Biso   1.000  O
  O15      1.0000 0.47216  0.16300  0.30807  Biso   1.000  O
  O16      1.0000 0.02784  0.66300  0.19193  Biso   1.000  O
  O17      1.0000 0.55530  0.95574  0.69090  Biso   1.000  O
  O18      1.0000 0.94470  0.45574  0.80910  Biso   1.000  O
  O19      1.0000 0.44470  0.04426  0.30910  Biso   1.000  O
  O20      1.0000 0.05530  0.54426  0.19090  Biso   1.000  O
  C65      1.0000 0.33460  0.90754  0.60040  Biso   1.000  C
  C66      1.0000 0.16540  0.40754  0.89960  Biso   1.000  C
  C67      1.0000 0.66540  0.09246  0.39960  Biso   1.000  C
  C68      1.0000 0.83460  0.59246  0.10040  Biso   1.000  C
  H69      1.0000 0.33600  0.94450  0.53780  Biso   1.000  H
  H70      1.0000 0.16400  0.44450  0.96220  Biso   1.000  H
  H71      1.0000 0.66400  0.05550  0.46220  Biso   1.000  H
  H72      1.0000 0.83600  0.55550  0.03780  Biso   1.000  H
  H73      1.0000 0.26520  0.92050  0.65900  Biso   1.000  H
  H74      1.0000 0.23480  0.42050  0.84100  Biso   1.000  H
  H75      1.0000 0.73480  0.07950  0.34100  Biso   1.000  H
  H76      1.0000 0.76520  0.57950  0.15900  Biso   1.000  H
  H77      1.0000 0.30770  0.86180  0.56280  Biso   1.000  H
  H78      1.0000 0.19230  0.36180  0.93720  Biso   1.000  H
  H79      1.0000 0.69230  0.13820  0.43720  Biso   1.000  H
  H80      1.0000 0.80770  0.63820  0.06280  Biso   1.000  H
