data_image0
_cell_length_a       5.4915
_cell_length_b       17.403
_cell_length_c       24.2402
_cell_angle_alpha    90
_cell_angle_beta     90
_cell_angle_gamma    90

_symmetry_space_group_name_H-M    "P 1"
_symmetry_int_tables_number       1

loop_
  _symmetry_equiv_pos_as_xyz
  'x, y, z'

loop_
  _atom_site_label
  _atom_site_occupancy
  _atom_site_fract_x
  _atom_site_fract_y
  _atom_site_fract_z
  _atom_site_thermal_displace_type
  _atom_site_B_iso_or_equiv
  _atom_site_type_symbol
  C1       1.0000 0.35370  0.32800  0.84938  Biso   1.000  C
  C2       1.0000 0.14630  0.67200  0.34938  Biso   1.000  C
  C3       1.0000 0.64630  0.82800  0.65062  Biso   1.000  C
  C4       1.0000 0.85370  0.17200  0.15062  Biso   1.000  C
  H1       1.0000 0.24520  0.29720  0.82990  Biso   1.000  H
  H2       1.0000 0.25480  0.70280  0.32990  Biso   1.000  H
  H3       1.0000 0.75480  0.79720  0.67010  Biso   1.000  H
  H4       1.0000 0.74520  0.20280  0.17010  Biso   1.000  H
  Cu1      1.0000 0.50034  0.37378  0.73690  Biso   1.000  Cu
  Cu2      1.0000 0.99966  0.62622  0.23690  Biso   1.000  Cu
  Cu3      1.0000 0.49966  0.87378  0.76310  Biso   1.000  Cu
  Cu4      1.0000 0.00034  0.12622  0.26310  Biso   1.000  Cu
  N1       1.0000 0.51380  0.37064  0.82105  Biso   1.000  N
  N2       1.0000 0.98620  0.62936  0.32105  Biso   1.000  N
  N3       1.0000 0.48620  0.87064  0.67895  Biso   1.000  N
  N4       1.0000 0.01380  0.12936  0.17895  Biso   1.000  N
  O1       1.0000 0.48860  0.48377  0.73956  Biso   1.000  O
  O2       1.0000 0.01140  0.51623  0.23956  Biso   1.000  O
  O3       1.0000 0.51140  0.98377  0.76044  Biso   1.000  O
  O4       1.0000 0.98860  0.01623  0.26044  Biso   1.000  O
  C5       1.0000 0.34330  0.32780  0.90603  Biso   1.000  C
  C6       1.0000 0.15670  0.67220  0.40603  Biso   1.000  C
  C7       1.0000 0.65670  0.82780  0.59397  Biso   1.000  C
  C8       1.0000 0.84330  0.17220  0.09397  Biso   1.000  C
  H5       1.0000 0.22770  0.29760  0.92380  Biso   1.000  H
  H6       1.0000 0.27230  0.70240  0.42380  Biso   1.000  H
  H7       1.0000 0.77230  0.79760  0.57620  Biso   1.000  H
  H8       1.0000 0.72770  0.20240  0.07620  Biso   1.000  H
  N5       1.0000 0.53420  0.37718  0.65316  Biso   1.000  N
  N6       1.0000 0.96580  0.62282  0.15316  Biso   1.000  N
  N7       1.0000 0.46580  0.87718  0.84684  Biso   1.000  N
  N8       1.0000 0.03420  0.12282  0.34684  Biso   1.000  N
  O5       1.0000 0.87980  0.51009  0.73070  Biso   1.000  O
  O6       1.0000 0.62020  0.48991  0.23070  Biso   1.000  O
  O7       1.0000 0.12020  0.01009  0.76930  Biso   1.000  O
  O8       1.0000 0.37980  0.98991  0.26930  Biso   1.000  O
  C9       1.0000 0.50200  0.37190  0.93703  Biso   1.000  C
  C10      1.0000 0.99800  0.62810  0.43703  Biso   1.000  C
  C11      1.0000 0.49800  0.87190  0.56297  Biso   1.000  C
  C12      1.0000 0.00200  0.12810  0.06297  Biso   1.000  C
  O9       1.0000 0.09990  0.37178  0.73070  Biso   1.000  O
  O10      1.0000 0.40010  0.62822  0.23070  Biso   1.000  O
  O11      1.0000 0.90010  0.87178  0.76930  Biso   1.000  O
  O12      1.0000 0.59990  0.12822  0.26930  Biso   1.000  O
  C13      1.0000 0.67010  0.41530  0.90712  Biso   1.000  C
  C14      1.0000 0.82990  0.58470  0.40712  Biso   1.000  C
  C15      1.0000 0.32990  0.91530  0.59288  Biso   1.000  C
  C16      1.0000 0.17010  0.08470  0.09288  Biso   1.000  C
  H9       1.0000 0.78270  0.44580  0.92560  Biso   1.000  H
  H10      1.0000 0.71730  0.55420  0.42560  Biso   1.000  H
  H11      1.0000 0.21730  0.94580  0.57440  Biso   1.000  H
  H12      1.0000 0.28270  0.05420  0.07440  Biso   1.000  H
  O13      1.0000 0.49200  0.76324  0.76575  Biso   1.000  O
  O14      1.0000 0.00800  0.23676  0.26575  Biso   1.000  O
  O15      1.0000 0.50800  0.26324  0.73425  Biso   1.000  O
  O16      1.0000 0.99200  0.73676  0.23425  Biso   1.000  O
  C17      1.0000 0.66980  0.41320  0.85029  Biso   1.000  C
  C18      1.0000 0.83020  0.58680  0.35029  Biso   1.000  C
  C19      1.0000 0.33020  0.91320  0.64971  Biso   1.000  C
  C20      1.0000 0.16980  0.08680  0.14971  Biso   1.000  C
  H13      1.0000 0.78350  0.44280  0.83140  Biso   1.000  H
  H14      1.0000 0.71650  0.55720  0.33140  Biso   1.000  H
  H15      1.0000 0.21650  0.94280  0.66860  Biso   1.000  H
  H16      1.0000 0.28350  0.05720  0.16860  Biso   1.000  H
  O17      1.0000 0.11830  0.74369  0.73258  Biso   1.000  O
  O18      1.0000 0.38170  0.25631  0.23258  Biso   1.000  O
  O19      1.0000 0.88170  0.24369  0.76742  Biso   1.000  O
  O20      1.0000 0.61830  0.75631  0.26742  Biso   1.000  O
  C21      1.0000 0.49460  0.37400  0.99841  Biso   1.000  C
  C22      1.0000 0.00540  0.62600  0.49841  Biso   1.000  C
  C23      1.0000 0.50540  0.87400  0.50159  Biso   1.000  C
  C24      1.0000 0.99460  0.12600  0.00159  Biso   1.000  C
  C25      1.0000 0.33360  0.33280  0.02780  Biso   1.000  C
  C26      1.0000 0.16640  0.66720  0.52780  Biso   1.000  C
  C27      1.0000 0.66640  0.83280  0.47220  Biso   1.000  C
  C28      1.0000 0.83360  0.16720  0.97220  Biso   1.000  C
  H17      1.0000 0.22300  0.30150  0.00940  Biso   1.000  H
  H18      1.0000 0.27700  0.69850  0.50940  Biso   1.000  H
  H19      1.0000 0.77700  0.80150  0.49060  Biso   1.000  H
  H20      1.0000 0.72300  0.19850  0.99060  Biso   1.000  H
  C29      1.0000 0.32790  0.33550  0.08460  Biso   1.000  C
  C30      1.0000 0.17210  0.66450  0.58460  Biso   1.000  C
  C31      1.0000 0.67210  0.83550  0.41540  Biso   1.000  C
  C32      1.0000 0.82790  0.16450  0.91540  Biso   1.000  C
  H21      1.0000 0.21040  0.30720  0.10330  Biso   1.000  H
  H22      1.0000 0.28960  0.69280  0.60330  Biso   1.000  H
  H23      1.0000 0.78960  0.80720  0.39670  Biso   1.000  H
  H24      1.0000 0.71040  0.19280  0.89670  Biso   1.000  H
  C33      1.0000 0.48380  0.37710  0.11352  Biso   1.000  C
  C34      1.0000 0.01620  0.62290  0.61352  Biso   1.000  C
  C35      1.0000 0.51620  0.87710  0.38648  Biso   1.000  C
  C36      1.0000 0.98380  0.12290  0.88648  Biso   1.000  C
  H25      1.0000 0.48100  0.37720  0.15190  Biso   1.000  H
  H26      1.0000 0.01900  0.62280  0.65190  Biso   1.000  H
  H27      1.0000 0.51900  0.87720  0.34810  Biso   1.000  H
  H28      1.0000 0.98100  0.12280  0.84810  Biso   1.000  H
  C37      1.0000 0.64420  0.41870  0.08570  Biso   1.000  C
  C38      1.0000 0.85580  0.58130  0.58570  Biso   1.000  C
  C39      1.0000 0.35580  0.91870  0.41430  Biso   1.000  C
  C40      1.0000 0.14420  0.08130  0.91430  Biso   1.000  C
  H29      1.0000 0.75240  0.44980  0.10500  Biso   1.000  H
  H30      1.0000 0.74760  0.55020  0.60500  Biso   1.000  H
  H31      1.0000 0.24760  0.94980  0.39500  Biso   1.000  H
  H32      1.0000 0.25240  0.05020  0.89500  Biso   1.000  H
  C41      1.0000 0.65510  0.41700  0.02840  Biso   1.000  C
  C42      1.0000 0.84490  0.58300  0.52840  Biso   1.000  C
  C43      1.0000 0.34490  0.91700  0.47160  Biso   1.000  C
  C44      1.0000 0.15510  0.08300  0.97160  Biso   1.000  C
  H33      1.0000 0.77340  0.44570  0.01020  Biso   1.000  H
  H34      1.0000 0.72660  0.55430  0.51020  Biso   1.000  H
  H35      1.0000 0.22660  0.94570  0.48980  Biso   1.000  H
  H36      1.0000 0.27340  0.05430  0.98980  Biso   1.000  H
  C45      1.0000 0.68860  0.33400  0.62457  Biso   1.000  C
  C46      1.0000 0.81140  0.66600  0.12457  Biso   1.000  C
  C47      1.0000 0.31140  0.83400  0.87543  Biso   1.000  C
  C48      1.0000 0.18860  0.16600  0.37543  Biso   1.000  C
  H37      1.0000 0.79860  0.30350  0.64380  Biso   1.000  H
  H38      1.0000 0.70140  0.69650  0.14380  Biso   1.000  H
  H39      1.0000 0.20140  0.80350  0.85620  Biso   1.000  H
  H40      1.0000 0.29860  0.19650  0.35620  Biso   1.000  H
  C49      1.0000 0.69310  0.33240  0.56800  Biso   1.000  C
  C50      1.0000 0.80690  0.66760  0.06800  Biso   1.000  C
  C51      1.0000 0.30690  0.83240  0.93200  Biso   1.000  C
  C52      1.0000 0.19310  0.16760  0.43200  Biso   1.000  C
  H41      1.0000 0.80480  0.30100  0.55000  Biso   1.000  H
  H42      1.0000 0.69520  0.69900  0.05000  Biso   1.000  H
  H43      1.0000 0.19520  0.80100  0.95000  Biso   1.000  H
  H44      1.0000 0.30480  0.19900  0.45000  Biso   1.000  H
  C53      1.0000 0.53260  0.37710  0.53721  Biso   1.000  C
  C54      1.0000 0.96740  0.62290  0.03721  Biso   1.000  C
  C55      1.0000 0.46740  0.87710  0.96279  Biso   1.000  C
  C56      1.0000 0.03260  0.12290  0.46279  Biso   1.000  C
  C57      1.0000 0.37570  0.42250  0.56800  Biso   1.000  C
  C58      1.0000 0.12430  0.57750  0.06800  Biso   1.000  C
  C59      1.0000 0.62430  0.92250  0.93200  Biso   1.000  C
  C60      1.0000 0.87570  0.07750  0.43200  Biso   1.000  C
  H45      1.0000 0.26460  0.45400  0.54990  Biso   1.000  H
  H46      1.0000 0.23540  0.54600  0.04990  Biso   1.000  H
  H47      1.0000 0.73540  0.95400  0.95010  Biso   1.000  H
  H48      1.0000 0.76460  0.04600  0.45010  Biso   1.000  H
  C61      1.0000 0.38120  0.42170  0.62452  Biso   1.000  C
  C62      1.0000 0.11880  0.57830  0.12452  Biso   1.000  C
  C63      1.0000 0.61880  0.92170  0.87548  Biso   1.000  C
  C64      1.0000 0.88120  0.07830  0.37548  Biso   1.000  C
  H49      1.0000 0.27440  0.45340  0.64370  Biso   1.000  H
  H50      1.0000 0.22560  0.54660  0.14370  Biso   1.000  H
  H51      1.0000 0.72560  0.95340  0.85630  Biso   1.000  H
  H52      1.0000 0.77440  0.04660  0.35630  Biso   1.000  H
  C65      1.0000 0.52910  0.37620  0.47546  Biso   1.000  C
  C66      1.0000 0.97090  0.62380  0.97546  Biso   1.000  C
  C67      1.0000 0.47090  0.87620  0.02454  Biso   1.000  C
  C68      1.0000 0.02910  0.12380  0.52454  Biso   1.000  C
  C69      1.0000 0.69760  0.33490  0.44590  Biso   1.000  C
  C70      1.0000 0.80240  0.66510  0.94590  Biso   1.000  C
  C71      1.0000 0.30240  0.83490  0.05410  Biso   1.000  C
  C72      1.0000 0.19760  0.16510  0.55410  Biso   1.000  C
  H53      1.0000 0.81680  0.30700  0.46440  Biso   1.000  H
  H54      1.0000 0.68320  0.69300  0.96440  Biso   1.000  H
  H55      1.0000 0.18320  0.80700  0.03560  Biso   1.000  H
  H56      1.0000 0.31680  0.19300  0.53560  Biso   1.000  H
  C73      1.0000 0.69070  0.33460  0.38820  Biso   1.000  C
  C74      1.0000 0.80930  0.66540  0.88820  Biso   1.000  C
  C75      1.0000 0.30930  0.83460  0.11180  Biso   1.000  C
  C76      1.0000 0.19070  0.16540  0.61180  Biso   1.000  C
  H57      1.0000 0.80570  0.30640  0.36860  Biso   1.000  H
  H58      1.0000 0.69430  0.69360  0.86860  Biso   1.000  H
  H59      1.0000 0.19430  0.80640  0.13140  Biso   1.000  H
  H60      1.0000 0.30570  0.19360  0.63140  Biso   1.000  H
  C77      1.0000 0.51820  0.37490  0.36050  Biso   1.000  C
  C78      1.0000 0.98180  0.62510  0.86050  Biso   1.000  C
  C79      1.0000 0.48180  0.87490  0.13950  Biso   1.000  C
  C80      1.0000 0.01820  0.12510  0.63950  Biso   1.000  C
  H61      1.0000 0.51460  0.37460  0.32220  Biso   1.000  H
  H62      1.0000 0.98540  0.62540  0.82220  Biso   1.000  H
  H63      1.0000 0.48540  0.87460  0.17780  Biso   1.000  H
  H64      1.0000 0.01460  0.12540  0.67780  Biso   1.000  H
  C81      1.0000 0.35280  0.41530  0.38920  Biso   1.000  C
  C82      1.0000 0.14720  0.58470  0.88920  Biso   1.000  C
  C83      1.0000 0.64720  0.91530  0.11080  Biso   1.000  C
  C84      1.0000 0.85280  0.08470  0.61080  Biso   1.000  C
  H65      1.0000 0.23470  0.44320  0.37030  Biso   1.000  H
  H66      1.0000 0.26530  0.55680  0.87030  Biso   1.000  H
  H67      1.0000 0.76530  0.94320  0.12970  Biso   1.000  H
  H68      1.0000 0.73470  0.05680  0.62970  Biso   1.000  H
  C85      1.0000 0.35470  0.41630  0.44650  Biso   1.000  C
  C86      1.0000 0.14530  0.58370  0.94650  Biso   1.000  C
  C87      1.0000 0.64530  0.91630  0.05350  Biso   1.000  C
  C88      1.0000 0.85470  0.08370  0.55350  Biso   1.000  C
  H69      1.0000 0.23720  0.44430  0.46540  Biso   1.000  H
  H70      1.0000 0.26280  0.55570  0.96540  Biso   1.000  H
  H71      1.0000 0.76280  0.94430  0.03460  Biso   1.000  H
  H72      1.0000 0.73720  0.05570  0.53460  Biso   1.000  H
  C89      1.0000 0.66570  0.52892  0.73497  Biso   1.000  C
  C90      1.0000 0.83430  0.47108  0.23497  Biso   1.000  C
  C91      1.0000 0.33430  0.02892  0.76503  Biso   1.000  C
  C92      1.0000 0.16570  0.97108  0.26503  Biso   1.000  C
  C93      1.0000 0.60780  0.61289  0.73859  Biso   1.000  C
  C94      1.0000 0.89220  0.38711  0.23859  Biso   1.000  C
  C95      1.0000 0.39220  0.11289  0.76141  Biso   1.000  C
  C96      1.0000 0.10780  0.88711  0.26141  Biso   1.000  C
  H73      1.0000 0.73470  0.64830  0.73840  Biso   1.000  H
  H74      1.0000 0.76530  0.35170  0.23840  Biso   1.000  H
  H75      1.0000 0.26530  0.14830  0.76160  Biso   1.000  H
  H76      1.0000 0.23470  0.85170  0.26160  Biso   1.000  H
  C97      1.0000 0.38170  0.63792  0.74197  Biso   1.000  C
  C98      1.0000 0.11830  0.36208  0.24197  Biso   1.000  C
  C99      1.0000 0.61830  0.13792  0.75803  Biso   1.000  C
  C100     1.0000 0.88170  0.86208  0.25803  Biso   1.000  C
  H77      1.0000 0.25520  0.60240  0.74120  Biso   1.000  H
  H78      1.0000 0.24480  0.39760  0.24120  Biso   1.000  H
  H79      1.0000 0.74480  0.10240  0.75880  Biso   1.000  H
  H80      1.0000 0.75520  0.89760  0.25880  Biso   1.000  H
  C101     1.0000 0.32130  0.72136  0.74700  Biso   1.000  C
  C102     1.0000 0.17870  0.27864  0.24700  Biso   1.000  C
  C103     1.0000 0.67870  0.22136  0.75300  Biso   1.000  C
  C104     1.0000 0.82130  0.77864  0.25300  Biso   1.000  C
  H81      1.0000 0.02500  0.40900  0.74000  Biso   1.000  H
  H82      1.0000 0.47500  0.59100  0.24000  Biso   1.000  H
  H83      1.0000 0.97500  0.90900  0.76000  Biso   1.000  H
  H84      1.0000 0.52500  0.09100  0.26000  Biso   1.000  H
  H85      1.0000 0.04800  0.33100  0.73900  Biso   1.000  H
  H86      1.0000 0.45200  0.66900  0.23900  Biso   1.000  H
  H87      1.0000 0.95200  0.83100  0.76100  Biso   1.000  H
  H88      1.0000 0.54800  0.16900  0.26100  Biso   1.000  H
