data_image0
_cell_length_a       18.4192
_cell_length_b       20.4123
_cell_length_c       8.9376
_cell_angle_alpha    90
_cell_angle_beta     90
_cell_angle_gamma    90

_symmetry_space_group_name_H-M    "P 1"
_symmetry_int_tables_number       1

loop_
  _symmetry_equiv_pos_as_xyz
  'x, y, z'

loop_
  _atom_site_label
  _atom_site_occupancy
  _atom_site_fract_x
  _atom_site_fract_y
  _atom_site_fract_z
  _atom_site_thermal_displace_type
  _atom_site_B_iso_or_equiv
  _atom_site_type_symbol
  Cu1      1.0000 0.98094  0.77270  0.74195  Biso   1.000  Cu
  Cu2      1.0000 0.01906  0.22730  0.74195  Biso   1.000  Cu
  Cu3      1.0000 0.48094  0.72730  0.74195  Biso   1.000  Cu
  Cu4      1.0000 0.51906  0.27270  0.74195  Biso   1.000  Cu
  N1       1.0000 0.08076  0.74700  0.82174  Biso   1.000  N
  N2       1.0000 0.91924  0.25300  0.82174  Biso   1.000  N
  N3       1.0000 0.58076  0.75300  0.82174  Biso   1.000  N
  N4       1.0000 0.41924  0.24700  0.82174  Biso   1.000  N
  O1       1.0000 0.15765  0.59866  0.25536  Biso   1.000  O
  O2       1.0000 0.84235  0.40134  0.25536  Biso   1.000  O
  O3       1.0000 0.65765  0.90134  0.25536  Biso   1.000  O
  O4       1.0000 0.34235  0.09866  0.25536  Biso   1.000  O
  C1       1.0000 0.09719  0.68475  0.85912  Biso   1.000  C
  C2       1.0000 0.90281  0.31525  0.85912  Biso   1.000  C
  C3       1.0000 0.59719  0.81525  0.85912  Biso   1.000  C
  C4       1.0000 0.40281  0.18475  0.85912  Biso   1.000  C
  H1       1.0000 0.06110  0.65190  0.84670  Biso   1.000  H
  H2       1.0000 0.93890  0.34810  0.84670  Biso   1.000  H
  H3       1.0000 0.56110  0.84810  0.84670  Biso   1.000  H
  H4       1.0000 0.43890  0.15190  0.84670  Biso   1.000  H
  N5       1.0000 0.23631  0.58645  0.06141  Biso   1.000  N
  N6       1.0000 0.76369  0.41355  0.06141  Biso   1.000  N
  N7       1.0000 0.73631  0.91355  0.06141  Biso   1.000  N
  N8       1.0000 0.26369  0.08645  0.06141  Biso   1.000  N
  H5       1.0000 0.28150  0.58020  0.03260  Biso   1.000  H
  H6       1.0000 0.71850  0.41980  0.03260  Biso   1.000  H
  H7       1.0000 0.78150  0.91980  0.03260  Biso   1.000  H
  H8       1.0000 0.21850  0.08020  0.03260  Biso   1.000  H
  O5       1.0000 0.27200  0.89794  0.35201  Biso   1.000  O
  O6       1.0000 0.72800  0.10206  0.35201  Biso   1.000  O
  O7       1.0000 0.77200  0.60206  0.35201  Biso   1.000  O
  O8       1.0000 0.22800  0.39794  0.35201  Biso   1.000  O
  C5       1.0000 0.16480  0.66643  0.91523  Biso   1.000  C
  C6       1.0000 0.83520  0.33357  0.91523  Biso   1.000  C
  C7       1.0000 0.66480  0.83357  0.91523  Biso   1.000  C
  C8       1.0000 0.33520  0.16643  0.91523  Biso   1.000  C
  O9       1.0000 0.98497  0.87907  0.80101  Biso   1.000  O
  O10      1.0000 0.01503  0.12093  0.80101  Biso   1.000  O
  O11      1.0000 0.48497  0.62093  0.80101  Biso   1.000  O
  O12      1.0000 0.51503  0.37907  0.80101  Biso   1.000  O
  H9       1.0000 0.02840  0.89080  0.81090  Biso   1.000  H
  H10      1.0000 0.97160  0.10920  0.81090  Biso   1.000  H
  H11      1.0000 0.52840  0.60920  0.81090  Biso   1.000  H
  H12      1.0000 0.47160  0.39080  0.81090  Biso   1.000  H
  H13      1.0000 0.94810  0.89970  0.82310  Biso   1.000  H
  H14      1.0000 0.05190  0.10030  0.82310  Biso   1.000  H
  H15      1.0000 0.44810  0.60030  0.82310  Biso   1.000  H
  H16      1.0000 0.55190  0.39970  0.82310  Biso   1.000  H
  N9       1.0000 0.27707  0.57726  0.30308  Biso   1.000  N
  N10      1.0000 0.72293  0.42274  0.30308  Biso   1.000  N
  N11      1.0000 0.77707  0.92274  0.30308  Biso   1.000  N
  N12      1.0000 0.22293  0.07726  0.30308  Biso   1.000  N
  H17      1.0000 0.31930  0.56650  0.26410  Biso   1.000  H
  H18      1.0000 0.68070  0.43350  0.26410  Biso   1.000  H
  H19      1.0000 0.81930  0.93350  0.26410  Biso   1.000  H
  H20      1.0000 0.18070  0.06650  0.26410  Biso   1.000  H
  C9       1.0000 0.21672  0.71530  0.93498  Biso   1.000  C
  C10      1.0000 0.78328  0.28470  0.93498  Biso   1.000  C
  C11      1.0000 0.71672  0.78470  0.93498  Biso   1.000  C
  C12      1.0000 0.28328  0.21530  0.93498  Biso   1.000  C
  H21      1.0000 0.26310  0.70490  0.97520  Biso   1.000  H
  H22      1.0000 0.73690  0.29510  0.97520  Biso   1.000  H
  H23      1.0000 0.76310  0.79510  0.97520  Biso   1.000  H
  H24      1.0000 0.23690  0.20490  0.97520  Biso   1.000  H
  C13      1.0000 0.20005  0.77933  0.89533  Biso   1.000  C
  C14      1.0000 0.79995  0.22067  0.89533  Biso   1.000  C
  C15      1.0000 0.70005  0.72067  0.89533  Biso   1.000  C
  C16      1.0000 0.29995  0.27933  0.89533  Biso   1.000  C
  H25      1.0000 0.23500  0.81320  0.90750  Biso   1.000  H
  H26      1.0000 0.76500  0.18680  0.90750  Biso   1.000  H
  H27      1.0000 0.73500  0.68680  0.90750  Biso   1.000  H
  H28      1.0000 0.26500  0.31320  0.90750  Biso   1.000  H
  N13      1.0000 0.02785  0.78168  0.53892  Biso   1.000  N
  N14      1.0000 0.97215  0.21832  0.53892  Biso   1.000  N
  N15      1.0000 0.52785  0.71832  0.53892  Biso   1.000  N
  N16      1.0000 0.47215  0.28168  0.53892  Biso   1.000  N
  C17      1.0000 0.13199  0.79326  0.83793  Biso   1.000  C
  C18      1.0000 0.86801  0.20674  0.83793  Biso   1.000  C
  C19      1.0000 0.63199  0.70674  0.83793  Biso   1.000  C
  C20      1.0000 0.36801  0.29326  0.83793  Biso   1.000  C
  H29      1.0000 0.12120  0.83700  0.80900  Biso   1.000  H
  H30      1.0000 0.87880  0.16300  0.80900  Biso   1.000  H
  H31      1.0000 0.62120  0.66300  0.80900  Biso   1.000  H
  H32      1.0000 0.37880  0.33700  0.80900  Biso   1.000  H
  N17      1.0000 0.17471  0.91488  0.20032  Biso   1.000  N
  N18      1.0000 0.82529  0.08512  0.20032  Biso   1.000  N
  N19      1.0000 0.67471  0.58512  0.20032  Biso   1.000  N
  N20      1.0000 0.32529  0.41488  0.20032  Biso   1.000  N
  H33      1.0000 0.15860  0.91830  0.10790  Biso   1.000  H
  H34      1.0000 0.84140  0.08170  0.10790  Biso   1.000  H
  H35      1.0000 0.65860  0.58170  0.10790  Biso   1.000  H
  H36      1.0000 0.34140  0.41830  0.10790  Biso   1.000  H
  N21      1.0000 0.28978  0.92036  0.10467  Biso   1.000  N
  N22      1.0000 0.71022  0.07964  0.10467  Biso   1.000  N
  N23      1.0000 0.78978  0.57964  0.10467  Biso   1.000  N
  N24      1.0000 0.21022  0.42036  0.10467  Biso   1.000  N
  H37      1.0000 0.26990  0.93180  0.01900  Biso   1.000  H
  H38      1.0000 0.73010  0.06820  0.01900  Biso   1.000  H
  H39      1.0000 0.76990  0.56820  0.01900  Biso   1.000  H
  H40      1.0000 0.23010  0.43180  0.01900  Biso   1.000  H
  C21      1.0000 0.18029  0.59505  0.95026  Biso   1.000  C
  C22      1.0000 0.81971  0.40495  0.95026  Biso   1.000  C
  C23      1.0000 0.68029  0.90495  0.95026  Biso   1.000  C
  C24      1.0000 0.31971  0.09505  0.95026  Biso   1.000  C
  H41      1.0000 0.13510  0.57410  0.98630  Biso   1.000  H
  H42      1.0000 0.86490  0.42590  0.98630  Biso   1.000  H
  H43      1.0000 0.63510  0.92590  0.98630  Biso   1.000  H
  H44      1.0000 0.36490  0.07410  0.98630  Biso   1.000  H
  H45      1.0000 0.19520  0.57250  0.85710  Biso   1.000  H
  H46      1.0000 0.80480  0.42750  0.85710  Biso   1.000  H
  H47      1.0000 0.69520  0.92750  0.85710  Biso   1.000  H
  H48      1.0000 0.30480  0.07250  0.85710  Biso   1.000  H
  N25      1.0000 0.38182  0.71791  0.64267  Biso   1.000  N
  N26      1.0000 0.61818  0.28209  0.64267  Biso   1.000  N
  N27      1.0000 0.88182  0.78209  0.64267  Biso   1.000  N
  N28      1.0000 0.11818  0.21791  0.64267  Biso   1.000  N
  C25      1.0000 0.22044  0.58788  0.20965  Biso   1.000  C
  C26      1.0000 0.77956  0.41212  0.20965  Biso   1.000  C
  C27      1.0000 0.72044  0.91212  0.20965  Biso   1.000  C
  C28      1.0000 0.27956  0.08788  0.20965  Biso   1.000  C
  N29      1.0000 0.43555  0.75494  0.93802  Biso   1.000  N
  N30      1.0000 0.56445  0.24506  0.93802  Biso   1.000  N
  N31      1.0000 0.93555  0.74506  0.93802  Biso   1.000  N
  N32      1.0000 0.06445  0.25494  0.93802  Biso   1.000  N
  C29      1.0000 0.27138  0.58286  0.46415  Biso   1.000  C
  C30      1.0000 0.72862  0.41714  0.46415  Biso   1.000  C
  C31      1.0000 0.77138  0.91714  0.46415  Biso   1.000  C
  C32      1.0000 0.22862  0.08286  0.46415  Biso   1.000  C
  H49      1.0000 0.30300  0.54950  0.51140  Biso   1.000  H
  H50      1.0000 0.69700  0.45050  0.51140  Biso   1.000  H
  H51      1.0000 0.80300  0.95050  0.51140  Biso   1.000  H
  H52      1.0000 0.19700  0.04950  0.51140  Biso   1.000  H
  H53      1.0000 0.22070  0.57370  0.49470  Biso   1.000  H
  H54      1.0000 0.77930  0.42630  0.49470  Biso   1.000  H
  H55      1.0000 0.72070  0.92630  0.49470  Biso   1.000  H
  H56      1.0000 0.27930  0.07370  0.49470  Biso   1.000  H
  C33      1.0000 0.05774  0.83872  0.49620  Biso   1.000  C
  C34      1.0000 0.94226  0.16128  0.49620  Biso   1.000  C
  C35      1.0000 0.55774  0.66128  0.49620  Biso   1.000  C
  C36      1.0000 0.44226  0.33872  0.49620  Biso   1.000  C
  H57      1.0000 0.05320  0.87550  0.56050  Biso   1.000  H
  H58      1.0000 0.94680  0.12450  0.56050  Biso   1.000  H
  H59      1.0000 0.55320  0.62450  0.56050  Biso   1.000  H
  H60      1.0000 0.44680  0.37550  0.56050  Biso   1.000  H
  C37      1.0000 0.09505  0.84630  0.36202  Biso   1.000  C
  C38      1.0000 0.90495  0.15370  0.36202  Biso   1.000  C
  C39      1.0000 0.59505  0.65370  0.36202  Biso   1.000  C
  C40      1.0000 0.40495  0.34630  0.36202  Biso   1.000  C
  C41      1.0000 0.10163  0.79190  0.26982  Biso   1.000  C
  C42      1.0000 0.89837  0.20810  0.26982  Biso   1.000  C
  C43      1.0000 0.60163  0.70810  0.26982  Biso   1.000  C
  C44      1.0000 0.39837  0.29190  0.26982  Biso   1.000  C
  H61      1.0000 0.12720  0.79500  0.17780  Biso   1.000  H
  H62      1.0000 0.87280  0.20500  0.17780  Biso   1.000  H
  H63      1.0000 0.62720  0.70500  0.17780  Biso   1.000  H
  H64      1.0000 0.37280  0.29500  0.17780  Biso   1.000  H
  C45      1.0000 0.07035  0.73265  0.31342  Biso   1.000  C
  C46      1.0000 0.92965  0.26735  0.31342  Biso   1.000  C
  C47      1.0000 0.57035  0.76735  0.31342  Biso   1.000  C
  C48      1.0000 0.42965  0.23265  0.31342  Biso   1.000  C
  H65      1.0000 0.07410  0.69500  0.25130  Biso   1.000  H
  H66      1.0000 0.92590  0.30500  0.25130  Biso   1.000  H
  H67      1.0000 0.57410  0.80500  0.25130  Biso   1.000  H
  H68      1.0000 0.42590  0.19500  0.25130  Biso   1.000  H
  C49      1.0000 0.03379  0.72939  0.44829  Biso   1.000  C
  C50      1.0000 0.96621  0.27061  0.44829  Biso   1.000  C
  C51      1.0000 0.53379  0.77061  0.44829  Biso   1.000  C
  C52      1.0000 0.46621  0.22939  0.44829  Biso   1.000  C
  H69      1.0000 0.01230  0.68910  0.47770  Biso   1.000  H
  H70      1.0000 0.98770  0.31090  0.47770  Biso   1.000  H
  H71      1.0000 0.51230  0.81090  0.47770  Biso   1.000  H
  H72      1.0000 0.48770  0.18910  0.47770  Biso   1.000  H
  C53      1.0000 0.12403  0.91367  0.32312  Biso   1.000  C
  C54      1.0000 0.87597  0.08633  0.32312  Biso   1.000  C
  C55      1.0000 0.62403  0.58633  0.32312  Biso   1.000  C
  C56      1.0000 0.37597  0.41367  0.32312  Biso   1.000  C
  H73      1.0000 0.08250  0.94250  0.29820  Biso   1.000  H
  H74      1.0000 0.91750  0.05750  0.29820  Biso   1.000  H
  H75      1.0000 0.58250  0.55750  0.29820  Biso   1.000  H
  H76      1.0000 0.41750  0.44250  0.29820  Biso   1.000  H
  H77      1.0000 0.14810  0.93220  0.41270  Biso   1.000  H
  H78      1.0000 0.85190  0.06780  0.41270  Biso   1.000  H
  H79      1.0000 0.64810  0.56780  0.41270  Biso   1.000  H
  H80      1.0000 0.35190  0.43220  0.41270  Biso   1.000  H
  C57      1.0000 0.24722  0.91086  0.22637  Biso   1.000  C
  C58      1.0000 0.75278  0.08914  0.22637  Biso   1.000  C
  C59      1.0000 0.74722  0.58914  0.22637  Biso   1.000  C
  C60      1.0000 0.25278  0.41086  0.22637  Biso   1.000  C
  C61      1.0000 0.36797  0.91184  0.11415  Biso   1.000  C
  C62      1.0000 0.63203  0.08816  0.11415  Biso   1.000  C
  C63      1.0000 0.86797  0.58816  0.11415  Biso   1.000  C
  C64      1.0000 0.13203  0.41184  0.11415  Biso   1.000  C
  H81      1.0000 0.38530  0.92800  0.21240  Biso   1.000  H
  H82      1.0000 0.61470  0.07200  0.21240  Biso   1.000  H
  H83      1.0000 0.88530  0.57200  0.21240  Biso   1.000  H
  H84      1.0000 0.11470  0.42800  0.21240  Biso   1.000  H
  H85      1.0000 0.39170  0.93830  0.03520  Biso   1.000  H
  H86      1.0000 0.60830  0.06170  0.03520  Biso   1.000  H
  H87      1.0000 0.89170  0.56170  0.03520  Biso   1.000  H
  H88      1.0000 0.10830  0.43830  0.03520  Biso   1.000  H
  C65      1.0000 0.35911  0.65917  0.59199  Biso   1.000  C
  C66      1.0000 0.64089  0.34083  0.59199  Biso   1.000  C
  C67      1.0000 0.85911  0.84083  0.59199  Biso   1.000  C
  C68      1.0000 0.14089  0.15917  0.59199  Biso   1.000  C
  H89      1.0000 0.38970  0.62220  0.60610  Biso   1.000  H
  H90      1.0000 0.61030  0.37780  0.60610  Biso   1.000  H
  H91      1.0000 0.88970  0.87780  0.60610  Biso   1.000  H
  H92      1.0000 0.11030  0.12220  0.60610  Biso   1.000  H
  C69      1.0000 0.29298  0.65014  0.52008  Biso   1.000  C
  C70      1.0000 0.70702  0.34986  0.52008  Biso   1.000  C
  C71      1.0000 0.79298  0.84986  0.52008  Biso   1.000  C
  C72      1.0000 0.20702  0.15014  0.52008  Biso   1.000  C
  C73      1.0000 0.24878  0.70482  0.49861  Biso   1.000  C
  C74      1.0000 0.75122  0.29518  0.49861  Biso   1.000  C
  C75      1.0000 0.74878  0.79518  0.49861  Biso   1.000  C
  C76      1.0000 0.25122  0.20482  0.49861  Biso   1.000  C
  H93      1.0000 0.20310  0.70050  0.45010  Biso   1.000  H
  H94      1.0000 0.79690  0.29950  0.45010  Biso   1.000  H
  H95      1.0000 0.70310  0.79950  0.45010  Biso   1.000  H
  H96      1.0000 0.29690  0.20050  0.45010  Biso   1.000  H
  C77      1.0000 0.27215  0.76564  0.54884  Biso   1.000  C
  C78      1.0000 0.72785  0.23436  0.54884  Biso   1.000  C
  C79      1.0000 0.77215  0.73436  0.54884  Biso   1.000  C
  C80      1.0000 0.22785  0.26564  0.54884  Biso   1.000  C
  H97      1.0000 0.24300  0.80350  0.53410  Biso   1.000  H
  H98      1.0000 0.75700  0.19650  0.53410  Biso   1.000  H
  H99      1.0000 0.74300  0.69650  0.53410  Biso   1.000  H
  H100     1.0000 0.25700  0.30350  0.53410  Biso   1.000  H
  C81      1.0000 0.33857  0.77033  0.62085  Biso   1.000  C
  C82      1.0000 0.66143  0.22967  0.62085  Biso   1.000  C
  C83      1.0000 0.83857  0.72967  0.62085  Biso   1.000  C
  C84      1.0000 0.16143  0.27033  0.62085  Biso   1.000  C
  H101     1.0000 0.35420  0.81190  0.65610  Biso   1.000  H
  H102     1.0000 0.64580  0.18810  0.65610  Biso   1.000  H
  H103     1.0000 0.85420  0.68810  0.65610  Biso   1.000  H
  H104     1.0000 0.14580  0.31190  0.65610  Biso   1.000  H
  C85      1.0000 0.42554  0.71181  0.04972  Biso   1.000  C
  C86      1.0000 0.57446  0.28819  0.04972  Biso   1.000  C
  C87      1.0000 0.92554  0.78819  0.04972  Biso   1.000  C
  C88      1.0000 0.07446  0.21181  0.04972  Biso   1.000  C
  H105     1.0000 0.43820  0.66720  0.03380  Biso   1.000  H
  H106     1.0000 0.56180  0.33280  0.03380  Biso   1.000  H
  H107     1.0000 0.93820  0.83280  0.03380  Biso   1.000  H
  H108     1.0000 0.06180  0.16720  0.03380  Biso   1.000  H
  C89      1.0000 0.39746  0.73010  0.18708  Biso   1.000  C
  C90      1.0000 0.60254  0.26990  0.18708  Biso   1.000  C
  C91      1.0000 0.89746  0.76990  0.18708  Biso   1.000  C
  C92      1.0000 0.10254  0.23010  0.18708  Biso   1.000  C
  H109     1.0000 0.39070  0.69860  0.26400  Biso   1.000  H
  H110     1.0000 0.60930  0.30140  0.26400  Biso   1.000  H
  H111     1.0000 0.89070  0.80140  0.26400  Biso   1.000  H
  H112     1.0000 0.10930  0.19860  0.26400  Biso   1.000  H
  C93      1.0000 0.37932  0.79564  0.21084  Biso   1.000  C
  C94      1.0000 0.62068  0.20436  0.21084  Biso   1.000  C
  C95      1.0000 0.87932  0.70436  0.21084  Biso   1.000  C
  C96      1.0000 0.12068  0.29564  0.21084  Biso   1.000  C
  H113     1.0000 0.36030  0.80930  0.30450  Biso   1.000  H
  H114     1.0000 0.63970  0.19070  0.30450  Biso   1.000  H
  H115     1.0000 0.86030  0.69070  0.30450  Biso   1.000  H
  H116     1.0000 0.13970  0.30930  0.30450  Biso   1.000  H
  C97      1.0000 0.38940  0.84086  0.09588  Biso   1.000  C
  C98      1.0000 0.61060  0.15914  0.09588  Biso   1.000  C
  C99      1.0000 0.88940  0.65914  0.09588  Biso   1.000  C
  C100     1.0000 0.11060  0.34086  0.09588  Biso   1.000  C
  C101     1.0000 0.41771  0.81821  0.96164  Biso   1.000  C
  C102     1.0000 0.58229  0.18179  0.96164  Biso   1.000  C
  C103     1.0000 0.91771  0.68179  0.96164  Biso   1.000  C
  C104     1.0000 0.08229  0.31821  0.96164  Biso   1.000  C
  H117     1.0000 0.42490  0.84870  0.88260  Biso   1.000  H
  H118     1.0000 0.57510  0.15130  0.88260  Biso   1.000  H
  H119     1.0000 0.92490  0.65130  0.88260  Biso   1.000  H
  H120     1.0000 0.07510  0.34870  0.88260  Biso   1.000  H
  S1       1.0000 0.14795  0.98622  0.81883  Biso   1.000  S
  S2       1.0000 0.85205  0.01378  0.81883  Biso   1.000  S
  S3       1.0000 0.64795  0.51378  0.81883  Biso   1.000  S
  S4       1.0000 0.35205  0.48622  0.81883  Biso   1.000  S
  O13      1.0000 0.12351  0.97843  0.66390  Biso   1.000  O
  O14      1.0000 0.87649  0.02157  0.66390  Biso   1.000  O
  O15      1.0000 0.62351  0.52157  0.66390  Biso   1.000  O
  O16      1.0000 0.37649  0.47843  0.66390  Biso   1.000  O
  O17      1.0000 0.10283  0.94306  0.91690  Biso   1.000  O
  O18      1.0000 0.89717  0.05694  0.91690  Biso   1.000  O
  O19      1.0000 0.60283  0.55694  0.91690  Biso   1.000  O
  O20      1.0000 0.39717  0.44306  0.91690  Biso   1.000  O
  O21      1.0000 0.13938  0.05479  0.86988  Biso   1.000  O
  O22      1.0000 0.86062  0.94521  0.86988  Biso   1.000  O
  O23      1.0000 0.63938  0.44521  0.86988  Biso   1.000  O
  O24      1.0000 0.36062  0.55479  0.86988  Biso   1.000  O
  O25      1.0000 0.22453  0.96605  0.83370  Biso   1.000  O
  O26      1.0000 0.77547  0.03395  0.83370  Biso   1.000  O
  O27      1.0000 0.72453  0.53395  0.83370  Biso   1.000  O
  O28      1.0000 0.27547  0.46605  0.83370  Biso   1.000  O
  O29      1.0000 0.00000  0.00000  0.51176  Biso   1.000  O
  O30      1.0000 0.50000  0.50000  0.51176  Biso   1.000  O
  H121     1.0000 0.00000  0.00000  0.43920  Biso   1.000  H
  H122     1.0000 0.50000  0.50000  0.43920  Biso   1.000  H
  H123     1.0000 0.03730  0.99310  0.57130  Biso   1.000  H
  H124     1.0000 0.96270  0.00690  0.57130  Biso   1.000  H
  H125     1.0000 0.53730  0.50690  0.57130  Biso   1.000  H
  H126     1.0000 0.46270  0.49310  0.57130  Biso   1.000  H
  O31      1.0000 0.00000  0.00000  0.08344  Biso   1.000  O
  O32      1.0000 0.50000  0.50000  0.08344  Biso   1.000  O
  O33      1.0000 0.93224  0.92018  0.28726  Biso   1.000  O
  O34      1.0000 0.06776  0.07982  0.28726  Biso   1.000  O
  O35      1.0000 0.43224  0.57982  0.28726  Biso   1.000  O
  O36      1.0000 0.56776  0.42018  0.28726  Biso   1.000  O
  H127     1.0000 0.93620  0.93750  0.19350  Biso   1.000  H
  H128     1.0000 0.06380  0.06250  0.19350  Biso   1.000  H
  H129     1.0000 0.43620  0.56250  0.19350  Biso   1.000  H
  H130     1.0000 0.56380  0.43750  0.19350  Biso   1.000  H
  H131     1.0000 0.95660  0.92750  0.36260  Biso   1.000  H
  H132     1.0000 0.04340  0.07250  0.36260  Biso   1.000  H
  H133     1.0000 0.45660  0.57250  0.36260  Biso   1.000  H
  H134     1.0000 0.54340  0.42750  0.36260  Biso   1.000  H
  O37      1.0000 0.32847  0.94604  0.61257  Biso   1.000  O
  O38      1.0000 0.67153  0.05396  0.61257  Biso   1.000  O
  O39      1.0000 0.82847  0.55396  0.61257  Biso   1.000  O
  O40      1.0000 0.17153  0.44604  0.61257  Biso   1.000  O
  H135     1.0000 0.31590  0.91790  0.64280  Biso   1.000  H
  H136     1.0000 0.68410  0.08210  0.64280  Biso   1.000  H
  H137     1.0000 0.81590  0.58210  0.64280  Biso   1.000  H
  H138     1.0000 0.18410  0.41790  0.64280  Biso   1.000  H
  H139     1.0000 0.29430  0.93840  0.50850  Biso   1.000  H
  H140     1.0000 0.70570  0.06160  0.50850  Biso   1.000  H
  H141     1.0000 0.79430  0.56160  0.50850  Biso   1.000  H
  H142     1.0000 0.20570  0.43840  0.50850  Biso   1.000  H
  O41      1.0000 0.96714  0.60080  0.66531  Biso   1.000  O
  O42      1.0000 0.03286  0.39920  0.66531  Biso   1.000  O
  O43      1.0000 0.46714  0.89920  0.66531  Biso   1.000  O
  O44      1.0000 0.53286  0.10080  0.66531  Biso   1.000  O
  H143     1.0000 0.93980  0.59570  0.64700  Biso   1.000  H
  H144     1.0000 0.06020  0.40430  0.64700  Biso   1.000  H
  H145     1.0000 0.43980  0.90430  0.64700  Biso   1.000  H
  H146     1.0000 0.56020  0.09570  0.64700  Biso   1.000  H
  H147     1.0000 0.99940  0.58190  0.63200  Biso   1.000  H
  H148     1.0000 0.00060  0.41810  0.63200  Biso   1.000  H
  H149     1.0000 0.49940  0.91810  0.63200  Biso   1.000  H
  H150     1.0000 0.50060  0.08190  0.63200  Biso   1.000  H
  O45      1.0000 0.09095  0.56431  0.53560  Biso   1.000  O
  O46      1.0000 0.90905  0.43569  0.53560  Biso   1.000  O
  O47      1.0000 0.59095  0.93569  0.53560  Biso   1.000  O
  O48      1.0000 0.40905  0.06431  0.53560  Biso   1.000  O
  O49      1.0000 0.00000  0.50000  0.88760  Biso   1.000  O
  O50      1.0000 0.50000  0.00000  0.88760  Biso   1.000  O
  O51      1.0000 0.02134  0.54359  0.19050  Biso   1.000  O
  O52      1.0000 0.97866  0.45641  0.19050  Biso   1.000  O
  O53      1.0000 0.52134  0.95641  0.19050  Biso   1.000  O
  O54      1.0000 0.47866  0.04359  0.19050  Biso   1.000  O
  O55      1.0000 0.02600  0.56020  0.38280  Biso   1.000  O
  O56      1.0000 0.97400  0.43980  0.38280  Biso   1.000  O
  O57      1.0000 0.52600  0.93980  0.38280  Biso   1.000  O
  O58      1.0000 0.47400  0.06020  0.38280  Biso   1.000  O
  H151     1.0000 0.05790  0.53710  0.44380  Biso   1.000  H
  H152     1.0000 0.94210  0.46290  0.44380  Biso   1.000  H
  H153     1.0000 0.55790  0.96290  0.44380  Biso   1.000  H
  H154     1.0000 0.44210  0.03710  0.44380  Biso   1.000  H
