data_image0
_cell_length_a       11.0549
_cell_length_b       21.4021
_cell_length_c       15.442
_cell_angle_alpha    90
_cell_angle_beta     105.118
_cell_angle_gamma    90

_symmetry_space_group_name_H-M    "P 1"
_symmetry_int_tables_number       1

loop_
  _symmetry_equiv_pos_as_xyz
  'x, y, z'

loop_
  _atom_site_label
  _atom_site_occupancy
  _atom_site_fract_x
  _atom_site_fract_y
  _atom_site_fract_z
  _atom_site_thermal_displace_type
  _atom_site_B_iso_or_equiv
  _atom_site_type_symbol
  Cu1      1.0000 0.54832  0.23840  0.23039  Biso   1.000  Cu
  Cu2      1.0000 0.45168  0.73840  0.26961  Biso   1.000  Cu
  Cu3      1.0000 0.45168  0.76160  0.76961  Biso   1.000  Cu
  Cu4      1.0000 0.54832  0.26160  0.73039  Biso   1.000  Cu
  Cl1      1.0000 0.72596  0.15301  0.25874  Biso   1.000  Cl
  Cl2      1.0000 0.27404  0.65301  0.24126  Biso   1.000  Cl
  Cl3      1.0000 0.27404  0.84699  0.74126  Biso   1.000  Cl
  Cl4      1.0000 0.72596  0.34699  0.75874  Biso   1.000  Cl
  Cl5      1.0000 0.34000  0.33710  0.19084  Biso   1.000  Cl
  Cl6      1.0000 0.66000  0.83710  0.30916  Biso   1.000  Cl
  Cl7      1.0000 0.66000  0.66290  0.80916  Biso   1.000  Cl
  Cl8      1.0000 0.34000  0.16290  0.69084  Biso   1.000  Cl
  N1       1.0000 0.63740  0.28749  0.34127  Biso   1.000  N
  N2       1.0000 0.36260  0.78749  0.15873  Biso   1.000  N
  N3       1.0000 0.36260  0.71251  0.65873  Biso   1.000  N
  N4       1.0000 0.63740  0.21251  0.84127  Biso   1.000  N
  C1       1.0000 0.76380  0.29269  0.36450  Biso   1.000  C
  C2       1.0000 0.23620  0.79269  0.13550  Biso   1.000  C
  C3       1.0000 0.23620  0.70731  0.63550  Biso   1.000  C
  C4       1.0000 0.76380  0.20731  0.86450  Biso   1.000  C
  H1       1.0000 0.81050  0.26830  0.33320  Biso   1.000  H
  H2       1.0000 0.18950  0.76830  0.16680  Biso   1.000  H
  H3       1.0000 0.18950  0.73170  0.66680  Biso   1.000  H
  H4       1.0000 0.81050  0.23170  0.83320  Biso   1.000  H
  C5       1.0000 0.82740  0.33195  0.43184  Biso   1.000  C
  C6       1.0000 0.17260  0.83195  0.06816  Biso   1.000  C
  C7       1.0000 0.17260  0.66805  0.56816  Biso   1.000  C
  C8       1.0000 0.82740  0.16805  0.93184  Biso   1.000  C
  C9       1.0000 0.75810  0.36717  0.47708  Biso   1.000  C
  C10      1.0000 0.24190  0.86717  0.02292  Biso   1.000  C
  C11      1.0000 0.24190  0.63283  0.52292  Biso   1.000  C
  C12      1.0000 0.75810  0.13283  0.97708  Biso   1.000  C
  H5       1.0000 0.79880  0.39510  0.52330  Biso   1.000  H
  H6       1.0000 0.20120  0.89510  0.97670  Biso   1.000  H
  H7       1.0000 0.20120  0.60490  0.47670  Biso   1.000  H
  H8       1.0000 0.79880  0.10490  0.02330  Biso   1.000  H
  C13      1.0000 0.62870  0.36112  0.45420  Biso   1.000  C
  C14      1.0000 0.37130  0.86112  0.04580  Biso   1.000  C
  C15      1.0000 0.37130  0.63888  0.54580  Biso   1.000  C
  C16      1.0000 0.62870  0.13888  0.95420  Biso   1.000  C
  H9       1.0000 0.57980  0.38420  0.48530  Biso   1.000  H
  H10      1.0000 0.42020  0.88420  0.01470  Biso   1.000  H
  H11      1.0000 0.42020  0.61580  0.51470  Biso   1.000  H
  H12      1.0000 0.57980  0.11580  0.98530  Biso   1.000  H
  C17      1.0000 0.57210  0.32123  0.38579  Biso   1.000  C
  C18      1.0000 0.42790  0.82123  0.11421  Biso   1.000  C
  C19      1.0000 0.42790  0.67877  0.61421  Biso   1.000  C
  C20      1.0000 0.57210  0.17877  0.88579  Biso   1.000  C
  H13      1.0000 0.48340  0.31760  0.36970  Biso   1.000  H
  H14      1.0000 0.51660  0.81760  0.13030  Biso   1.000  H
  H15      1.0000 0.51660  0.68240  0.63030  Biso   1.000  H
  H16      1.0000 0.48340  0.18240  0.86970  Biso   1.000  H
  C21      1.0000 0.96960  0.33603  0.45280  Biso   1.000  C
  C22      1.0000 0.03040  0.83603  0.04720  Biso   1.000  C
  C23      1.0000 0.03040  0.66397  0.54720  Biso   1.000  C
  C24      1.0000 0.96960  0.16397  0.95280  Biso   1.000  C
  H17      1.0000 0.00420  0.29320  0.45510  Biso   1.000  H
  H18      1.0000 0.99580  0.79320  0.04490  Biso   1.000  H
  H19      1.0000 0.99580  0.70680  0.54490  Biso   1.000  H
  H20      1.0000 0.00420  0.20680  0.95510  Biso   1.000  H
  H21      1.0000 0.99260  0.35860  0.40340  Biso   1.000  H
  H22      1.0000 0.00740  0.85860  0.09660  Biso   1.000  H
  H23      1.0000 0.00740  0.64140  0.59660  Biso   1.000  H
  H24      1.0000 0.99260  0.14140  0.90340  Biso   1.000  H
  H25      1.0000 0.00060  0.31370  0.40670  Biso   1.000  H
  H26      1.0000 0.99940  0.81370  0.09330  Biso   1.000  H
  H27      1.0000 0.99940  0.68630  0.59330  Biso   1.000  H
  H28      1.0000 0.00060  0.18630  0.90670  Biso   1.000  H
  H29      1.0000 0.99660  0.38020  0.45430  Biso   1.000  H
  H30      1.0000 0.00340  0.88020  0.04570  Biso   1.000  H
  H31      1.0000 0.00340  0.61980  0.54570  Biso   1.000  H
  H32      1.0000 0.99660  0.11980  0.95430  Biso   1.000  H
  N5       1.0000 0.02600  0.36698  0.53555  Biso   1.000  N
  N6       1.0000 0.97400  0.86698  0.96445  Biso   1.000  N
  N7       1.0000 0.97400  0.63302  0.46445  Biso   1.000  N
  N8       1.0000 0.02600  0.13302  0.03555  Biso   1.000  N
  H33      1.0000 0.04970  0.40620  0.53470  Biso   1.000  H
  H34      1.0000 0.95030  0.90620  0.96530  Biso   1.000  H
  H35      1.0000 0.95030  0.59380  0.46530  Biso   1.000  H
  H36      1.0000 0.04970  0.09380  0.03470  Biso   1.000  H
  C25      1.0000 0.04380  0.33690  0.61550  Biso   1.000  C
  C26      1.0000 0.95620  0.83690  0.88450  Biso   1.000  C
  C27      1.0000 0.95620  0.66310  0.38450  Biso   1.000  C
  C28      1.0000 0.04380  0.16310  0.11550  Biso   1.000  C
  O1       1.0000 0.03270  0.27959  0.61867  Biso   1.000  O
  O2       1.0000 0.96730  0.77959  0.88133  Biso   1.000  O
  O3       1.0000 0.96730  0.72041  0.38133  Biso   1.000  O
  O4       1.0000 0.03270  0.22041  0.11867  Biso   1.000  O
  N9       1.0000 0.07590  0.37391  0.68831  Biso   1.000  N
  N10      1.0000 0.92410  0.87391  0.81169  Biso   1.000  N
  N11      1.0000 0.92410  0.62609  0.31169  Biso   1.000  N
  N12      1.0000 0.07590  0.12609  0.18831  Biso   1.000  N
  H37      1.0000 0.07860  0.41460  0.68100  Biso   1.000  H
  H38      1.0000 0.92140  0.91460  0.81900  Biso   1.000  H
  H39      1.0000 0.92140  0.58540  0.31900  Biso   1.000  H
  H40      1.0000 0.07860  0.08540  0.18100  Biso   1.000  H
  N13      1.0000 0.01650  0.30490  0.54350  Biso   1.000  N
  N14      1.0000 0.98350  0.80490  0.95650  Biso   1.000  N
  N15      1.0000 0.98350  0.69510  0.45650  Biso   1.000  N
  N16      1.0000 0.01650  0.19510  0.04350  Biso   1.000  N
  H41      1.0000 0.02940  0.26430  0.54710  Biso   1.000  H
  H42      1.0000 0.97060  0.76430  0.95290  Biso   1.000  H
  H43      1.0000 0.97060  0.73570  0.45290  Biso   1.000  H
  H44      1.0000 0.02940  0.23570  0.04710  Biso   1.000  H
  C29      1.0000 0.03800  0.33940  0.61780  Biso   1.000  C
  C30      1.0000 0.96200  0.83940  0.88220  Biso   1.000  C
  C31      1.0000 0.96200  0.66060  0.38220  Biso   1.000  C
  C32      1.0000 0.03800  0.16060  0.11780  Biso   1.000  C
  O5       1.0000 0.03400  0.39720  0.61930  Biso   1.000  O
  O6       1.0000 0.96600  0.89720  0.88070  Biso   1.000  O
  O7       1.0000 0.96600  0.60280  0.38070  Biso   1.000  O
  O8       1.0000 0.03400  0.10280  0.11930  Biso   1.000  O
  N17      1.0000 0.06970  0.30750  0.69820  Biso   1.000  N
  N18      1.0000 0.93030  0.80750  0.80180  Biso   1.000  N
  N19      1.0000 0.93030  0.69250  0.30180  Biso   1.000  N
  N20      1.0000 0.06970  0.19250  0.19820  Biso   1.000  N
  H45      1.0000 0.06820  0.26650  0.70120  Biso   1.000  H
  H46      1.0000 0.93180  0.76650  0.79880  Biso   1.000  H
  H47      1.0000 0.93180  0.73350  0.29880  Biso   1.000  H
  H48      1.0000 0.06820  0.23350  0.20120  Biso   1.000  H
  C33      1.0000 0.10690  0.34809  0.77990  Biso   1.000  C
  C34      1.0000 0.89310  0.84809  0.72010  Biso   1.000  C
  C35      1.0000 0.89310  0.65191  0.22010  Biso   1.000  C
  C36      1.0000 0.10690  0.15191  0.27990  Biso   1.000  C
  H49      1.0000 0.07010  0.30580  0.77870  Biso   1.000  H
  H50      1.0000 0.92990  0.80580  0.72130  Biso   1.000  H
  H51      1.0000 0.92990  0.69420  0.22130  Biso   1.000  H
  H52      1.0000 0.07010  0.19420  0.27870  Biso   1.000  H
  H53      1.0000 0.07010  0.37490  0.81860  Biso   1.000  H
  H54      1.0000 0.92990  0.87490  0.68140  Biso   1.000  H
  H55      1.0000 0.92990  0.62510  0.18140  Biso   1.000  H
  H56      1.0000 0.07010  0.12510  0.31860  Biso   1.000  H
  H57      1.0000 0.06380  0.33350  0.82490  Biso   1.000  H
  H58      1.0000 0.93620  0.83350  0.67510  Biso   1.000  H
  H59      1.0000 0.93620  0.66650  0.17510  Biso   1.000  H
  H60      1.0000 0.06380  0.16650  0.32490  Biso   1.000  H
  H61      1.0000 0.08200  0.39200  0.76460  Biso   1.000  H
  H62      1.0000 0.91800  0.89200  0.73540  Biso   1.000  H
  H63      1.0000 0.91800  0.60800  0.23540  Biso   1.000  H
  H64      1.0000 0.08200  0.10800  0.26460  Biso   1.000  H
  C37      1.0000 0.24740  0.34428  0.81872  Biso   1.000  C
  C38      1.0000 0.75260  0.84428  0.68128  Biso   1.000  C
  C39      1.0000 0.75260  0.65572  0.18128  Biso   1.000  C
  C40      1.0000 0.24740  0.15572  0.31872  Biso   1.000  C
  C41      1.0000 0.32080  0.31120  0.77454  Biso   1.000  C
  C42      1.0000 0.67920  0.81120  0.72546  Biso   1.000  C
  C43      1.0000 0.67920  0.68880  0.22546  Biso   1.000  C
  C44      1.0000 0.32080  0.18880  0.27454  Biso   1.000  C
  H65      1.0000 0.28010  0.28940  0.72130  Biso   1.000  H
  H66      1.0000 0.71990  0.78940  0.77870  Biso   1.000  H
  H67      1.0000 0.71990  0.71060  0.27870  Biso   1.000  H
  H68      1.0000 0.28010  0.21060  0.22130  Biso   1.000  H
  N21      1.0000 0.44550  0.30816  0.80260  Biso   1.000  N
  N22      1.0000 0.55450  0.80816  0.69740  Biso   1.000  N
  N23      1.0000 0.55450  0.69184  0.19740  Biso   1.000  N
  N24      1.0000 0.44550  0.19184  0.30260  Biso   1.000  N
  C45      1.0000 0.50350  0.33858  0.87835  Biso   1.000  C
  C46      1.0000 0.49650  0.83858  0.62165  Biso   1.000  C
  C47      1.0000 0.49650  0.66142  0.12165  Biso   1.000  C
  C48      1.0000 0.50350  0.16142  0.37835  Biso   1.000  C
  H69      1.0000 0.59230  0.33720  0.89880  Biso   1.000  H
  H70      1.0000 0.40770  0.83720  0.60120  Biso   1.000  H
  H71      1.0000 0.40770  0.66280  0.10120  Biso   1.000  H
  H72      1.0000 0.59230  0.16280  0.39880  Biso   1.000  H
  C49      1.0000 0.43640  0.37161  0.92660  Biso   1.000  C
  C50      1.0000 0.56360  0.87161  0.57340  Biso   1.000  C
  C51      1.0000 0.56360  0.62839  0.07340  Biso   1.000  C
  C52      1.0000 0.43640  0.12839  0.42660  Biso   1.000  C
  H73      1.0000 0.47880  0.39240  0.98030  Biso   1.000  H
  H74      1.0000 0.52120  0.89240  0.51970  Biso   1.000  H
  H75      1.0000 0.52120  0.60760  0.01970  Biso   1.000  H
  H76      1.0000 0.47880  0.10760  0.48030  Biso   1.000  H
  C53      1.0000 0.30750  0.37452  0.89693  Biso   1.000  C
  C54      1.0000 0.69250  0.87452  0.60307  Biso   1.000  C
  C55      1.0000 0.69250  0.62548  0.10307  Biso   1.000  C
  C56      1.0000 0.30750  0.12548  0.39693  Biso   1.000  C
  H77      1.0000 0.26070  0.39710  0.93010  Biso   1.000  H
  H78      1.0000 0.73930  0.89710  0.56990  Biso   1.000  H
  H79      1.0000 0.73930  0.60290  0.06990  Biso   1.000  H
  H80      1.0000 0.26070  0.10290  0.43010  Biso   1.000  H
  N25      1.0000 0.63600  0.29490  0.15950  Biso   1.000  N
  N26      1.0000 0.36400  0.79490  0.34050  Biso   1.000  N
  N27      1.0000 0.36400  0.70510  0.84050  Biso   1.000  N
  N28      1.0000 0.63600  0.20510  0.65950  Biso   1.000  N
  C57      1.0000 0.63490  0.35738  0.16929  Biso   1.000  C
  C58      1.0000 0.36510  0.85738  0.33071  Biso   1.000  C
  C59      1.0000 0.36510  0.64262  0.83071  Biso   1.000  C
  C60      1.0000 0.63490  0.14262  0.66929  Biso   1.000  C
  H81      1.0000 0.58390  0.37480  0.20400  Biso   1.000  H
  H82      1.0000 0.41610  0.87480  0.29600  Biso   1.000  H
  H83      1.0000 0.41610  0.62520  0.79600  Biso   1.000  H
  H84      1.0000 0.58390  0.12520  0.70400  Biso   1.000  H
  C61      1.0000 0.70460  0.39708  0.13123  Biso   1.000  C
  C62      1.0000 0.29540  0.89708  0.36877  Biso   1.000  C
  C63      1.0000 0.29540  0.60292  0.86877  Biso   1.000  C
  C64      1.0000 0.70460  0.10292  0.63123  Biso   1.000  C
  C65      1.0000 0.77680  0.37180  0.07980  Biso   1.000  C
  C66      1.0000 0.22320  0.87180  0.42020  Biso   1.000  C
  C67      1.0000 0.22320  0.62820  0.92020  Biso   1.000  C
  C68      1.0000 0.77680  0.12820  0.57980  Biso   1.000  C
  H85      1.0000 0.82510  0.39790  0.05190  Biso   1.000  H
  H86      1.0000 0.17490  0.89790  0.44810  Biso   1.000  H
  H87      1.0000 0.17490  0.60210  0.94810  Biso   1.000  H
  H88      1.0000 0.82510  0.10210  0.55190  Biso   1.000  H
  C69      1.0000 0.77770  0.30718  0.06960  Biso   1.000  C
  C70      1.0000 0.22230  0.80718  0.43040  Biso   1.000  C
  C71      1.0000 0.22230  0.69282  0.93040  Biso   1.000  C
  C72      1.0000 0.77770  0.19282  0.56960  Biso   1.000  C
  H89      1.0000 0.82710  0.28850  0.03460  Biso   1.000  H
  H90      1.0000 0.17290  0.78850  0.46540  Biso   1.000  H
  H91      1.0000 0.17290  0.71150  0.96540  Biso   1.000  H
  H92      1.0000 0.82710  0.21150  0.53460  Biso   1.000  H
  C73      1.0000 0.70720  0.27097  0.11020  Biso   1.000  C
  C74      1.0000 0.29280  0.77097  0.38980  Biso   1.000  C
  C75      1.0000 0.29280  0.72903  0.88980  Biso   1.000  C
  C76      1.0000 0.70720  0.22903  0.61020  Biso   1.000  C
  H93      1.0000 0.70890  0.22690  0.10300  Biso   1.000  H
  H94      1.0000 0.29110  0.72690  0.39700  Biso   1.000  H
  H95      1.0000 0.29110  0.77310  0.89700  Biso   1.000  H
  H96      1.0000 0.70890  0.27310  0.60300  Biso   1.000  H
  C77      1.0000 0.70230  0.46701  0.14570  Biso   1.000  C
  C78      1.0000 0.29770  0.96701  0.35430  Biso   1.000  C
  C79      1.0000 0.29770  0.53299  0.85430  Biso   1.000  C
  C80      1.0000 0.70230  0.03299  0.64570  Biso   1.000  C
  H97      1.0000 0.75190  0.48820  0.10950  Biso   1.000  H
  H98      1.0000 0.24810  0.98820  0.39050  Biso   1.000  H
  H99      1.0000 0.24810  0.51180  0.89050  Biso   1.000  H
  H100     1.0000 0.75190  0.01180  0.60950  Biso   1.000  H
  H101     1.0000 0.61500  0.48240  0.12590  Biso   1.000  H
  H102     1.0000 0.38500  0.98240  0.37410  Biso   1.000  H
  H103     1.0000 0.38500  0.51760  0.87410  Biso   1.000  H
  H104     1.0000 0.61500  0.01760  0.62590  Biso   1.000  H
  H105     1.0000 0.67300  0.48730  0.08860  Biso   1.000  H
  H106     1.0000 0.32700  0.98730  0.41140  Biso   1.000  H
  H107     1.0000 0.32700  0.51270  0.91140  Biso   1.000  H
  H108     1.0000 0.67300  0.01270  0.58860  Biso   1.000  H
  H109     1.0000 0.78570  0.48150  0.17290  Biso   1.000  H
  H110     1.0000 0.21430  0.98150  0.32710  Biso   1.000  H
  H111     1.0000 0.21430  0.51850  0.82710  Biso   1.000  H
  H112     1.0000 0.78570  0.01850  0.67290  Biso   1.000  H
  N29      1.0000 0.75630  0.48228  0.24400  Biso   1.000  N
  N30      1.0000 0.24370  0.98228  0.25600  Biso   1.000  N
  N31      1.0000 0.24370  0.51772  0.75600  Biso   1.000  N
  N32      1.0000 0.75630  0.01772  0.74400  Biso   1.000  N
  H113     1.0000 0.83750  0.48070  0.26880  Biso   1.000  H
  H114     1.0000 0.16250  0.98070  0.23120  Biso   1.000  H
  H115     1.0000 0.16250  0.51930  0.73120  Biso   1.000  H
  H116     1.0000 0.83750  0.01930  0.76880  Biso   1.000  H
  C81      1.0000 0.67500  0.49850  0.29230  Biso   1.000  C
  C82      1.0000 0.32500  0.99850  0.20770  Biso   1.000  C
  C83      1.0000 0.32500  0.50150  0.70770  Biso   1.000  C
  C84      1.0000 0.67500  0.00150  0.79230  Biso   1.000  C
  O9       1.0000 0.56190  0.50308  0.25900  Biso   1.000  O
  O10      1.0000 0.43810  0.00308  0.24100  Biso   1.000  O
  O11      1.0000 0.43810  0.49692  0.74100  Biso   1.000  O
  O12      1.0000 0.56190  0.99692  0.75900  Biso   1.000  O
  N33      1.0000 0.72830  0.50943  0.38100  Biso   1.000  N
  N34      1.0000 0.27170  0.00943  0.11900  Biso   1.000  N
  N35      1.0000 0.27170  0.49057  0.61900  Biso   1.000  N
  N36      1.0000 0.72830  0.99057  0.88100  Biso   1.000  N
  H117     1.0000 0.80980  0.50500  0.40200  Biso   1.000  H
  H118     1.0000 0.19020  0.00500  0.09800  Biso   1.000  H
  H119     1.0000 0.19020  0.49500  0.59800  Biso   1.000  H
  H120     1.0000 0.80980  0.99500  0.90200  Biso   1.000  H
  N37      1.0000 0.61580  0.48510  0.20570  Biso   1.000  N
  N38      1.0000 0.38420  0.98510  0.29430  Biso   1.000  N
  N39      1.0000 0.38420  0.51490  0.79430  Biso   1.000  N
  N40      1.0000 0.61580  0.01490  0.70570  Biso   1.000  N
  H121     1.0000 0.53370  0.48710  0.18560  Biso   1.000  H
  H122     1.0000 0.46630  0.98710  0.31440  Biso   1.000  H
  H123     1.0000 0.46630  0.51290  0.81440  Biso   1.000  H
  H124     1.0000 0.53370  0.01290  0.68560  Biso   1.000  H
  C85      1.0000 0.67800  0.49760  0.29300  Biso   1.000  C
  C86      1.0000 0.32200  0.99760  0.20700  Biso   1.000  C
  C87      1.0000 0.32200  0.50240  0.70700  Biso   1.000  C
  C88      1.0000 0.67800  0.00240  0.79300  Biso   1.000  C
  O13      1.0000 0.79160  0.50180  0.31680  Biso   1.000  O
  O14      1.0000 0.20840  0.00180  0.18320  Biso   1.000  O
  O15      1.0000 0.20840  0.49820  0.68320  Biso   1.000  O
  O16      1.0000 0.79160  0.99820  0.81680  Biso   1.000  O
  N41      1.0000 0.60390  0.50420  0.35020  Biso   1.000  N
  N42      1.0000 0.39610  0.00420  0.14980  Biso   1.000  N
  N43      1.0000 0.39610  0.49580  0.64980  Biso   1.000  N
  N44      1.0000 0.60390  0.99580  0.85020  Biso   1.000  N
  H125     1.0000 0.52420  0.49410  0.33210  Biso   1.000  H
  H126     1.0000 0.47580  0.99410  0.16790  Biso   1.000  H
  H127     1.0000 0.47580  0.50590  0.66790  Biso   1.000  H
  H128     1.0000 0.52420  0.00590  0.83210  Biso   1.000  H
  C89      1.0000 0.65490  0.52812  0.44176  Biso   1.000  C
  C90      1.0000 0.34510  0.02812  0.05824  Biso   1.000  C
  C91      1.0000 0.34510  0.47188  0.55824  Biso   1.000  C
  C92      1.0000 0.65490  0.97188  0.94176  Biso   1.000  C
  H129     1.0000 0.69460  0.51120  0.50220  Biso   1.000  H
  H130     1.0000 0.30540  0.01120  0.99780  Biso   1.000  H
  H131     1.0000 0.30540  0.48880  0.49780  Biso   1.000  H
  H132     1.0000 0.69460  0.98880  0.00220  Biso   1.000  H
  H133     1.0000 0.57020  0.50950  0.42120  Biso   1.000  H
  H134     1.0000 0.42980  0.00950  0.07880  Biso   1.000  H
  H135     1.0000 0.42980  0.49050  0.57880  Biso   1.000  H
  H136     1.0000 0.57020  0.99050  0.92120  Biso   1.000  H
  H137     1.0000 0.74200  0.51710  0.46120  Biso   1.000  H
  H138     1.0000 0.25800  0.01710  0.03880  Biso   1.000  H
  H139     1.0000 0.25800  0.48290  0.53880  Biso   1.000  H
  H140     1.0000 0.74200  0.98290  0.96120  Biso   1.000  H
  H141     1.0000 0.61270  0.50830  0.48140  Biso   1.000  H
  H142     1.0000 0.38730  0.00830  0.01860  Biso   1.000  H
  H143     1.0000 0.38730  0.49170  0.51860  Biso   1.000  H
  H144     1.0000 0.61270  0.99170  0.98140  Biso   1.000  H
  C93      1.0000 0.64220  0.59881  0.44841  Biso   1.000  C
  C94      1.0000 0.35780  0.09881  0.05159  Biso   1.000  C
  C95      1.0000 0.35780  0.40119  0.55159  Biso   1.000  C
  C96      1.0000 0.64220  0.90119  0.94841  Biso   1.000  C
  C97      1.0000 0.56560  0.63189  0.37976  Biso   1.000  C
  C98      1.0000 0.43440  0.13189  0.12024  Biso   1.000  C
  C99      1.0000 0.43440  0.36811  0.62024  Biso   1.000  C
  C100     1.0000 0.56560  0.86811  0.87976  Biso   1.000  C
  H145     1.0000 0.51950  0.60970  0.32850  Biso   1.000  H
  H146     1.0000 0.48050  0.10970  0.17150  Biso   1.000  H
  H147     1.0000 0.48050  0.39030  0.67150  Biso   1.000  H
  H148     1.0000 0.51950  0.89030  0.82850  Biso   1.000  H
  N45      1.0000 0.55260  0.69427  0.38146  Biso   1.000  N
  N46      1.0000 0.44740  0.19427  0.11854  Biso   1.000  N
  N47      1.0000 0.44740  0.30573  0.61854  Biso   1.000  N
  N48      1.0000 0.55260  0.80573  0.88146  Biso   1.000  N
  C101     1.0000 0.61710  0.72519  0.45464  Biso   1.000  C
  C102     1.0000 0.38290  0.22519  0.04536  Biso   1.000  C
  C103     1.0000 0.38290  0.27481  0.54536  Biso   1.000  C
  C104     1.0000 0.61710  0.77481  0.95464  Biso   1.000  C
  H149     1.0000 0.60760  0.76920  0.45690  Biso   1.000  H
  H150     1.0000 0.39240  0.26920  0.04310  Biso   1.000  H
  H151     1.0000 0.39240  0.23080  0.54310  Biso   1.000  H
  H152     1.0000 0.60760  0.73080  0.95690  Biso   1.000  H
  C105     1.0000 0.69600  0.69574  0.52623  Biso   1.000  C
  C106     1.0000 0.30400  0.19574  0.97377  Biso   1.000  C
  C107     1.0000 0.30400  0.30426  0.47377  Biso   1.000  C
  C108     1.0000 0.69600  0.80426  0.02623  Biso   1.000  C
  H153     1.0000 0.74080  0.71900  0.57680  Biso   1.000  H
  H154     1.0000 0.25920  0.21900  0.92320  Biso   1.000  H
  H155     1.0000 0.25920  0.28100  0.42320  Biso   1.000  H
  H156     1.0000 0.74080  0.78100  0.07680  Biso   1.000  H
  C109     1.0000 0.70940  0.63115  0.52367  Biso   1.000  C
  C110     1.0000 0.29060  0.13115  0.97633  Biso   1.000  C
  C111     1.0000 0.29060  0.36885  0.47633  Biso   1.000  C
  C112     1.0000 0.70940  0.86885  0.02367  Biso   1.000  C
  H157     1.0000 0.76340  0.60960  0.57240  Biso   1.000  H
  H158     1.0000 0.23660  0.10960  0.92760  Biso   1.000  H
  H159     1.0000 0.23660  0.39040  0.42760  Biso   1.000  H
  H160     1.0000 0.76340  0.89040  0.07240  Biso   1.000  H
