data_image0
_cell_length_a       9.1072
_cell_length_b       23.9835
_cell_length_c       18.08
_cell_angle_alpha    90
_cell_angle_beta     97.563
_cell_angle_gamma    90

_symmetry_space_group_name_H-M    "P 1"
_symmetry_int_tables_number       1

loop_
  _symmetry_equiv_pos_as_xyz
  'x, y, z'

loop_
  _atom_site_label
  _atom_site_occupancy
  _atom_site_fract_x
  _atom_site_fract_y
  _atom_site_fract_z
  _atom_site_thermal_displace_type
  _atom_site_B_iso_or_equiv
  _atom_site_type_symbol
  Cu1      1.0000 0.74492  0.14558  0.99967  Biso   1.000  Cu
  Cu2      1.0000 0.75508  0.64558  0.50033  Biso   1.000  Cu
  Cu3      1.0000 0.25508  0.85442  0.00033  Biso   1.000  Cu
  Cu4      1.0000 0.24492  0.35442  0.49967  Biso   1.000  Cu
  N1       1.0000 0.81940  0.20530  0.07596  Biso   1.000  N
  N2       1.0000 0.68060  0.70530  0.42404  Biso   1.000  N
  N3       1.0000 0.18060  0.79470  0.92404  Biso   1.000  N
  N4       1.0000 0.31940  0.29470  0.57596  Biso   1.000  N
  O1       1.0000 0.80860  0.37978  0.29071  Biso   1.000  O
  O2       1.0000 0.69140  0.87978  0.20929  Biso   1.000  O
  O3       1.0000 0.19140  0.62022  0.70929  Biso   1.000  O
  O4       1.0000 0.30860  0.12022  0.79071  Biso   1.000  O
  C1       1.0000 0.73310  0.24952  0.08640  Biso   1.000  C
  C2       1.0000 0.76690  0.74952  0.41360  Biso   1.000  C
  C3       1.0000 0.26690  0.75048  0.91360  Biso   1.000  C
  C4       1.0000 0.23310  0.25048  0.58640  Biso   1.000  C
  H1       1.0000 0.63140  0.24830  0.06620  Biso   1.000  H
  H2       1.0000 0.86860  0.74830  0.43380  Biso   1.000  H
  H3       1.0000 0.36860  0.75170  0.93380  Biso   1.000  H
  H4       1.0000 0.13140  0.25170  0.56620  Biso   1.000  H
  Cl1      1.0000 0.46698  0.14954  0.04443  Biso   1.000  Cl
  Cl2      1.0000 0.03302  0.64954  0.45557  Biso   1.000  Cl
  Cl3      1.0000 0.53302  0.85046  0.95557  Biso   1.000  Cl
  Cl4      1.0000 0.96698  0.35046  0.54443  Biso   1.000  Cl
  O5       1.0000 0.71170  0.38880  0.71551  Biso   1.000  O
  O6       1.0000 0.78830  0.88880  0.78449  Biso   1.000  O
  O7       1.0000 0.28830  0.61120  0.28449  Biso   1.000  O
  O8       1.0000 0.21170  0.11120  0.21551  Biso   1.000  O
  N5       1.0000 0.90810  0.40020  0.18490  Biso   1.000  N
  N6       1.0000 0.59190  0.90020  0.31510  Biso   1.000  N
  N7       1.0000 0.09190  0.59980  0.81510  Biso   1.000  N
  N8       1.0000 0.40810  0.09980  0.68490  Biso   1.000  N
  H5       1.0000 0.91680  0.42510  0.15010  Biso   1.000  H
  H6       1.0000 0.58320  0.92510  0.34990  Biso   1.000  H
  H7       1.0000 0.08320  0.57490  0.84990  Biso   1.000  H
  H8       1.0000 0.41680  0.07490  0.65010  Biso   1.000  H
  C5       1.0000 0.78620  0.29660  0.12510  Biso   1.000  C
  C6       1.0000 0.71380  0.79660  0.37490  Biso   1.000  C
  C7       1.0000 0.21380  0.70340  0.87490  Biso   1.000  C
  C8       1.0000 0.28620  0.20340  0.62510  Biso   1.000  C
  H9       1.0000 0.72140  0.32680  0.13150  Biso   1.000  H
  H10      1.0000 0.77860  0.82680  0.36850  Biso   1.000  H
  H11      1.0000 0.27860  0.67320  0.86850  Biso   1.000  H
  H12      1.0000 0.22140  0.17320  0.63150  Biso   1.000  H
  O9       1.0000 0.98380  0.13538  0.96510  Biso   1.000  O
  O10      1.0000 0.51620  0.63538  0.53490  Biso   1.000  O
  O11      1.0000 0.01620  0.86462  0.03490  Biso   1.000  O
  O12      1.0000 0.48380  0.36462  0.46510  Biso   1.000  O
  H13      1.0000 0.03500  0.15100  0.94300  Biso   1.000  H
  H14      1.0000 0.46500  0.65100  0.55700  Biso   1.000  H
  H15      1.0000 0.96500  0.84900  0.05700  Biso   1.000  H
  H16      1.0000 0.53500  0.34900  0.44300  Biso   1.000  H
  H17      1.0000 0.01700  0.12300  0.98900  Biso   1.000  H
  H18      1.0000 0.48300  0.62300  0.51100  Biso   1.000  H
  H19      1.0000 0.98300  0.87700  0.01100  Biso   1.000  H
  H20      1.0000 0.51700  0.37700  0.48900  Biso   1.000  H
  N9       1.0000 0.70110  0.44633  0.21120  Biso   1.000  N
  N10      1.0000 0.79890  0.94633  0.28880  Biso   1.000  N
  N11      1.0000 0.29890  0.55367  0.78880  Biso   1.000  N
  N12      1.0000 0.20110  0.05367  0.71120  Biso   1.000  N
  H21      1.0000 0.70460  0.46510  0.16960  Biso   1.000  H
  H22      1.0000 0.79540  0.96510  0.33040  Biso   1.000  H
  H23      1.0000 0.29540  0.53490  0.83040  Biso   1.000  H
  H24      1.0000 0.20460  0.03490  0.66960  Biso   1.000  H
  C9       1.0000 0.93460  0.29965  0.15470  Biso   1.000  C
  C10      1.0000 0.56540  0.79965  0.34530  Biso   1.000  C
  C11      1.0000 0.06540  0.70035  0.84530  Biso   1.000  C
  C12      1.0000 0.43460  0.20035  0.65470  Biso   1.000  C
  N13      1.0000 0.69270  0.20828  0.92449  Biso   1.000  N
  N14      1.0000 0.80730  0.70828  0.57551  Biso   1.000  N
  N15      1.0000 0.30730  0.79172  0.07551  Biso   1.000  N
  N16      1.0000 0.19270  0.29172  0.42449  Biso   1.000  N
  C13      1.0000 0.02140  0.25309  0.14720  Biso   1.000  C
  C14      1.0000 0.47860  0.75309  0.35280  Biso   1.000  C
  C15      1.0000 0.97860  0.74691  0.85280  Biso   1.000  C
  C16      1.0000 0.52140  0.24691  0.64720  Biso   1.000  C
  H25      1.0000 0.12210  0.25270  0.16900  Biso   1.000  H
  H26      1.0000 0.37790  0.75270  0.33100  Biso   1.000  H
  H27      1.0000 0.87790  0.74730  0.83100  Biso   1.000  H
  H28      1.0000 0.62210  0.24730  0.66900  Biso   1.000  H
  N17      1.0000 0.82720  0.58945  0.58094  Biso   1.000  N
  N18      1.0000 0.67280  0.08945  0.91906  Biso   1.000  N
  N19      1.0000 0.17280  0.41055  0.41906  Biso   1.000  N
  N20      1.0000 0.32720  0.91055  0.08094  Biso   1.000  N
  C17      1.0000 0.96150  0.20703  0.10770  Biso   1.000  C
  C18      1.0000 0.53850  0.70703  0.39230  Biso   1.000  C
  C19      1.0000 0.03850  0.79297  0.89230  Biso   1.000  C
  C20      1.0000 0.46150  0.29297  0.60770  Biso   1.000  C
  H29      1.0000 0.02300  0.17560  0.10290  Biso   1.000  H
  H30      1.0000 0.47700  0.67560  0.39710  Biso   1.000  H
  H31      1.0000 0.97700  0.82440  0.89710  Biso   1.000  H
  H32      1.0000 0.52300  0.32440  0.60290  Biso   1.000  H
  C21      1.0000 0.00340  0.35139  0.19250  Biso   1.000  C
  C22      1.0000 0.49660  0.85139  0.30750  Biso   1.000  C
  C23      1.0000 0.99660  0.64861  0.80750  Biso   1.000  C
  C24      1.0000 0.50340  0.14861  0.69250  Biso   1.000  C
  H33      1.0000 0.03090  0.34340  0.24630  Biso   1.000  H
  H34      1.0000 0.46910  0.84340  0.25370  Biso   1.000  H
  H35      1.0000 0.96910  0.65660  0.75370  Biso   1.000  H
  H36      1.0000 0.53090  0.15660  0.74630  Biso   1.000  H
  H37      1.0000 0.09560  0.36010  0.17140  Biso   1.000  H
  H38      1.0000 0.40440  0.86010  0.32860  Biso   1.000  H
  H39      1.0000 0.90440  0.63990  0.82860  Biso   1.000  H
  H40      1.0000 0.59560  0.13990  0.67140  Biso   1.000  H
  N21      1.0000 0.82980  0.45255  0.79480  Biso   1.000  N
  N22      1.0000 0.67020  0.95255  0.70520  Biso   1.000  N
  N23      1.0000 0.17020  0.54745  0.20520  Biso   1.000  N
  N24      1.0000 0.32980  0.04745  0.29480  Biso   1.000  N
  H41      1.0000 0.83150  0.47080  0.83710  Biso   1.000  H
  H42      1.0000 0.66850  0.97080  0.66290  Biso   1.000  H
  H43      1.0000 0.16850  0.52920  0.16290  Biso   1.000  H
  H44      1.0000 0.33150  0.02920  0.33710  Biso   1.000  H
  N25      1.0000 0.62400  0.40661  0.82390  Biso   1.000  N
  N26      1.0000 0.87600  0.90661  0.67610  Biso   1.000  N
  N27      1.0000 0.37600  0.59339  0.17610  Biso   1.000  N
  N28      1.0000 0.12400  0.09339  0.32390  Biso   1.000  N
  H45      1.0000 0.62070  0.43020  0.86100  Biso   1.000  H
  H46      1.0000 0.87930  0.93020  0.63900  Biso   1.000  H
  H47      1.0000 0.37930  0.56980  0.13900  Biso   1.000  H
  H48      1.0000 0.12070  0.06980  0.36100  Biso   1.000  H
  C25      1.0000 0.80520  0.40685  0.23260  Biso   1.000  C
  C26      1.0000 0.69480  0.90685  0.26740  Biso   1.000  C
  C27      1.0000 0.19480  0.59315  0.76740  Biso   1.000  C
  C28      1.0000 0.30520  0.09315  0.73260  Biso   1.000  C
  N29      1.0000 0.70290  0.58370  0.42326  Biso   1.000  N
  N30      1.0000 0.79710  0.08370  0.07674  Biso   1.000  N
  N31      1.0000 0.29710  0.41630  0.57674  Biso   1.000  N
  N32      1.0000 0.20290  0.91630  0.92326  Biso   1.000  N
  C29      1.0000 0.58440  0.45783  0.25630  Biso   1.000  C
  C30      1.0000 0.91560  0.95783  0.24370  Biso   1.000  C
  C31      1.0000 0.41560  0.54217  0.74370  Biso   1.000  C
  C32      1.0000 0.08440  0.04217  0.75630  Biso   1.000  C
  H49      1.0000 0.55870  0.42290  0.28080  Biso   1.000  H
  H50      1.0000 0.94130  0.92290  0.21920  Biso   1.000  H
  H51      1.0000 0.44130  0.57710  0.71920  Biso   1.000  H
  H52      1.0000 0.05870  0.07710  0.78080  Biso   1.000  H
  H53      1.0000 0.49510  0.47050  0.22330  Biso   1.000  H
  H54      1.0000 0.00490  0.97050  0.27670  Biso   1.000  H
  H55      1.0000 0.50490  0.52950  0.77670  Biso   1.000  H
  H56      1.0000 0.99510  0.02950  0.72330  Biso   1.000  H
  C33      1.0000 0.78290  0.25162  0.91790  Biso   1.000  C
  C34      1.0000 0.71710  0.75162  0.58210  Biso   1.000  C
  C35      1.0000 0.21710  0.74838  0.08210  Biso   1.000  C
  C36      1.0000 0.28290  0.24838  0.41790  Biso   1.000  C
  H57      1.0000 0.88370  0.24850  0.93930  Biso   1.000  H
  H58      1.0000 0.61630  0.74850  0.56070  Biso   1.000  H
  H59      1.0000 0.11630  0.75150  0.06070  Biso   1.000  H
  H60      1.0000 0.38370  0.25150  0.43930  Biso   1.000  H
  C37      1.0000 0.73710  0.30038  0.88190  Biso   1.000  C
  C38      1.0000 0.76290  0.80038  0.61810  Biso   1.000  C
  C39      1.0000 0.26290  0.69962  0.11810  Biso   1.000  C
  C40      1.0000 0.23710  0.19962  0.38190  Biso   1.000  C
  H61      1.0000 0.80510  0.33000  0.87850  Biso   1.000  H
  H62      1.0000 0.69490  0.83000  0.62150  Biso   1.000  H
  H63      1.0000 0.19490  0.67000  0.12150  Biso   1.000  H
  H64      1.0000 0.30510  0.17000  0.37850  Biso   1.000  H
  C41      1.0000 0.58970  0.30576  0.85040  Biso   1.000  C
  C42      1.0000 0.91030  0.80576  0.64960  Biso   1.000  C
  C43      1.0000 0.41030  0.69424  0.14960  Biso   1.000  C
  C44      1.0000 0.08970  0.19424  0.35040  Biso   1.000  C
  C45      1.0000 0.49900  0.25966  0.85300  Biso   1.000  C
  C46      1.0000 0.00100  0.75966  0.64700  Biso   1.000  C
  C47      1.0000 0.50100  0.74034  0.14700  Biso   1.000  C
  C48      1.0000 0.99900  0.24034  0.35300  Biso   1.000  C
  H65      1.0000 0.39960  0.26090  0.82930  Biso   1.000  H
  H66      1.0000 0.10040  0.76090  0.67070  Biso   1.000  H
  H67      1.0000 0.60040  0.73910  0.17070  Biso   1.000  H
  H68      1.0000 0.89960  0.23910  0.32930  Biso   1.000  H
  C49      1.0000 0.55210  0.21197  0.88980  Biso   1.000  C
  C50      1.0000 0.94790  0.71197  0.61020  Biso   1.000  C
  C51      1.0000 0.44790  0.78803  0.11020  Biso   1.000  C
  C52      1.0000 0.05210  0.28803  0.38980  Biso   1.000  C
  H69      1.0000 0.48810  0.18080  0.89080  Biso   1.000  H
  H70      1.0000 0.01190  0.68080  0.60920  Biso   1.000  H
  H71      1.0000 0.51190  0.81920  0.10920  Biso   1.000  H
  H72      1.0000 0.98810  0.31920  0.39080  Biso   1.000  H
  C53      1.0000 0.76710  0.58967  0.64530  Biso   1.000  C
  C54      1.0000 0.73290  0.08967  0.85470  Biso   1.000  C
  C55      1.0000 0.23290  0.41033  0.35470  Biso   1.000  C
  C56      1.0000 0.26710  0.91033  0.14530  Biso   1.000  C
  H73      1.0000 0.69840  0.61820  0.65320  Biso   1.000  H
  H74      1.0000 0.80160  0.11820  0.84680  Biso   1.000  H
  H75      1.0000 0.30160  0.38180  0.34680  Biso   1.000  H
  H76      1.0000 0.19840  0.88180  0.15320  Biso   1.000  H
  C57      1.0000 0.80160  0.55019  0.69980  Biso   1.000  C
  C58      1.0000 0.69840  0.05019  0.80020  Biso   1.000  C
  C59      1.0000 0.19840  0.44981  0.30020  Biso   1.000  C
  C60      1.0000 0.30160  0.94981  0.19980  Biso   1.000  C
  H77      1.0000 0.75730  0.55170  0.74450  Biso   1.000  H
  H78      1.0000 0.74270  0.05170  0.75550  Biso   1.000  H
  H79      1.0000 0.24270  0.44830  0.25550  Biso   1.000  H
  H80      1.0000 0.25730  0.94830  0.24450  Biso   1.000  H
  C61      1.0000 0.90160  0.50804  0.68930  Biso   1.000  C
  C62      1.0000 0.59840  0.00804  0.81070  Biso   1.000  C
  C63      1.0000 0.09840  0.49196  0.31070  Biso   1.000  C
  C64      1.0000 0.40160  0.99196  0.18930  Biso   1.000  C
  C65      1.0000 0.96540  0.50859  0.62430  Biso   1.000  C
  C66      1.0000 0.53460  0.00859  0.87570  Biso   1.000  C
  C67      1.0000 0.03460  0.49141  0.37570  Biso   1.000  C
  C68      1.0000 0.46540  0.99141  0.12430  Biso   1.000  C
  H81      1.0000 0.03520  0.48080  0.61550  Biso   1.000  H
  H82      1.0000 0.46480  0.98080  0.88450  Biso   1.000  H
  H83      1.0000 0.96480  0.51920  0.38450  Biso   1.000  H
  H84      1.0000 0.53520  0.01920  0.11550  Biso   1.000  H
  C69      1.0000 0.92710  0.54983  0.57180  Biso   1.000  C
  C70      1.0000 0.57290  0.04983  0.92820  Biso   1.000  C
  C71      1.0000 0.07290  0.45017  0.42820  Biso   1.000  C
  C72      1.0000 0.42710  0.95017  0.07180  Biso   1.000  C
  H85      1.0000 0.97340  0.55010  0.52770  Biso   1.000  H
  H86      1.0000 0.52660  0.05010  0.97230  Biso   1.000  H
  H87      1.0000 0.02660  0.44990  0.47230  Biso   1.000  H
  H88      1.0000 0.47340  0.94990  0.02770  Biso   1.000  H
  C73      1.0000 0.94260  0.46353  0.74760  Biso   1.000  C
  C74      1.0000 0.55740  0.96353  0.75240  Biso   1.000  C
  C75      1.0000 0.05740  0.53647  0.25240  Biso   1.000  C
  C76      1.0000 0.44260  0.03647  0.24760  Biso   1.000  C
  H89      1.0000 0.96410  0.42850  0.72210  Biso   1.000  H
  H90      1.0000 0.53590  0.92850  0.77790  Biso   1.000  H
  H91      1.0000 0.03590  0.57150  0.27790  Biso   1.000  H
  H92      1.0000 0.46410  0.07150  0.22210  Biso   1.000  H
  H93      1.0000 0.03440  0.47500  0.77940  Biso   1.000  H
  H94      1.0000 0.46560  0.97500  0.72060  Biso   1.000  H
  H95      1.0000 0.96560  0.52500  0.22060  Biso   1.000  H
  H96      1.0000 0.53440  0.02500  0.27940  Biso   1.000  H
  C77      1.0000 0.72130  0.41466  0.77530  Biso   1.000  C
  C78      1.0000 0.77870  0.91466  0.72470  Biso   1.000  C
  C79      1.0000 0.27870  0.58534  0.22470  Biso   1.000  C
  C80      1.0000 0.22130  0.08534  0.27530  Biso   1.000  C
  C81      1.0000 0.52440  0.35928  0.81580  Biso   1.000  C
  C82      1.0000 0.97560  0.85928  0.68420  Biso   1.000  C
  C83      1.0000 0.47560  0.64072  0.18420  Biso   1.000  C
  C84      1.0000 0.02440  0.14072  0.31580  Biso   1.000  C
  H97      1.0000 0.49300  0.35280  0.76200  Biso   1.000  H
  H98      1.0000 0.00700  0.85280  0.73800  Biso   1.000  H
  H99      1.0000 0.50700  0.64720  0.23800  Biso   1.000  H
  H100     1.0000 0.99300  0.14720  0.26200  Biso   1.000  H
  H101     1.0000 0.43480  0.36870  0.83880  Biso   1.000  H
  H102     1.0000 0.06520  0.86870  0.66120  Biso   1.000  H
  H103     1.0000 0.56520  0.63130  0.16120  Biso   1.000  H
  H104     1.0000 0.93480  0.13130  0.33880  Biso   1.000  H
  C85      1.0000 0.64440  0.53519  0.44140  Biso   1.000  C
  C86      1.0000 0.85560  0.03519  0.05860  Biso   1.000  C
  C87      1.0000 0.35560  0.46481  0.55860  Biso   1.000  C
  C88      1.0000 0.14440  0.96481  0.94140  Biso   1.000  C
  H105     1.0000 0.62800  0.52920  0.49160  Biso   1.000  H
  H106     1.0000 0.87200  0.02920  0.00840  Biso   1.000  H
  H107     1.0000 0.37200  0.47080  0.50840  Biso   1.000  H
  H108     1.0000 0.12800  0.97080  0.99160  Biso   1.000  H
  C89      1.0000 0.60660  0.49327  0.38900  Biso   1.000  C
  C90      1.0000 0.89340  0.99327  0.11100  Biso   1.000  C
  C91      1.0000 0.39340  0.50673  0.61100  Biso   1.000  C
  C92      1.0000 0.10660  0.00673  0.88900  Biso   1.000  C
  H109     1.0000 0.56700  0.45900  0.40380  Biso   1.000  H
  H110     1.0000 0.93300  0.95900  0.09620  Biso   1.000  H
  H111     1.0000 0.43300  0.54100  0.59620  Biso   1.000  H
  H112     1.0000 0.06700  0.04100  0.90380  Biso   1.000  H
  C93      1.0000 0.62700  0.50174  0.31540  Biso   1.000  C
  C94      1.0000 0.87300  0.00174  0.18460  Biso   1.000  C
  C95      1.0000 0.37300  0.49826  0.68460  Biso   1.000  C
  C96      1.0000 0.12700  0.99826  0.81540  Biso   1.000  C
  C97      1.0000 0.68720  0.55250  0.29740  Biso   1.000  C
  C98      1.0000 0.81280  0.05250  0.20260  Biso   1.000  C
  C99      1.0000 0.31280  0.44750  0.70260  Biso   1.000  C
  C100     1.0000 0.18720  0.94750  0.79740  Biso   1.000  C
  H113     1.0000 0.70310  0.56000  0.24750  Biso   1.000  H
  H114     1.0000 0.79690  0.06000  0.25250  Biso   1.000  H
  H115     1.0000 0.29690  0.44000  0.75250  Biso   1.000  H
  H116     1.0000 0.20310  0.94000  0.74750  Biso   1.000  H
  C101     1.0000 0.72360  0.59186  0.35240  Biso   1.000  C
  C102     1.0000 0.77640  0.09186  0.14760  Biso   1.000  C
  C103     1.0000 0.27640  0.40814  0.64760  Biso   1.000  C
  C104     1.0000 0.22360  0.90814  0.85240  Biso   1.000  C
  H117     1.0000 0.76510  0.62620  0.33920  Biso   1.000  H
  H118     1.0000 0.73490  0.12620  0.16080  Biso   1.000  H
  H119     1.0000 0.23490  0.37380  0.66080  Biso   1.000  H
  H120     1.0000 0.26510  0.87380  0.83920  Biso   1.000  H
  O13      1.0000 0.18480  0.07894  0.06327  Biso   1.000  O
  O14      1.0000 0.31520  0.57894  0.43673  Biso   1.000  O
  O15      1.0000 0.81520  0.92106  0.93673  Biso   1.000  O
  O16      1.0000 0.68480  0.42106  0.56327  Biso   1.000  O
  H121     1.0000 0.17800  0.08190  0.10070  Biso   1.000  H
  H122     1.0000 0.32200  0.58190  0.39930  Biso   1.000  H
  H123     1.0000 0.82200  0.91810  0.89930  Biso   1.000  H
  H124     1.0000 0.67800  0.41810  0.60070  Biso   1.000  H
  H125     1.0000 0.27660  0.09530  0.05250  Biso   1.000  H
  H126     1.0000 0.22340  0.59530  0.44750  Biso   1.000  H
  H127     1.0000 0.72340  0.90470  0.94750  Biso   1.000  H
  H128     1.0000 0.77660  0.40470  0.55250  Biso   1.000  H
  O17      1.0000 0.20690  0.96315  0.58874  Biso   1.000  O
  O18      1.0000 0.29310  0.46315  0.91126  Biso   1.000  O
  O19      1.0000 0.79310  0.03685  0.41126  Biso   1.000  O
  O20      1.0000 0.70690  0.53685  0.08874  Biso   1.000  O
  H129     1.0000 0.15090  0.97340  0.57820  Biso   1.000  H
  H130     1.0000 0.34910  0.47340  0.92180  Biso   1.000  H
  H131     1.0000 0.84910  0.02660  0.42180  Biso   1.000  H
  H132     1.0000 0.65090  0.52660  0.07820  Biso   1.000  H
  H133     1.0000 0.28070  0.97310  0.59800  Biso   1.000  H
  H134     1.0000 0.21930  0.47310  0.90200  Biso   1.000  H
  H135     1.0000 0.71930  0.02690  0.40200  Biso   1.000  H
  H136     1.0000 0.78070  0.52690  0.09800  Biso   1.000  H
  O21      1.0000 0.60550  0.80221  0.80650  Biso   1.000  O
  O22      1.0000 0.89450  0.30221  0.69350  Biso   1.000  O
  O23      1.0000 0.39450  0.19779  0.19350  Biso   1.000  O
  O24      1.0000 0.10550  0.69779  0.30650  Biso   1.000  O
  H137     1.0000 0.55730  0.81460  0.78370  Biso   1.000  H
  H138     1.0000 0.94270  0.31460  0.71630  Biso   1.000  H
  H139     1.0000 0.44270  0.18540  0.21630  Biso   1.000  H
  H140     1.0000 0.05730  0.68540  0.28370  Biso   1.000  H
  H141     1.0000 0.64180  0.79250  0.82700  Biso   1.000  H
  H142     1.0000 0.85820  0.29250  0.67300  Biso   1.000  H
  H143     1.0000 0.35820  0.20750  0.17300  Biso   1.000  H
  H144     1.0000 0.14180  0.70750  0.32700  Biso   1.000  H
  O25      1.0000 0.88240  0.18850  0.72760  Biso   1.000  O
  O26      1.0000 0.61760  0.68850  0.77240  Biso   1.000  O
  O27      1.0000 0.11760  0.81150  0.27240  Biso   1.000  O
  O28      1.0000 0.38240  0.31150  0.22760  Biso   1.000  O
  H145     1.0000 0.89240  0.18200  0.68810  Biso   1.000  H
  H146     1.0000 0.60760  0.68200  0.81190  Biso   1.000  H
  H147     1.0000 0.10760  0.81800  0.31190  Biso   1.000  H
  H148     1.0000 0.39240  0.31800  0.18810  Biso   1.000  H
  H149     1.0000 0.87840  0.19690  0.75900  Biso   1.000  H
  H150     1.0000 0.62160  0.69690  0.74100  Biso   1.000  H
  H151     1.0000 0.12160  0.80310  0.24100  Biso   1.000  H
  H152     1.0000 0.37840  0.30310  0.25900  Biso   1.000  H
  O29      1.0000 0.10470  0.18700  0.84150  Biso   1.000  O
  O30      1.0000 0.39530  0.68700  0.65850  Biso   1.000  O
  O31      1.0000 0.89530  0.81300  0.15850  Biso   1.000  O
  O32      1.0000 0.60470  0.31300  0.34150  Biso   1.000  O
  H153     1.0000 0.16170  0.21080  0.81550  Biso   1.000  H
  H154     1.0000 0.33830  0.71080  0.68450  Biso   1.000  H
  H155     1.0000 0.83830  0.78920  0.18450  Biso   1.000  H
  H156     1.0000 0.66170  0.28920  0.31550  Biso   1.000  H
  H157     1.0000 0.15220  0.20340  0.86660  Biso   1.000  H
  H158     1.0000 0.34780  0.70340  0.63340  Biso   1.000  H
  H159     1.0000 0.84780  0.79660  0.13340  Biso   1.000  H
  H160     1.0000 0.65220  0.29660  0.36660  Biso   1.000  H
  O33      1.0000 0.89410  0.41170  0.01820  Biso   1.000  O
  O34      1.0000 0.60590  0.91170  0.48180  Biso   1.000  O
  O35      1.0000 0.10590  0.58830  0.98180  Biso   1.000  O
  O36      1.0000 0.39410  0.08830  0.51820  Biso   1.000  O
  H161     1.0000 0.84440  0.41830  0.99950  Biso   1.000  H
  H162     1.0000 0.65560  0.91830  0.50050  Biso   1.000  H
  H163     1.0000 0.15560  0.58170  0.00050  Biso   1.000  H
  H164     1.0000 0.34440  0.08170  0.49950  Biso   1.000  H
  H165     1.0000 0.92890  0.43320  0.01660  Biso   1.000  H
  H166     1.0000 0.57110  0.93320  0.48340  Biso   1.000  H
  H167     1.0000 0.07110  0.56680  0.98340  Biso   1.000  H
  H168     1.0000 0.42890  0.06680  0.51660  Biso   1.000  H
  O37      1.0000 0.10430  0.36060  0.94440  Biso   1.000  O
  O38      1.0000 0.39570  0.86060  0.55560  Biso   1.000  O
  O39      1.0000 0.89570  0.63940  0.05560  Biso   1.000  O
  O40      1.0000 0.60430  0.13940  0.44440  Biso   1.000  O
  H169     1.0000 0.15060  0.37930  0.91280  Biso   1.000  H
  H170     1.0000 0.34940  0.87930  0.58720  Biso   1.000  H
  H171     1.0000 0.84940  0.62070  0.08720  Biso   1.000  H
  H172     1.0000 0.65060  0.12070  0.41280  Biso   1.000  H
  O41      1.0000 0.70310  0.02390  0.57750  Biso   1.000  O
  O42      1.0000 0.79690  0.52390  0.92250  Biso   1.000  O
  O43      1.0000 0.29690  0.97610  0.42250  Biso   1.000  O
  O44      1.0000 0.20310  0.47610  0.07750  Biso   1.000  O
  H173     1.0000 0.61770  0.01500  0.56650  Biso   1.000  H
  H174     1.0000 0.88230  0.51500  0.93350  Biso   1.000  H
  H175     1.0000 0.38230  0.98500  0.43350  Biso   1.000  H
  H176     1.0000 0.11770  0.48500  0.06650  Biso   1.000  H
  H177     1.0000 0.75800  0.00850  0.58240  Biso   1.000  H
  H178     1.0000 0.74200  0.50850  0.91760  Biso   1.000  H
  H179     1.0000 0.24200  0.99150  0.41760  Biso   1.000  H
  H180     1.0000 0.25800  0.49150  0.08240  Biso   1.000  H
  O45      1.0000 0.13030  0.29490  0.81650  Biso   1.000  O
  O46      1.0000 0.36970  0.79490  0.68350  Biso   1.000  O
  O47      1.0000 0.86970  0.70510  0.18350  Biso   1.000  O
  O48      1.0000 0.63030  0.20510  0.31650  Biso   1.000  O
  H181     1.0000 0.11900  0.30400  0.84320  Biso   1.000  H
  H182     1.0000 0.38100  0.80400  0.65680  Biso   1.000  H
  H183     1.0000 0.88100  0.69600  0.15680  Biso   1.000  H
  H184     1.0000 0.61900  0.19600  0.34320  Biso   1.000  H
  O49      1.0000 0.15160  0.31030  0.76850  Biso   1.000  O
  O50      1.0000 0.34840  0.81030  0.73150  Biso   1.000  O
  O51      1.0000 0.84840  0.68970  0.23150  Biso   1.000  O
  O52      1.0000 0.65160  0.18970  0.26850  Biso   1.000  O
  O53      1.0000 0.38040  0.37660  0.10720  Biso   1.000  O
  O54      1.0000 0.11960  0.87660  0.39280  Biso   1.000  O
  O55      1.0000 0.61960  0.62340  0.89280  Biso   1.000  O
  O56      1.0000 0.88040  0.12340  0.60720  Biso   1.000  O
  H185     1.0000 0.35150  0.40960  0.12490  Biso   1.000  H
  H186     1.0000 0.14850  0.90960  0.37510  Biso   1.000  H
  H187     1.0000 0.64850  0.59040  0.87510  Biso   1.000  H
  H188     1.0000 0.85150  0.09040  0.62490  Biso   1.000  H
  H189     1.0000 0.38170  0.35220  0.05800  Biso   1.000  H
  H190     1.0000 0.11830  0.85220  0.44200  Biso   1.000  H
  H191     1.0000 0.61830  0.64780  0.94200  Biso   1.000  H
  H192     1.0000 0.88170  0.14780  0.55800  Biso   1.000  H
  O57      1.0000 0.57400  0.39060  0.00350  Biso   1.000  O
  O58      1.0000 0.92600  0.89060  0.49650  Biso   1.000  O
  O59      1.0000 0.42600  0.60940  0.99650  Biso   1.000  O
  O60      1.0000 0.07400  0.10940  0.50350  Biso   1.000  O
  H193     1.0000 0.50230  0.36930  0.00570  Biso   1.000  H
  H194     1.0000 0.99770  0.86930  0.49430  Biso   1.000  H
  H195     1.0000 0.49770  0.63070  0.99430  Biso   1.000  H
  H196     1.0000 0.00230  0.13070  0.50570  Biso   1.000  H
  H197     1.0000 0.61640  0.40970  0.98860  Biso   1.000  H
  H198     1.0000 0.88360  0.90970  0.51140  Biso   1.000  H
  H199     1.0000 0.38360  0.59030  0.01140  Biso   1.000  H
  H200     1.0000 0.11640  0.09030  0.48860  Biso   1.000  H
  O61      1.0000 0.13200  0.33180  0.00360  Biso   1.000  O
  O62      1.0000 0.36800  0.83180  0.49640  Biso   1.000  O
  O63      1.0000 0.86800  0.66820  0.99640  Biso   1.000  O
  O64      1.0000 0.63200  0.16820  0.50360  Biso   1.000  O
  O65      1.0000 0.19120  0.22230  0.97060  Biso   1.000  O
  O66      1.0000 0.30880  0.72230  0.52940  Biso   1.000  O
  O67      1.0000 0.80880  0.77770  0.02940  Biso   1.000  O
  O68      1.0000 0.69120  0.27770  0.47060  Biso   1.000  O
  O69      1.0000 0.58250  0.43090  0.99190  Biso   1.000  O
  O70      1.0000 0.91750  0.93090  0.50810  Biso   1.000  O
  O71      1.0000 0.41750  0.56910  0.00810  Biso   1.000  O
  O72      1.0000 0.08250  0.06910  0.49190  Biso   1.000  O
  O73      1.0000 0.94400  0.00800  0.57020  Biso   1.000  O
  O74      1.0000 0.55600  0.50800  0.92980  Biso   1.000  O
  O75      1.0000 0.05600  0.99200  0.42980  Biso   1.000  O
  O76      1.0000 0.44400  0.49200  0.07020  Biso   1.000  O
  H201     1.0000 0.04470  0.00410  0.56030  Biso   1.000  H
  H202     1.0000 0.45530  0.50410  0.93970  Biso   1.000  H
  H203     1.0000 0.95530  0.99590  0.43970  Biso   1.000  H
  H204     1.0000 0.54470  0.49590  0.06030  Biso   1.000  H
  O77      1.0000 0.31900  0.28400  0.01710  Biso   1.000  O
  O78      1.0000 0.18100  0.78400  0.48290  Biso   1.000  O
  O79      1.0000 0.68100  0.71600  0.98290  Biso   1.000  O
  O80      1.0000 0.81900  0.21600  0.51710  Biso   1.000  O
  O81      1.0000 0.44800  0.99730  0.56880  Biso   1.000  O
  O82      1.0000 0.05200  0.49730  0.93120  Biso   1.000  O
  O83      1.0000 0.55200  0.00270  0.43120  Biso   1.000  O
  O84      1.0000 0.94800  0.50270  0.06880  Biso   1.000  O
  H205     1.0000 0.37110  0.98880  0.57120  Biso   1.000  H
  H206     1.0000 0.12890  0.48880  0.92880  Biso   1.000  H
  H207     1.0000 0.62890  0.01120  0.42880  Biso   1.000  H
  H208     1.0000 0.87110  0.51120  0.07120  Biso   1.000  H
  O85      1.0000 0.16800  0.38590  0.87870  Biso   1.000  O
  O86      1.0000 0.33200  0.88590  0.62130  Biso   1.000  O
  O87      1.0000 0.83200  0.61410  0.12130  Biso   1.000  O
  O88      1.0000 0.66800  0.11410  0.37870  Biso   1.000  O
  H209     1.0000 0.14690  0.36000  0.82900  Biso   1.000  H
  H210     1.0000 0.35310  0.86000  0.67100  Biso   1.000  H
  H211     1.0000 0.85310  0.64000  0.17100  Biso   1.000  H
  H212     1.0000 0.64690  0.14000  0.32900  Biso   1.000  H
