data_image0
_cell_length_a       7.1637
_cell_length_b       10.014
_cell_length_c       12.3475
_cell_angle_alpha    70.188
_cell_angle_beta     88.077
_cell_angle_gamma    80.202

_symmetry_space_group_name_H-M    "P 1"
_symmetry_int_tables_number       1

loop_
  _symmetry_equiv_pos_as_xyz
  'x, y, z'

loop_
  _atom_site_label
  _atom_site_occupancy
  _atom_site_fract_x
  _atom_site_fract_y
  _atom_site_fract_z
  _atom_site_thermal_displace_type
  _atom_site_B_iso_or_equiv
  _atom_site_type_symbol
  Cu1      1.0000 0.51926  0.68922  0.64177  Biso   1.000  Cu
  Cu2      1.0000 0.48074  0.31078  0.35823  Biso   1.000  Cu
  O1       1.0000 0.59820  0.87340  0.60770  Biso   1.000  O
  O2       1.0000 0.40180  0.12660  0.39230  Biso   1.000  O
  N1       1.0000 0.77890  0.60510  0.72920  Biso   1.000  N
  N2       1.0000 0.22110  0.39490  0.27080  Biso   1.000  N
  C1       1.0000 0.76060  0.57700  0.85280  Biso   1.000  C
  C2       1.0000 0.23940  0.42300  0.14720  Biso   1.000  C
  Cu3      1.0000 0.76604  0.96068  0.16840  Biso   1.000  Cu
  Cu4      1.0000 0.23396  0.03932  0.83160  Biso   1.000  Cu
  O3       1.0000 0.85320  0.97460  0.60350  Biso   1.000  O
  O4       1.0000 0.14680  0.02540  0.39650  Biso   1.000  O
  C3       1.0000 0.74410  0.44030  0.92920  Biso   1.000  C
  C4       1.0000 0.25590  0.55970  0.07080  Biso   1.000  C
  H1       1.0000 0.74280  0.36340  0.90070  Biso   1.000  H
  H2       1.0000 0.25720  0.63660  0.09930  Biso   1.000  H
  H3       1.0000 0.32530  0.72500  0.47970  Biso   1.000  H
  H4       1.0000 0.67470  0.27500  0.52030  Biso   1.000  H
  H5       1.0000 0.41010  0.01280  0.14090  Biso   1.000  H
  H6       1.0000 0.58990  0.98720  0.85910  Biso   1.000  H
  H7       1.0000 0.10750  0.98420  0.11850  Biso   1.000  H
  H8       1.0000 0.89250  0.01580  0.88150  Biso   1.000  H
  O5       1.0000 0.50460  0.48760  0.66880  Biso   1.000  O
  O6       1.0000 0.49540  0.51240  0.33120  Biso   1.000  O
  C5       1.0000 0.72970  0.41620  0.04640  Biso   1.000  C
  C6       1.0000 0.27030  0.58380  0.95360  Biso   1.000  C
  O7       1.0000 0.68770  0.27430  0.70270  Biso   1.000  O
  O8       1.0000 0.31230  0.72570  0.29730  Biso   1.000  O
  C7       1.0000 0.73250  0.52750  0.08920  Biso   1.000  C
  C8       1.0000 0.26750  0.47250  0.91080  Biso   1.000  C
  H9       1.0000 0.72460  0.51050  0.16960  Biso   1.000  H
  H10      1.0000 0.27540  0.48950  0.83040  Biso   1.000  H
  O9       1.0000 0.74720  0.16690  0.08660  Biso   1.000  O
  O10      1.0000 0.25280  0.83310  0.91340  Biso   1.000  O
  C9       1.0000 0.74690  0.66400  0.01330  Biso   1.000  C
  C10      1.0000 0.25310  0.33600  0.98670  Biso   1.000  C
  O11      1.0000 0.68100  0.25150  0.23160  Biso   1.000  O
  O12      1.0000 0.31900  0.74850  0.76840  Biso   1.000  O
  C11      1.0000 0.75960  0.68990  0.89510  Biso   1.000  C
  C12      1.0000 0.24040  0.31010  0.10490  Biso   1.000  C
  H11      1.0000 0.76740  0.78390  0.84370  Biso   1.000  H
  H12      1.0000 0.23260  0.21610  0.15630  Biso   1.000  H
  O13      1.0000 0.77440  0.75860  0.16430  Biso   1.000  O
  O14      1.0000 0.22560  0.24140  0.83570  Biso   1.000  O
  C13      1.0000 0.77360  0.86820  0.62530  Biso   1.000  C
  C14      1.0000 0.22640  0.13180  0.37470  Biso   1.000  C
  H13      1.0000 0.43490  0.89180  0.23650  Biso   1.000  H
  H14      1.0000 0.56510  0.10820  0.76350  Biso   1.000  H
  H15      1.0000 0.12530  0.87080  0.20770  Biso   1.000  H
  H16      1.0000 0.87470  0.12920  0.79230  Biso   1.000  H
  H17      1.0000 0.26800  0.26640  0.60090  Biso   1.000  H
  H18      1.0000 0.73200  0.73360  0.39910  Biso   1.000  H
  O15      1.0000 0.72850  0.91360  0.98690  Biso   1.000  O
  O16      1.0000 0.27150  0.08640  0.01310  Biso   1.000  O
  C15      1.0000 0.89520  0.71880  0.67180  Biso   1.000  C
  C16      1.0000 0.10480  0.28120  0.32820  Biso   1.000  C
  H19      1.0000 0.96340  0.69600  0.60750  Biso   1.000  H
  H20      1.0000 0.03660  0.30400  0.39250  Biso   1.000  H
  H21      1.0000 0.99080  0.71910  0.72770  Biso   1.000  H
  H22      1.0000 0.00920  0.28090  0.27230  Biso   1.000  H
  H23      1.0000 0.26950  0.83950  0.48550  Biso   1.000  H
  H24      1.0000 0.73050  0.16050  0.51450  Biso   1.000  H
  O17      1.0000 0.31180  0.75890  0.52320  Biso   1.000  O
  O18      1.0000 0.68820  0.24110  0.47680  Biso   1.000  O
  C17      1.0000 0.83620  0.46990  0.70080  Biso   1.000  C
  C18      1.0000 0.16380  0.53010  0.29920  Biso   1.000  C
  H25      1.0000 0.92470  0.39970  0.76140  Biso   1.000  H
  H26      1.0000 0.07530  0.60030  0.23860  Biso   1.000  H
  H27      1.0000 0.90260  0.49190  0.62680  Biso   1.000  H
  H28      1.0000 0.09740  0.50810  0.37320  Biso   1.000  H
  O19      1.0000 0.49500  0.96940  0.19950  Biso   1.000  O
  O20      1.0000 0.50500  0.03060  0.80050  Biso   1.000  O
  C19      1.0000 0.66250  0.40450  0.69190  Biso   1.000  C
  C20      1.0000 0.33750  0.59550  0.30810  Biso   1.000  C
  O21      1.0000 0.04010  0.93440  0.16090  Biso   1.000  O
  O22      1.0000 0.95990  0.06560  0.83910  Biso   1.000  O
  C21      1.0000 0.71580  0.26770  0.12910  Biso   1.000  C
  C22      1.0000 0.28420  0.73230  0.87090  Biso   1.000  C
  O23      1.0000 0.79700  0.93510  0.35870  Biso   1.000  O
  O24      1.0000 0.20300  0.06490  0.64130  Biso   1.000  O
  C23      1.0000 0.75060  0.78520  0.05760  Biso   1.000  C
  C24      1.0000 0.24940  0.21480  0.94240  Biso   1.000  C
  H29      1.0000 0.31870  0.36340  0.61860  Biso   1.000  H
  H30      1.0000 0.68130  0.63660  0.38140  Biso   1.000  H
  O25      1.0000 0.27090  0.35580  0.55180  Biso   1.000  O
  O26      1.0000 0.72910  0.64420  0.44820  Biso   1.000  O
  H31      1.0000 0.86990  0.96320  0.37160  Biso   1.000  H
  H32      1.0000 0.13010  0.03680  0.62840  Biso   1.000  H
  H33      1.0000 0.70840  0.00630  0.34160  Biso   1.000  H
  H34      1.0000 0.29160  0.99370  0.65840  Biso   1.000  H
