data_image0
_cell_length_a       10.0255
_cell_length_b       10.4344
_cell_length_c       22.7564
_cell_angle_alpha    90
_cell_angle_beta     94.2816
_cell_angle_gamma    90

_symmetry_space_group_name_H-M    "P 1"
_symmetry_int_tables_number       1

loop_
  _symmetry_equiv_pos_as_xyz
  'x, y, z'

loop_
  _atom_site_label
  _atom_site_occupancy
  _atom_site_fract_x
  _atom_site_fract_y
  _atom_site_fract_z
  _atom_site_thermal_displace_type
  _atom_site_B_iso_or_equiv
  _atom_site_type_symbol
  Cu1      1.0000 0.79846  0.02504  0.30971  Biso   1.000  Cu
  Cu2      1.0000 0.20154  0.52504  0.19029  Biso   1.000  Cu
  Cu3      1.0000 0.20154  0.97496  0.69029  Biso   1.000  Cu
  Cu4      1.0000 0.79846  0.47496  0.80971  Biso   1.000  Cu
  N1       1.0000 0.73407  0.22393  0.32675  Biso   1.000  N
  N2       1.0000 0.26593  0.72393  0.17325  Biso   1.000  N
  N3       1.0000 0.26593  0.77607  0.67325  Biso   1.000  N
  N4       1.0000 0.73407  0.27607  0.82675  Biso   1.000  N
  N5       1.0000 0.71345  0.42318  0.30369  Biso   1.000  N
  N6       1.0000 0.28655  0.92318  0.19631  Biso   1.000  N
  N7       1.0000 0.28655  0.57682  0.69631  Biso   1.000  N
  N8       1.0000 0.71345  0.07682  0.80369  Biso   1.000  N
  N9       1.0000 0.00364  0.51116  0.18074  Biso   1.000  N
  N10      1.0000 0.99636  0.01116  0.31926  Biso   1.000  N
  N11      1.0000 0.99636  0.48884  0.81926  Biso   1.000  N
  N12      1.0000 0.00364  0.98884  0.68074  Biso   1.000  N
  N13      1.0000 0.76691  0.31073  0.28891  Biso   1.000  N
  N14      1.0000 0.23309  0.81073  0.21109  Biso   1.000  N
  N15      1.0000 0.23309  0.68927  0.71109  Biso   1.000  N
  N16      1.0000 0.76691  0.18927  0.78891  Biso   1.000  N
  N17      1.0000 0.80916  0.52057  0.22126  Biso   1.000  N
  N18      1.0000 0.19084  0.02057  0.27874  Biso   1.000  N
  N19      1.0000 0.19084  0.47943  0.77874  Biso   1.000  N
  N20      1.0000 0.80916  0.97943  0.72126  Biso   1.000  N
  C1       1.0000 0.65466  0.28037  0.36658  Biso   1.000  C
  C2       1.0000 0.34534  0.78037  0.13342  Biso   1.000  C
  C3       1.0000 0.34534  0.71963  0.63342  Biso   1.000  C
  C4       1.0000 0.65466  0.21963  0.86658  Biso   1.000  C
  C5       1.0000 0.64063  0.40964  0.35165  Biso   1.000  C
  C6       1.0000 0.35937  0.90964  0.14835  Biso   1.000  C
  C7       1.0000 0.35937  0.59036  0.64835  Biso   1.000  C
  C8       1.0000 0.64063  0.09036  0.85165  Biso   1.000  C
  C9       1.0000 0.02740  0.57025  0.28313  Biso   1.000  C
  C10      1.0000 0.97260  0.07025  0.21687  Biso   1.000  C
  C11      1.0000 0.97260  0.42975  0.71687  Biso   1.000  C
  C12      1.0000 0.02740  0.92975  0.78313  Biso   1.000  C
  C13      1.0000 0.94427  0.53347  0.22977  Biso   1.000  C
  C14      1.0000 0.05573  0.03347  0.27023  Biso   1.000  C
  C15      1.0000 0.05573  0.46653  0.77023  Biso   1.000  C
  C16      1.0000 0.94427  0.96653  0.72977  Biso   1.000  C
  C17      1.0000 0.77990  0.48808  0.16237  Biso   1.000  C
  C18      1.0000 0.22010  0.98808  0.33763  Biso   1.000  C
  C19      1.0000 0.22010  0.51192  0.83763  Biso   1.000  C
  C20      1.0000 0.77990  0.01192  0.66237  Biso   1.000  C
  C21      1.0000 0.90344  0.48330  0.13742  Biso   1.000  C
  C22      1.0000 0.09656  0.98330  0.36258  Biso   1.000  C
  C23      1.0000 0.09656  0.51670  0.86258  Biso   1.000  C
  C24      1.0000 0.90344  0.01670  0.63742  Biso   1.000  C
  C25      1.0000 0.70960  0.53365  0.26365  Biso   1.000  C
  C26      1.0000 0.29040  0.03365  0.23635  Biso   1.000  C
  C27      1.0000 0.29040  0.46635  0.73635  Biso   1.000  C
  C28      1.0000 0.70960  0.96635  0.76365  Biso   1.000  C
  H1       1.0000 0.61970  0.54020  0.24270  Biso   1.000  H
  H2       1.0000 0.38030  0.04020  0.25730  Biso   1.000  H
  H3       1.0000 0.38030  0.45980  0.75730  Biso   1.000  H
  H4       1.0000 0.61970  0.95980  0.74270  Biso   1.000  H
  H5       1.0000 0.72640  0.61320  0.28670  Biso   1.000  H
  H6       1.0000 0.27360  0.11320  0.21330  Biso   1.000  H
  H7       1.0000 0.27360  0.38680  0.71330  Biso   1.000  H
  H8       1.0000 0.72640  0.88680  0.78670  Biso   1.000  H
  C29      1.0000 0.91040  0.45800  0.07731  Biso   1.000  C
  C30      1.0000 0.08960  0.95800  0.42269  Biso   1.000  C
  C31      1.0000 0.08960  0.54200  0.92269  Biso   1.000  C
  C32      1.0000 0.91040  0.04200  0.57731  Biso   1.000  C
  H9       1.0000 0.99350  0.45340  0.05990  Biso   1.000  H
  H10      1.0000 0.00650  0.95340  0.44010  Biso   1.000  H
  H11      1.0000 0.00650  0.54660  0.94010  Biso   1.000  H
  H12      1.0000 0.99350  0.04660  0.55990  Biso   1.000  H
  C33      1.0000 0.65870  0.46810  0.12971  Biso   1.000  C
  C34      1.0000 0.34130  0.96810  0.37029  Biso   1.000  C
  C35      1.0000 0.34130  0.53190  0.87029  Biso   1.000  C
  C36      1.0000 0.65870  0.03190  0.62971  Biso   1.000  C
  H13      1.0000 0.57560  0.47040  0.14720  Biso   1.000  H
  H14      1.0000 0.42440  0.97040  0.35280  Biso   1.000  H
  H15      1.0000 0.42440  0.52960  0.85280  Biso   1.000  H
  H16      1.0000 0.57560  0.02960  0.64720  Biso   1.000  H
  C37      1.0000 0.59140  0.22960  0.41454  Biso   1.000  C
  C38      1.0000 0.40860  0.72960  0.08546  Biso   1.000  C
  C39      1.0000 0.40860  0.77040  0.58546  Biso   1.000  C
  C40      1.0000 0.59140  0.27040  0.91454  Biso   1.000  C
  H17      1.0000 0.60050  0.14210  0.42550  Biso   1.000  H
  H18      1.0000 0.39950  0.64210  0.07450  Biso   1.000  H
  H19      1.0000 0.39950  0.85790  0.57450  Biso   1.000  H
  H20      1.0000 0.60050  0.35790  0.92550  Biso   1.000  H
  C41      1.0000 0.21350  0.64911  0.36999  Biso   1.000  C
  C42      1.0000 0.78650  0.14911  0.13001  Biso   1.000  C
  C43      1.0000 0.78650  0.35089  0.63001  Biso   1.000  C
  C44      1.0000 0.21350  0.85089  0.86999  Biso   1.000  C
  H21      1.0000 0.27950  0.67770  0.39920  Biso   1.000  H
  H22      1.0000 0.72050  0.17770  0.10080  Biso   1.000  H
  H23      1.0000 0.72050  0.32230  0.60080  Biso   1.000  H
  H24      1.0000 0.27950  0.82230  0.89920  Biso   1.000  H
  C45      1.0000 0.56474  0.49600  0.38236  Biso   1.000  C
  C46      1.0000 0.43526  0.99600  0.11764  Biso   1.000  C
  C47      1.0000 0.43526  0.50400  0.61764  Biso   1.000  C
  C48      1.0000 0.56474  0.00400  0.88236  Biso   1.000  C
  H25      1.0000 0.55700  0.58400  0.37200  Biso   1.000  H
  H26      1.0000 0.44300  0.08400  0.12800  Biso   1.000  H
  H27      1.0000 0.44300  0.41600  0.62800  Biso   1.000  H
  H28      1.0000 0.55700  0.91600  0.87200  Biso   1.000  H
  C49      1.0000 0.51550  0.31380  0.44475  Biso   1.000  C
  C50      1.0000 0.48450  0.81380  0.05525  Biso   1.000  C
  C51      1.0000 0.48450  0.68620  0.55525  Biso   1.000  C
  C52      1.0000 0.51550  0.18620  0.94475  Biso   1.000  C
  H29      1.0000 0.47080  0.28320  0.47740  Biso   1.000  H
  H30      1.0000 0.52920  0.78320  0.02260  Biso   1.000  H
  H31      1.0000 0.52920  0.71680  0.52260  Biso   1.000  H
  H32      1.0000 0.47080  0.21680  0.97740  Biso   1.000  H
  C53      1.0000 0.50220  0.44430  0.42857  Biso   1.000  C
  C54      1.0000 0.49780  0.94430  0.07143  Biso   1.000  C
  C55      1.0000 0.49780  0.55570  0.57143  Biso   1.000  C
  C56      1.0000 0.50220  0.05570  0.92857  Biso   1.000  C
  H33      1.0000 0.44800  0.49830  0.45050  Biso   1.000  H
  H34      1.0000 0.55200  0.99830  0.04950  Biso   1.000  H
  H35      1.0000 0.55200  0.50170  0.54950  Biso   1.000  H
  H36      1.0000 0.44800  0.00170  0.95050  Biso   1.000  H
  C57      1.0000 0.66630  0.44480  0.07032  Biso   1.000  C
  C58      1.0000 0.33370  0.94480  0.42968  Biso   1.000  C
  C59      1.0000 0.33370  0.55520  0.92968  Biso   1.000  C
  C60      1.0000 0.66630  0.05520  0.57032  Biso   1.000  C
  H37      1.0000 0.58610  0.43170  0.04610  Biso   1.000  H
  H38      1.0000 0.41390  0.93170  0.45390  Biso   1.000  H
  H39      1.0000 0.41390  0.56830  0.95390  Biso   1.000  H
  H40      1.0000 0.58610  0.06830  0.54610  Biso   1.000  H
  C61      1.0000 0.78980  0.44000  0.04460  Biso   1.000  C
  C62      1.0000 0.21020  0.94000  0.45540  Biso   1.000  C
  C63      1.0000 0.21020  0.56000  0.95540  Biso   1.000  C
  C64      1.0000 0.78980  0.06000  0.54460  Biso   1.000  C
  H41      1.0000 0.79030  0.42390  0.00350  Biso   1.000  H
  H42      1.0000 0.20970  0.92390  0.49650  Biso   1.000  H
  H43      1.0000 0.20970  0.57610  0.99650  Biso   1.000  H
  H44      1.0000 0.79030  0.07610  0.50350  Biso   1.000  H
  C65      1.0000 0.08060  0.64160  0.38171  Biso   1.000  C
  C66      1.0000 0.91940  0.14160  0.11829  Biso   1.000  C
  C67      1.0000 0.91940  0.35840  0.61829  Biso   1.000  C
  C68      1.0000 0.08060  0.85840  0.88171  Biso   1.000  C
  H45      1.0000 0.05380  0.66370  0.41960  Biso   1.000  H
  H46      1.0000 0.94620  0.16370  0.08040  Biso   1.000  H
  H47      1.0000 0.94620  0.33630  0.58040  Biso   1.000  H
  H48      1.0000 0.05380  0.83630  0.91960  Biso   1.000  H
  O1       1.0000 0.61256  0.96515  0.28364  Biso   1.000  O
  O2       1.0000 0.38744  0.46515  0.21636  Biso   1.000  O
  O3       1.0000 0.38744  0.03485  0.71636  Biso   1.000  O
  O4       1.0000 0.61256  0.53485  0.78364  Biso   1.000  O
  O5       1.0000 0.51412  0.78549  0.25946  Biso   1.000  O
  O6       1.0000 0.48588  0.28549  0.24054  Biso   1.000  O
  O7       1.0000 0.48588  0.21451  0.74054  Biso   1.000  O
  O8       1.0000 0.51412  0.71451  0.75946  Biso   1.000  O
  C69      1.0000 0.98580  0.60130  0.33759  Biso   1.000  C
  C70      1.0000 0.01420  0.10130  0.16241  Biso   1.000  C
  C71      1.0000 0.01420  0.39870  0.66241  Biso   1.000  C
  C72      1.0000 0.98580  0.89870  0.83759  Biso   1.000  C
  H49      1.0000 0.89400  0.59550  0.34500  Biso   1.000  H
  H50      1.0000 0.10600  0.09550  0.15500  Biso   1.000  H
  H51      1.0000 0.10600  0.40450  0.65500  Biso   1.000  H
  H52      1.0000 0.89400  0.90450  0.84500  Biso   1.000  H
  O9       1.0000 0.76367  0.98179  0.39192  Biso   1.000  O
  O10      1.0000 0.23633  0.48179  0.10808  Biso   1.000  O
  O11      1.0000 0.23633  0.01821  0.60808  Biso   1.000  O
  O12      1.0000 0.76367  0.51821  0.89192  Biso   1.000  O
  O13      1.0000 0.66522  0.85312  0.44847  Biso   1.000  O
  O14      1.0000 0.33478  0.35312  0.05153  Biso   1.000  O
  O15      1.0000 0.33478  0.14688  0.55153  Biso   1.000  O
  O16      1.0000 0.66522  0.64688  0.94847  Biso   1.000  O
  O17      1.0000 0.74750  0.78073  0.36941  Biso   1.000  O
  O18      1.0000 0.25250  0.28073  0.13059  Biso   1.000  O
  O19      1.0000 0.25250  0.21927  0.63059  Biso   1.000  O
  O20      1.0000 0.74750  0.71927  0.86941  Biso   1.000  O
  N21      1.0000 0.72597  0.87112  0.40290  Biso   1.000  N
  N22      1.0000 0.27403  0.37112  0.09710  Biso   1.000  N
  N23      1.0000 0.27403  0.12888  0.59710  Biso   1.000  N
  N24      1.0000 0.72597  0.62888  0.90290  Biso   1.000  N
  N25      1.0000 0.61603  0.85201  0.26089  Biso   1.000  N
  N26      1.0000 0.38397  0.35201  0.23911  Biso   1.000  N
  N27      1.0000 0.38397  0.14799  0.73911  Biso   1.000  N
  N28      1.0000 0.61603  0.64799  0.76089  Biso   1.000  N
  O21      1.0000 0.72153  0.81373  0.24130  Biso   1.000  O
  O22      1.0000 0.27847  0.31373  0.25870  Biso   1.000  O
  O23      1.0000 0.27847  0.18627  0.75870  Biso   1.000  O
  O24      1.0000 0.72153  0.68627  0.74130  Biso   1.000  O
  N29      1.0000 0.15814  0.57456  0.27232  Biso   1.000  N
  N30      1.0000 0.84186  0.07456  0.22768  Biso   1.000  N
  N31      1.0000 0.84186  0.42544  0.72768  Biso   1.000  N
  N32      1.0000 0.15814  0.92544  0.77232  Biso   1.000  N
  C73      1.0000 0.24820  0.61390  0.31441  Biso   1.000  C
  C74      1.0000 0.75180  0.11390  0.18559  Biso   1.000  C
  C75      1.0000 0.75180  0.38610  0.68559  Biso   1.000  C
  C76      1.0000 0.24820  0.88610  0.81441  Biso   1.000  C
  H53      1.0000 0.33960  0.61800  0.30610  Biso   1.000  H
  H54      1.0000 0.66040  0.11800  0.19390  Biso   1.000  H
  H55      1.0000 0.66040  0.38200  0.69390  Biso   1.000  H
  H56      1.0000 0.33960  0.88200  0.80610  Biso   1.000  H
  Cl1      1.0000 0.18227  0.30751  0.37831  Biso   1.000  Cl
  Cl2      1.0000 0.81773  0.80751  0.12169  Biso   1.000  Cl
  Cl3      1.0000 0.81773  0.69249  0.62169  Biso   1.000  Cl
  Cl4      1.0000 0.18227  0.19249  0.87831  Biso   1.000  Cl
  Cl5      1.0000 0.18003  0.41991  0.49558  Biso   1.000  Cl
  Cl6      1.0000 0.81997  0.91991  0.00442  Biso   1.000  Cl
  Cl7      1.0000 0.81997  0.58009  0.50442  Biso   1.000  Cl
  Cl8      1.0000 0.18003  0.08009  0.99558  Biso   1.000  Cl
  Cl9      1.0000 0.95406  0.27198  0.44689  Biso   1.000  Cl
  Cl10     1.0000 0.04594  0.77198  0.05311  Biso   1.000  Cl
  Cl11     1.0000 0.04594  0.72802  0.55311  Biso   1.000  Cl
  Cl12     1.0000 0.95406  0.22802  0.94689  Biso   1.000  Cl
  C77      1.0000 0.12990  0.28910  0.44967  Biso   1.000  C
  C78      1.0000 0.87010  0.78910  0.05033  Biso   1.000  C
  C79      1.0000 0.87010  0.71090  0.55033  Biso   1.000  C
  C80      1.0000 0.12990  0.21090  0.94967  Biso   1.000  C
  H57      1.0000 0.17150  0.20940  0.46720  Biso   1.000  H
  H58      1.0000 0.82850  0.70940  0.03280  Biso   1.000  H
  H59      1.0000 0.82850  0.79060  0.53280  Biso   1.000  H
  H60      1.0000 0.17150  0.29060  0.96720  Biso   1.000  H
