data_image0
_cell_length_a       6.285
_cell_length_b       6.857
_cell_length_c       6.95
_cell_angle_alpha    71.11
_cell_angle_beta     88.14
_cell_angle_gamma    70.8

_symmetry_space_group_name_H-M    "P 1"
_symmetry_int_tables_number       1

loop_
  _symmetry_equiv_pos_as_xyz
  'x, y, z'

loop_
  _atom_site_label
  _atom_site_occupancy
  _atom_site_fract_x
  _atom_site_fract_y
  _atom_site_fract_z
  _atom_site_thermal_displace_type
  _atom_site_B_iso_or_equiv
  _atom_site_type_symbol
  Cu1      1.0000 0.00000  0.00000  0.00000  Biso   1.000  Cu
  N1       1.0000 0.99420  0.70100  0.00410  Biso   1.000  N
  N2       1.0000 0.00580  0.29900  0.99590  Biso   1.000  N
  C1       1.0000 0.15720  0.58810  0.91470  Biso   1.000  C
  C2       1.0000 0.84280  0.41190  0.08530  Biso   1.000  C
  C3       1.0000 0.83580  0.61470  0.08830  Biso   1.000  C
  C4       1.0000 0.16420  0.38530  0.91170  Biso   1.000  C
  H1       1.0000 0.71900  0.68600  0.15100  Biso   1.000  H
  H2       1.0000 0.28100  0.31400  0.84900  Biso   1.000  H
  C5       1.0000 0.33430  0.69020  0.81840  Biso   1.000  C
  C6       1.0000 0.66570  0.30980  0.18160  Biso   1.000  C
  O1       1.0000 0.31730  0.87020  0.83620  Biso   1.000  O
  O2       1.0000 0.68270  0.12980  0.16380  Biso   1.000  O
  O3       1.0000 0.48080  0.58370  0.73190  Biso   1.000  O
  O4       1.0000 0.51920  0.41630  0.26810  Biso   1.000  O
  N3       1.0000 0.82050  0.14900  0.72680  Biso   1.000  N
  N4       1.0000 0.17950  0.85100  0.27320  Biso   1.000  N
  H3       1.0000 0.77000  0.06600  0.69900  Biso   1.000  H
  H4       1.0000 0.23000  0.93400  0.30100  Biso   1.000  H
  H5       1.0000 0.70500  0.24300  0.72700  Biso   1.000  H
  H6       1.0000 0.29500  0.75700  0.27300  Biso   1.000  H
  H7       1.0000 0.90800  0.19800  0.63400  Biso   1.000  H
  H8       1.0000 0.09200  0.80200  0.36600  Biso   1.000  H
  O5       1.0000 0.78000  0.80010  0.54350  Biso   1.000  O
  O6       1.0000 0.22000  0.19990  0.45650  Biso   1.000  O
  H9       1.0000 0.71900  0.88500  0.45500  Biso   1.000  H
  H10      1.0000 0.28100  0.11500  0.54500  Biso   1.000  H
  H11      1.0000 0.68600  0.73500  0.61200  Biso   1.000  H
  H12      1.0000 0.31400  0.26500  0.38800  Biso   1.000  H
