data_image0
_cell_length_a       6.469
_cell_length_b       12.866
_cell_length_c       12.587
_cell_angle_alpha    90
_cell_angle_beta     113.96
_cell_angle_gamma    90

_symmetry_space_group_name_H-M    "P 1"
_symmetry_int_tables_number       1

loop_
  _symmetry_equiv_pos_as_xyz
  'x, y, z'

loop_
  _atom_site_label
  _atom_site_occupancy
  _atom_site_fract_x
  _atom_site_fract_y
  _atom_site_fract_z
  _atom_site_thermal_displace_type
  _atom_site_B_iso_or_equiv
  _atom_site_type_symbol
  Cu1      1.0000 0.00000  0.00000  0.00000  Biso   1.000  Cu
  Cu2      1.0000 0.00000  0.50000  0.50000  Biso   1.000  Cu
  Cu3      1.0000 0.50000  0.50000  0.00000  Biso   1.000  Cu
  Cu4      1.0000 0.50000  0.00000  0.50000  Biso   1.000  Cu
  N1       1.0000 0.78420  0.16137  0.98660  Biso   1.000  N
  N2       1.0000 0.21580  0.66137  0.51340  Biso   1.000  N
  N3       1.0000 0.21580  0.83863  0.01340  Biso   1.000  N
  N4       1.0000 0.78420  0.33863  0.48660  Biso   1.000  N
  C1       1.0000 0.93620  0.23370  0.04390  Biso   1.000  C
  C2       1.0000 0.06380  0.73370  0.45610  Biso   1.000  C
  C3       1.0000 0.06380  0.76630  0.95610  Biso   1.000  C
  C4       1.0000 0.93620  0.26630  0.54390  Biso   1.000  C
  C5       1.0000 0.86960  0.33490  0.05300  Biso   1.000  C
  C6       1.0000 0.13040  0.83490  0.44700  Biso   1.000  C
  C7       1.0000 0.13040  0.66510  0.94700  Biso   1.000  C
  C8       1.0000 0.86960  0.16510  0.55300  Biso   1.000  C
  H1       1.0000 0.96800  0.38400  0.09300  Biso   1.000  H
  H2       1.0000 0.03200  0.88400  0.40700  Biso   1.000  H
  H3       1.0000 0.03200  0.61600  0.90700  Biso   1.000  H
  H4       1.0000 0.96800  0.11600  0.59300  Biso   1.000  H
  N5       1.0000 0.65200  0.36184  0.00570  Biso   1.000  N
  N6       1.0000 0.34800  0.86184  0.49430  Biso   1.000  N
  N7       1.0000 0.34800  0.63816  0.99430  Biso   1.000  N
  N8       1.0000 0.65200  0.13816  0.50570  Biso   1.000  N
  C9       1.0000 0.49840  0.28930  0.94830  Biso   1.000  C
  C10      1.0000 0.50160  0.78930  0.55170  Biso   1.000  C
  C11      1.0000 0.50160  0.71070  0.05170  Biso   1.000  C
  C12      1.0000 0.49840  0.21070  0.44830  Biso   1.000  C
  C13      1.0000 0.56820  0.18920  0.93970  Biso   1.000  C
  C14      1.0000 0.43180  0.68920  0.56030  Biso   1.000  C
  C15      1.0000 0.43180  0.81080  0.06030  Biso   1.000  C
  C16      1.0000 0.56820  0.31080  0.43970  Biso   1.000  C
  H5       1.0000 0.46800  0.14200  0.89900  Biso   1.000  H
  H6       1.0000 0.53200  0.64200  0.60100  Biso   1.000  H
  H7       1.0000 0.53200  0.85800  0.10100  Biso   1.000  H
  H8       1.0000 0.46800  0.35800  0.39900  Biso   1.000  H
  C17      1.0000 0.18420  0.20140  0.09510  Biso   1.000  C
  C18      1.0000 0.81580  0.70140  0.40490  Biso   1.000  C
  C19      1.0000 0.81580  0.79860  0.90490  Biso   1.000  C
  C20      1.0000 0.18420  0.29860  0.59510  Biso   1.000  C
  O1       1.0000 0.22900  0.10980  0.07827  Biso   1.000  O
  O2       1.0000 0.77100  0.60980  0.42173  Biso   1.000  O
  O3       1.0000 0.77100  0.89020  0.92173  Biso   1.000  O
  O4       1.0000 0.22900  0.39020  0.57827  Biso   1.000  O
  O5       1.0000 0.32580  0.26706  0.14976  Biso   1.000  O
  O6       1.0000 0.67420  0.76706  0.35024  Biso   1.000  O
  O7       1.0000 0.67420  0.73294  0.85024  Biso   1.000  O
  O8       1.0000 0.32580  0.23294  0.64976  Biso   1.000  O
  C21      1.0000 0.25460  0.32560  0.89670  Biso   1.000  C
  C22      1.0000 0.74540  0.82560  0.60330  Biso   1.000  C
  C23      1.0000 0.74540  0.67440  0.10330  Biso   1.000  C
  C24      1.0000 0.25460  0.17440  0.39670  Biso   1.000  C
  O9       1.0000 0.22590  0.42080  0.91424  Biso   1.000  O
  O10      1.0000 0.77410  0.92080  0.58576  Biso   1.000  O
  O11      1.0000 0.77410  0.57920  0.08576  Biso   1.000  O
  O12      1.0000 0.22590  0.07920  0.41424  Biso   1.000  O
  O13      1.0000 0.10510  0.26371  0.84327  Biso   1.000  O
  O14      1.0000 0.89490  0.76371  0.65673  Biso   1.000  O
  O15      1.0000 0.89490  0.73629  0.15673  Biso   1.000  O
  O16      1.0000 0.10510  0.23629  0.34327  Biso   1.000  O
  N9       1.0000 0.00280  0.96420  0.15460  Biso   1.000  N
  N10      1.0000 0.99720  0.46420  0.34540  Biso   1.000  N
  N11      1.0000 0.99720  0.03580  0.84540  Biso   1.000  N
  N12      1.0000 0.00280  0.53580  0.65460  Biso   1.000  N
  H9       1.0000 0.13500  0.96600  0.20200  Biso   1.000  H
  H10      1.0000 0.86500  0.46600  0.29800  Biso   1.000  H
  H11      1.0000 0.86500  0.03400  0.79800  Biso   1.000  H
  H12      1.0000 0.13500  0.53400  0.70200  Biso   1.000  H
  H13      1.0000 0.96700  0.90800  0.15200  Biso   1.000  H
  H14      1.0000 0.03300  0.40800  0.34800  Biso   1.000  H
  H15      1.0000 0.03300  0.09200  0.84800  Biso   1.000  H
  H16      1.0000 0.96700  0.59200  0.65200  Biso   1.000  H
  H17      1.0000 0.93500  0.01200  0.17100  Biso   1.000  H
  H18      1.0000 0.06500  0.51200  0.32900  Biso   1.000  H
  H19      1.0000 0.06500  0.98800  0.82900  Biso   1.000  H
  H20      1.0000 0.93500  0.48800  0.67100  Biso   1.000  H
  O17      1.0000 0.48670  0.46424  0.18210  Biso   1.000  O
  O18      1.0000 0.51330  0.96424  0.31790  Biso   1.000  O
  O19      1.0000 0.51330  0.53576  0.81790  Biso   1.000  O
  O20      1.0000 0.48670  0.03576  0.68210  Biso   1.000  O
  H21      1.0000 0.43300  0.41600  0.18100  Biso   1.000  H
  H22      1.0000 0.56700  0.91600  0.31900  Biso   1.000  H
  H23      1.0000 0.56700  0.58400  0.81900  Biso   1.000  H
  H24      1.0000 0.43300  0.08400  0.68100  Biso   1.000  H
  H25      1.0000 0.43500  0.50800  0.20100  Biso   1.000  H
  H26      1.0000 0.56500  0.00800  0.29900  Biso   1.000  H
  H27      1.0000 0.56500  0.49200  0.79900  Biso   1.000  H
  H28      1.0000 0.43500  0.99200  0.70100  Biso   1.000  H
  O21      1.0000 0.71380  0.11550  0.23630  Biso   1.000  O
  O22      1.0000 0.28620  0.61550  0.26370  Biso   1.000  O
  O23      1.0000 0.28620  0.88450  0.76370  Biso   1.000  O
  O24      1.0000 0.71380  0.38450  0.73630  Biso   1.000  O
  H29      1.0000 0.59900  0.14900  0.20200  Biso   1.000  H
  H30      1.0000 0.40100  0.64900  0.29800  Biso   1.000  H
  H31      1.0000 0.40100  0.85100  0.79800  Biso   1.000  H
  H32      1.0000 0.59900  0.35100  0.70200  Biso   1.000  H
  H33      1.0000 0.79800  0.14500  0.27500  Biso   1.000  H
  H34      1.0000 0.20200  0.64500  0.22500  Biso   1.000  H
  H35      1.0000 0.20200  0.85500  0.72500  Biso   1.000  H
  H36      1.0000 0.79800  0.35500  0.77500  Biso   1.000  H
