data_image0
_cell_length_a       8.319
_cell_length_b       11.904
_cell_length_c       13.646
_cell_angle_alpha    87.24
_cell_angle_beta     73.13
_cell_angle_gamma    84.15

_symmetry_space_group_name_H-M    "P 1"
_symmetry_int_tables_number       1

loop_
  _symmetry_equiv_pos_as_xyz
  'x, y, z'

loop_
  _atom_site_label
  _atom_site_occupancy
  _atom_site_fract_x
  _atom_site_fract_y
  _atom_site_fract_z
  _atom_site_thermal_displace_type
  _atom_site_B_iso_or_equiv
  _atom_site_type_symbol
  Cu1      1.0000 0.17353  0.24781  0.39944  Biso   1.000  Cu
  Cu2      1.0000 0.82647  0.75219  0.60056  Biso   1.000  Cu
  Cu3      1.0000 0.82507  0.04821  0.96889  Biso   1.000  Cu
  Cu4      1.0000 0.17493  0.95179  0.03111  Biso   1.000  Cu
  O1       1.0000 0.34930  0.08430  0.35820  Biso   1.000  O
  O2       1.0000 0.65070  0.91570  0.64180  Biso   1.000  O
  H1       1.0000 0.44700  0.08600  0.32800  Biso   1.000  H
  H2       1.0000 0.55300  0.91400  0.67200  Biso   1.000  H
  H3       1.0000 0.31800  0.03300  0.33500  Biso   1.000  H
  H4       1.0000 0.68200  0.96700  0.66500  Biso   1.000  H
  N1       1.0000 0.97880  0.17360  0.37980  Biso   1.000  N
  N2       1.0000 0.02120  0.82640  0.62020  Biso   1.000  N
  C1       1.0000 0.95940  0.19300  0.28610  Biso   1.000  C
  C2       1.0000 0.04060  0.80700  0.71390  Biso   1.000  C
  C3       1.0000 0.84280  0.13810  0.25620  Biso   1.000  C
  C4       1.0000 0.15720  0.86190  0.74380  Biso   1.000  C
  N3       1.0000 0.74360  0.06770  0.32040  Biso   1.000  N
  N4       1.0000 0.25640  0.93230  0.67960  Biso   1.000  N
  C5       1.0000 0.76310  0.05220  0.41410  Biso   1.000  C
  C6       1.0000 0.23690  0.94780  0.58590  Biso   1.000  C
  H5       1.0000 0.69400  0.00500  0.46100  Biso   1.000  H
  H6       1.0000 0.30600  0.99500  0.53900  Biso   1.000  H
  C7       1.0000 0.88200  0.10370  0.44390  Biso   1.000  C
  C8       1.0000 0.11800  0.89630  0.55610  Biso   1.000  C
  H7       1.0000 0.89400  0.09000  0.50900  Biso   1.000  H
  H8       1.0000 0.10600  0.91000  0.49100  Biso   1.000  H
  C9       1.0000 0.07090  0.27720  0.22140  Biso   1.000  C
  C10      1.0000 0.92910  0.72280  0.77860  Biso   1.000  C
  O3       1.0000 0.18060  0.30840  0.26090  Biso   1.000  O
  O4       1.0000 0.81940  0.69160  0.73910  Biso   1.000  O
  O5       1.0000 0.04970  0.30990  0.13940  Biso   1.000  O
  O6       1.0000 0.95030  0.69010  0.86060  Biso   1.000  O
  C11      1.0000 0.81230  0.14700  0.15150  Biso   1.000  C
  C12      1.0000 0.18770  0.85300  0.84850  Biso   1.000  C
  O7       1.0000 0.90560  0.07640  0.08639  Biso   1.000  O
  O8       1.0000 0.09440  0.92360  0.91361  Biso   1.000  O
  O9       1.0000 0.69580  0.21110  0.13820  Biso   1.000  O
  O10      1.0000 0.30420  0.78890  0.86180  Biso   1.000  O
  N5       1.0000 0.93610  0.17990  0.88760  Biso   1.000  N
  N6       1.0000 0.06390  0.82010  0.11240  Biso   1.000  N
  C13      1.0000 0.93440  0.18020  0.78920  Biso   1.000  C
  C14      1.0000 0.06560  0.81980  0.21080  Biso   1.000  C
  C15      1.0000 0.00710  0.26250  0.72050  Biso   1.000  C
  C16      1.0000 0.99290  0.73750  0.27950  Biso   1.000  C
  N7       1.0000 0.08030  0.34510  0.74950  Biso   1.000  N
  N8       1.0000 0.91970  0.65490  0.25050  Biso   1.000  N
  C17      1.0000 0.08070  0.34350  0.84750  Biso   1.000  C
  C18      1.0000 0.91930  0.65650  0.15250  Biso   1.000  C
  H9       1.0000 0.13100  0.40000  0.86900  Biso   1.000  H
  H10      1.0000 0.86900  0.60000  0.13100  Biso   1.000  H
  C19      1.0000 0.01000  0.26200  0.91720  Biso   1.000  C
  C20      1.0000 0.99000  0.73800  0.08280  Biso   1.000  C
  H11      1.0000 0.01300  0.26400  0.98500  Biso   1.000  H
  H12      1.0000 0.98700  0.73600  0.01500  Biso   1.000  H
  C21      1.0000 0.84050  0.08700  0.76630  Biso   1.000  C
  C22      1.0000 0.15950  0.91300  0.23370  Biso   1.000  C
  O11      1.0000 0.78170  0.02050  0.84050  Biso   1.000  O
  O12      1.0000 0.21830  0.97950  0.15950  Biso   1.000  O
  O13      1.0000 0.82160  0.08430  0.68000  Biso   1.000  O
  O14      1.0000 0.17840  0.91570  0.32000  Biso   1.000  O
  C23      1.0000 0.00540  0.27320  0.60880  Biso   1.000  C
  C24      1.0000 0.99460  0.72680  0.39120  Biso   1.000  C
  O15      1.0000 0.11720  0.21010  0.54770  Biso   1.000  O
  O16      1.0000 0.88280  0.78990  0.45230  Biso   1.000  O
  O17      1.0000 0.90370  0.34550  0.58870  Biso   1.000  O
  O18      1.0000 0.09630  0.65450  0.41130  Biso   1.000  O
  N9       1.0000 0.36860  0.32440  0.40720  Biso   1.000  N
  N10      1.0000 0.63140  0.67560  0.59280  Biso   1.000  N
  C25      1.0000 0.43660  0.40510  0.34020  Biso   1.000  C
  C26      1.0000 0.56340  0.59490  0.65980  Biso   1.000  C
  H13      1.0000 0.38200  0.43100  0.29200  Biso   1.000  H
  H14      1.0000 0.61800  0.56900  0.70800  Biso   1.000  H
  C27      1.0000 0.58130  0.45130  0.33880  Biso   1.000  C
  C28      1.0000 0.41870  0.54870  0.66120  Biso   1.000  C
  H15      1.0000 0.62300  0.50600  0.29000  Biso   1.000  H
  H16      1.0000 0.37700  0.49400  0.71000  Biso   1.000  H
  C29      1.0000 0.66680  0.41560  0.41090  Biso   1.000  C
  C30      1.0000 0.33320  0.58440  0.58910  Biso   1.000  C
  C31      1.0000 0.59430  0.33230  0.48120  Biso   1.000  C
  C32      1.0000 0.40570  0.66770  0.51880  Biso   1.000  C
  H17      1.0000 0.64500  0.30600  0.53100  Biso   1.000  H
  H18      1.0000 0.35500  0.69400  0.46900  Biso   1.000  H
  C33      1.0000 0.45040  0.29030  0.47640  Biso   1.000  C
  C34      1.0000 0.54960  0.70970  0.52360  Biso   1.000  C
  H19      1.0000 0.40600  0.23500  0.52400  Biso   1.000  H
  H20      1.0000 0.59400  0.76500  0.47600  Biso   1.000  H
  N11      1.0000 0.80980  0.45730  0.41190  Biso   1.000  N
  N12      1.0000 0.19020  0.54270  0.58810  Biso   1.000  N
  H21      1.0000 0.85200  0.50800  0.36700  Biso   1.000  H
  H22      1.0000 0.14800  0.49200  0.63300  Biso   1.000  H
  H23      1.0000 0.85900  0.43400  0.45700  Biso   1.000  H
  H24      1.0000 0.14100  0.56600  0.54300  Biso   1.000  H
  N13      1.0000 0.68330  0.92900  0.04320  Biso   1.000  N
  N14      1.0000 0.31670  0.07100  0.95680  Biso   1.000  N
  C35      1.0000 0.64530  0.91280  0.14700  Biso   1.000  C
  C36      1.0000 0.35470  0.08720  0.85300  Biso   1.000  C
  H25      1.0000 0.68300  0.96300  0.18400  Biso   1.000  H
  H26      1.0000 0.31700  0.03700  0.81600  Biso   1.000  H
  C37      1.0000 0.55720  0.82860  0.20090  Biso   1.000  C
  C38      1.0000 0.44280  0.17140  0.79910  Biso   1.000  C
  H27      1.0000 0.53800  0.82200  0.27100  Biso   1.000  H
  H28      1.0000 0.46200  0.17800  0.72900  Biso   1.000  H
  C39      1.0000 0.49430  0.75090  0.14930  Biso   1.000  C
  C40      1.0000 0.50570  0.24910  0.85070  Biso   1.000  C
  C41      1.0000 0.53190  0.76700  0.04170  Biso   1.000  C
  C42      1.0000 0.46810  0.23300  0.95830  Biso   1.000  C
  H29      1.0000 0.49500  0.71800  0.00300  Biso   1.000  H
  H30      1.0000 0.50500  0.28200  0.99700  Biso   1.000  H
  C43      1.0000 0.62270  0.85390  0.99460  Biso   1.000  C
  C44      1.0000 0.37730  0.14610  0.00540  Biso   1.000  C
  H31      1.0000 0.64500  0.86200  0.92400  Biso   1.000  H
  H32      1.0000 0.35500  0.13800  0.07600  Biso   1.000  H
  N15      1.0000 0.40340  0.66880  0.20010  Biso   1.000  N
  N16      1.0000 0.59660  0.33120  0.79990  Biso   1.000  N
  H33      1.0000 0.38200  0.66200  0.26600  Biso   1.000  H
  H34      1.0000 0.61800  0.33800  0.73400  Biso   1.000  H
  H35      1.0000 0.36600  0.62200  0.16700  Biso   1.000  H
  H36      1.0000 0.63400  0.37800  0.83300  Biso   1.000  H
  O19      1.0000 0.31470  0.48470  0.10740  Biso   1.000  O
  O20      1.0000 0.68530  0.51530  0.89260  Biso   1.000  O
  H37      1.0000 0.28300  0.42800  0.13300  Biso   1.000  H
  H38      1.0000 0.71700  0.57200  0.86700  Biso   1.000  H
  H39      1.0000 0.32100  0.48900  0.04500  Biso   1.000  H
  H40      1.0000 0.67900  0.51100  0.95500  Biso   1.000  H
  O21      1.0000 0.31040  0.54970  0.91580  Biso   1.000  O
  O22      1.0000 0.68960  0.45030  0.08420  Biso   1.000  O
  H41      1.0000 0.41700  0.55900  0.90100  Biso   1.000  H
  H42      1.0000 0.58300  0.44100  0.09900  Biso   1.000  H
  H43      1.0000 0.25900  0.61000  0.89700  Biso   1.000  H
  H44      1.0000 0.74100  0.39000  0.10300  Biso   1.000  H
