data_image0
_cell_length_a       10.71
_cell_length_b       13.672
_cell_length_c       9.374
_cell_angle_alpha    90
_cell_angle_beta     93.18
_cell_angle_gamma    90

_symmetry_space_group_name_H-M    "P 1"
_symmetry_int_tables_number       1

loop_
  _symmetry_equiv_pos_as_xyz
  'x, y, z'

loop_
  _atom_site_label
  _atom_site_occupancy
  _atom_site_fract_x
  _atom_site_fract_y
  _atom_site_fract_z
  _atom_site_thermal_displace_type
  _atom_site_B_iso_or_equiv
  _atom_site_type_symbol
  Cu1      1.0000 0.60732  0.57924  0.58396  Biso   1.000  Cu
  Cu2      1.0000 0.39268  0.07924  0.91604  Biso   1.000  Cu
  Cu3      1.0000 0.39268  0.42076  0.41604  Biso   1.000  Cu
  Cu4      1.0000 0.60732  0.92076  0.08396  Biso   1.000  Cu
  N1       1.0000 0.48580  0.63350  0.71670  Biso   1.000  N
  N2       1.0000 0.51420  0.13350  0.78330  Biso   1.000  N
  N3       1.0000 0.51420  0.36650  0.28330  Biso   1.000  N
  N4       1.0000 0.48580  0.86650  0.21670  Biso   1.000  N
  C1       1.0000 0.48370  0.73210  0.71530  Biso   1.000  C
  C2       1.0000 0.51630  0.23210  0.78470  Biso   1.000  C
  C3       1.0000 0.51630  0.26790  0.28470  Biso   1.000  C
  C4       1.0000 0.48370  0.76790  0.21530  Biso   1.000  C
  C5       1.0000 0.40330  0.78300  0.79670  Biso   1.000  C
  C6       1.0000 0.59670  0.28300  0.70330  Biso   1.000  C
  C7       1.0000 0.59670  0.21700  0.20330  Biso   1.000  C
  C8       1.0000 0.40330  0.71700  0.29670  Biso   1.000  C
  N5       1.0000 0.32570  0.73670  0.88280  Biso   1.000  N
  N6       1.0000 0.67430  0.23670  0.61720  Biso   1.000  N
  N7       1.0000 0.67430  0.26330  0.11720  Biso   1.000  N
  N8       1.0000 0.32570  0.76330  0.38280  Biso   1.000  N
  C9       1.0000 0.33110  0.63920  0.88380  Biso   1.000  C
  C10      1.0000 0.66890  0.13920  0.61620  Biso   1.000  C
  C11      1.0000 0.66890  0.36080  0.11620  Biso   1.000  C
  C12      1.0000 0.33110  0.86080  0.38380  Biso   1.000  C
  H1       1.0000 0.27600  0.61100  0.94100  Biso   1.000  H
  H2       1.0000 0.72400  0.11100  0.55900  Biso   1.000  H
  H3       1.0000 0.72400  0.38900  0.05900  Biso   1.000  H
  H4       1.0000 0.27600  0.88900  0.44100  Biso   1.000  H
  C13      1.0000 0.40980  0.58740  0.80130  Biso   1.000  C
  C14      1.0000 0.59020  0.08740  0.69870  Biso   1.000  C
  C15      1.0000 0.59020  0.41260  0.19870  Biso   1.000  C
  C16      1.0000 0.40980  0.91260  0.30130  Biso   1.000  C
  H5       1.0000 0.41900  0.52400  0.80200  Biso   1.000  H
  H6       1.0000 0.58100  0.02400  0.69800  Biso   1.000  H
  H7       1.0000 0.58100  0.47600  0.19800  Biso   1.000  H
  H8       1.0000 0.41900  0.97600  0.30200  Biso   1.000  H
  C17      1.0000 0.57320  0.77810  0.61830  Biso   1.000  C
  C18      1.0000 0.42680  0.27810  0.88170  Biso   1.000  C
  C19      1.0000 0.42680  0.22190  0.38170  Biso   1.000  C
  C20      1.0000 0.57320  0.72190  0.11830  Biso   1.000  C
  O1       1.0000 0.63750  0.71700  0.54830  Biso   1.000  O
  O2       1.0000 0.36250  0.21700  0.95170  Biso   1.000  O
  O3       1.0000 0.36250  0.28300  0.45170  Biso   1.000  O
  O4       1.0000 0.63750  0.78300  0.04830  Biso   1.000  O
  O5       1.0000 0.58140  0.86680  0.60840  Biso   1.000  O
  O6       1.0000 0.41860  0.36680  0.89160  Biso   1.000  O
  O7       1.0000 0.41860  0.13320  0.39160  Biso   1.000  O
  O8       1.0000 0.58140  0.63320  0.10840  Biso   1.000  O
  C21      1.0000 0.38400  0.89210  0.79440  Biso   1.000  C
  C22      1.0000 0.61600  0.39210  0.70560  Biso   1.000  C
  C23      1.0000 0.61600  0.10790  0.20560  Biso   1.000  C
  C24      1.0000 0.38400  0.60790  0.29440  Biso   1.000  C
  O9       1.0000 0.44670  0.94260  0.88760  Biso   1.000  O
  O10      1.0000 0.55330  0.44260  0.61240  Biso   1.000  O
  O11      1.0000 0.55330  0.05740  0.11240  Biso   1.000  O
  O12      1.0000 0.44670  0.55740  0.38760  Biso   1.000  O
  O13      1.0000 0.30090  0.92450  0.71130  Biso   1.000  O
  O14      1.0000 0.69910  0.42450  0.78870  Biso   1.000  O
  O15      1.0000 0.69910  0.07550  0.28870  Biso   1.000  O
  O16      1.0000 0.30090  0.57550  0.21130  Biso   1.000  O
  N9       1.0000 0.74830  0.54230  0.47310  Biso   1.000  N
  N10      1.0000 0.25170  0.04230  0.02690  Biso   1.000  N
  N11      1.0000 0.25170  0.45770  0.52690  Biso   1.000  N
  N12      1.0000 0.74830  0.95770  0.97310  Biso   1.000  N
  C25      1.0000 0.80790  0.60400  0.39360  Biso   1.000  C
  C26      1.0000 0.19210  0.10400  0.10640  Biso   1.000  C
  C27      1.0000 0.19210  0.39600  0.60640  Biso   1.000  C
  C28      1.0000 0.80790  0.89600  0.89360  Biso   1.000  C
  H9       1.0000 0.78400  0.66400  0.38400  Biso   1.000  H
  H10      1.0000 0.21600  0.16400  0.11600  Biso   1.000  H
  H11      1.0000 0.21600  0.33600  0.61600  Biso   1.000  H
  H12      1.0000 0.78400  0.83600  0.88400  Biso   1.000  H
  N13      1.0000 0.89650  0.55960  0.32520  Biso   1.000  N
  N14      1.0000 0.10350  0.05960  0.17480  Biso   1.000  N
  N15      1.0000 0.10350  0.44040  0.67480  Biso   1.000  N
  N16      1.0000 0.89650  0.94040  0.82520  Biso   1.000  N
  H13      1.0000 0.93700  0.58900  0.26200  Biso   1.000  H
  H14      1.0000 0.06300  0.08900  0.23800  Biso   1.000  H
  H15      1.0000 0.06300  0.41100  0.73800  Biso   1.000  H
  H16      1.0000 0.93700  0.91100  0.76200  Biso   1.000  H
  C29      1.0000 0.89510  0.46420  0.36260  Biso   1.000  C
  C30      1.0000 0.10490  0.96420  0.13740  Biso   1.000  C
  C31      1.0000 0.10490  0.53580  0.63740  Biso   1.000  C
  C32      1.0000 0.89510  0.03580  0.86260  Biso   1.000  C
  H17      1.0000 0.95800  0.42100  0.34100  Biso   1.000  H
  H18      1.0000 0.04200  0.92100  0.15900  Biso   1.000  H
  H19      1.0000 0.04200  0.57900  0.65900  Biso   1.000  H
  H20      1.0000 0.95800  0.07900  0.84100  Biso   1.000  H
  C33      1.0000 0.80580  0.45310  0.45330  Biso   1.000  C
  C34      1.0000 0.19420  0.95310  0.04670  Biso   1.000  C
  C35      1.0000 0.19420  0.54690  0.54670  Biso   1.000  C
  C36      1.0000 0.80580  0.04690  0.95330  Biso   1.000  C
  H21      1.0000 0.77800  0.40200  0.49700  Biso   1.000  H
  H22      1.0000 0.22200  0.90200  0.00300  Biso   1.000  H
  H23      1.0000 0.22200  0.59800  0.50300  Biso   1.000  H
  H24      1.0000 0.77800  0.09800  0.99700  Biso   1.000  H
  O17      1.0000 0.76170  0.61670  0.87630  Biso   1.000  O
  O18      1.0000 0.23830  0.11670  0.62370  Biso   1.000  O
  O19      1.0000 0.23830  0.38330  0.12370  Biso   1.000  O
  O20      1.0000 0.76170  0.88330  0.37630  Biso   1.000  O
  H25      1.0000 0.70100  0.62310  0.93920  Biso   1.000  H
  H26      1.0000 0.29900  0.12310  0.56080  Biso   1.000  H
  H27      1.0000 0.29900  0.37690  0.06080  Biso   1.000  H
  H28      1.0000 0.70100  0.87690  0.43920  Biso   1.000  H
  H29      1.0000 0.75970  0.54750  0.85210  Biso   1.000  H
  H30      1.0000 0.24030  0.04750  0.64790  Biso   1.000  H
  H31      1.0000 0.24030  0.45250  0.14790  Biso   1.000  H
  H32      1.0000 0.75970  0.95250  0.35210  Biso   1.000  H
  O21      1.0000 0.93450  0.32270  0.82110  Biso   1.000  O
  O22      1.0000 0.06550  0.82270  0.67890  Biso   1.000  O
  O23      1.0000 0.06550  0.67730  0.17890  Biso   1.000  O
  O24      1.0000 0.93450  0.17730  0.32110  Biso   1.000  O
  H33      1.0000 0.87290  0.33640  0.79910  Biso   1.000  H
  H34      1.0000 0.12710  0.83640  0.70090  Biso   1.000  H
  H35      1.0000 0.12710  0.66360  0.20090  Biso   1.000  H
  H36      1.0000 0.87290  0.16360  0.29910  Biso   1.000  H
  H37      1.0000 0.94540  0.31870  0.89500  Biso   1.000  H
  H38      1.0000 0.05460  0.81870  0.60500  Biso   1.000  H
  H39      1.0000 0.05460  0.68130  0.10500  Biso   1.000  H
  H40      1.0000 0.94540  0.18130  0.39500  Biso   1.000  H
  O25      1.0000 0.00280  0.68670  0.89830  Biso   1.000  O
  O26      1.0000 0.99720  0.18670  0.60170  Biso   1.000  O
  O27      1.0000 0.99720  0.31330  0.10170  Biso   1.000  O
  O28      1.0000 0.00280  0.81330  0.39830  Biso   1.000  O
  H41      1.0000 0.91650  0.67510  0.89370  Biso   1.000  H
  H42      1.0000 0.08350  0.17510  0.60630  Biso   1.000  H
  H43      1.0000 0.08350  0.32490  0.10630  Biso   1.000  H
  H44      1.0000 0.91650  0.82490  0.39370  Biso   1.000  H
  H45      1.0000 0.02650  0.72630  0.82260  Biso   1.000  H
  H46      1.0000 0.97350  0.22630  0.67740  Biso   1.000  H
  H47      1.0000 0.97350  0.27370  0.17740  Biso   1.000  H
  H48      1.0000 0.02650  0.77370  0.32260  Biso   1.000  H
