data_image0
_cell_length_a       6.43
_cell_length_b       8.052
_cell_length_c       11.914
_cell_angle_alpha    95.26
_cell_angle_beta     94.99
_cell_angle_gamma    98.85

_symmetry_space_group_name_H-M    "P 1"
_symmetry_int_tables_number       1

loop_
  _symmetry_equiv_pos_as_xyz
  'x, y, z'

loop_
  _atom_site_label
  _atom_site_occupancy
  _atom_site_fract_x
  _atom_site_fract_y
  _atom_site_fract_z
  _atom_site_thermal_displace_type
  _atom_site_B_iso_or_equiv
  _atom_site_type_symbol
  Cu1      1.0000 0.50000  0.00000  0.00000  Biso   1.000  Cu
  N1       1.0000 0.68930  0.85206  0.93658  Biso   1.000  N
  N2       1.0000 0.31070  0.14794  0.06342  Biso   1.000  N
  C1       1.0000 0.83760  0.93740  0.88100  Biso   1.000  C
  C2       1.0000 0.16240  0.06260  0.11900  Biso   1.000  C
  C3       1.0000 0.97510  0.85150  0.82366  Biso   1.000  C
  C4       1.0000 0.02490  0.14850  0.17634  Biso   1.000  C
  N3       1.0000 0.96590  0.68370  0.82476  Biso   1.000  N
  N4       1.0000 0.03410  0.31630  0.17524  Biso   1.000  N
  C5       1.0000 0.81990  0.60290  0.88250  Biso   1.000  C
  C6       1.0000 0.18010  0.39710  0.11750  Biso   1.000  C
  C7       1.0000 0.67810  0.68670  0.93755  Biso   1.000  C
  C8       1.0000 0.32190  0.31330  0.06245  Biso   1.000  C
  C9       1.0000 0.84050  0.12680  0.89136  Biso   1.000  C
  C10      1.0000 0.15950  0.87320  0.10864  Biso   1.000  C
  O1       1.0000 0.69740  0.17803  0.94655  Biso   1.000  O
  O2       1.0000 0.30260  0.82197  0.05345  Biso   1.000  O
  O3       1.0000 0.97680  0.21659  0.84831  Biso   1.000  O
  O4       1.0000 0.02320  0.78341  0.15169  Biso   1.000  O
  C11      1.0000 0.14540  0.93740  0.75694  Biso   1.000  C
  C12      1.0000 0.85460  0.06260  0.24306  Biso   1.000  C
  O5       1.0000 0.32740  0.96990  0.80424  Biso   1.000  O
  O6       1.0000 0.67260  0.03010  0.19576  Biso   1.000  O
  O7       1.0000 0.08430  0.96200  0.65797  Biso   1.000  O
  O8       1.0000 0.91570  0.03800  0.34203  Biso   1.000  O
  N5       1.0000 0.61000  0.84380  0.42596  Biso   1.000  N
  N6       1.0000 0.39000  0.15620  0.57404  Biso   1.000  N
  C13      1.0000 0.62070  0.79790  0.53143  Biso   1.000  C
  C14      1.0000 0.37930  0.20210  0.46857  Biso   1.000  C
  C15      1.0000 0.45070  0.69840  0.56709  Biso   1.000  C
  C16      1.0000 0.54930  0.30160  0.43291  Biso   1.000  C
  C17      1.0000 0.26570  0.64490  0.49393  Biso   1.000  C
  C18      1.0000 0.73430  0.35510  0.50607  Biso   1.000  C
  C19      1.0000 0.26200  0.69640  0.38567  Biso   1.000  C
  C20      1.0000 0.73800  0.30360  0.61433  Biso   1.000  C
  C21      1.0000 0.43670  0.79520  0.35400  Biso   1.000  C
  C22      1.0000 0.56330  0.20480  0.64600  Biso   1.000  C
  C23      1.0000 0.08670  0.53640  0.53235  Biso   1.000  C
  C24      1.0000 0.91330  0.46360  0.46765  Biso   1.000  C
  O9       1.0000 0.69630  0.53720  0.20720  Biso   1.000  O
  O10      1.0000 0.30370  0.46280  0.79280  Biso   1.000  O
  H1       1.0000 0.81200  0.49300  0.88100  Biso   1.000  H
  H2       1.0000 0.18800  0.50700  0.11900  Biso   1.000  H
  H3       1.0000 0.57900  0.63100  0.98100  Biso   1.000  H
  H4       1.0000 0.42100  0.36900  0.01900  Biso   1.000  H
  H5       1.0000 0.69800  0.90500  0.40400  Biso   1.000  H
  H6       1.0000 0.30200  0.09500  0.59600  Biso   1.000  H
  H7       1.0000 0.74400  0.83500  0.57500  Biso   1.000  H
  H8       1.0000 0.25600  0.16500  0.42500  Biso   1.000  H
  H9       1.0000 0.45600  0.66600  0.63900  Biso   1.000  H
  H10      1.0000 0.54400  0.33400  0.36100  Biso   1.000  H
  H11      1.0000 0.15100  0.66400  0.33600  Biso   1.000  H
  H12      1.0000 0.84900  0.33600  0.66400  Biso   1.000  H
  H13      1.0000 0.44300  0.84000  0.28700  Biso   1.000  H
  H14      1.0000 0.55700  0.16000  0.71300  Biso   1.000  H
  H15      1.0000 0.11100  0.51800  0.60400  Biso   1.000  H
  H16      1.0000 0.88900  0.48200  0.39600  Biso   1.000  H
  H17      1.0000 0.73400  0.63400  0.19900  Biso   1.000  H
  H18      1.0000 0.26600  0.36600  0.80100  Biso   1.000  H
  H19      1.0000 0.79000  0.45200  0.18700  Biso   1.000  H
  H20      1.0000 0.21000  0.54800  0.81300  Biso   1.000  H
