data_image0
_cell_length_a       11.0247
_cell_length_b       18.664
_cell_length_c       15.0544
_cell_angle_alpha    90
_cell_angle_beta     90.063
_cell_angle_gamma    90

_symmetry_space_group_name_H-M    "P 1"
_symmetry_int_tables_number       1

loop_
  _symmetry_equiv_pos_as_xyz
  'x, y, z'

loop_
  _atom_site_label
  _atom_site_occupancy
  _atom_site_fract_x
  _atom_site_fract_y
  _atom_site_fract_z
  _atom_site_thermal_displace_type
  _atom_site_B_iso_or_equiv
  _atom_site_type_symbol
  Cu1      1.0000 0.69321  0.12359  0.95644  Biso   1.000  Cu
  Cu2      1.0000 0.19321  0.62359  0.95644  Biso   1.000  Cu
  Cu3      1.0000 0.30679  0.12359  0.54356  Biso   1.000  Cu
  Cu4      1.0000 0.80679  0.62359  0.54356  Biso   1.000  Cu
  Cu5      1.0000 0.30679  0.87641  0.04356  Biso   1.000  Cu
  Cu6      1.0000 0.80679  0.37641  0.04356  Biso   1.000  Cu
  Cu7      1.0000 0.69321  0.87641  0.45644  Biso   1.000  Cu
  Cu8      1.0000 0.19321  0.37641  0.45644  Biso   1.000  Cu
  P1       1.0000 0.66383  0.28188  0.89509  Biso   1.000  P
  P2       1.0000 0.16383  0.78188  0.89509  Biso   1.000  P
  P3       1.0000 0.33617  0.28188  0.60491  Biso   1.000  P
  P4       1.0000 0.83617  0.78188  0.60491  Biso   1.000  P
  P5       1.0000 0.33617  0.71812  0.10491  Biso   1.000  P
  P6       1.0000 0.83617  0.21812  0.10491  Biso   1.000  P
  P7       1.0000 0.66383  0.71812  0.39509  Biso   1.000  P
  P8       1.0000 0.16383  0.21812  0.39509  Biso   1.000  P
  V1       1.0000 0.84410  0.19547  0.77206  Biso   1.000  V
  V2       1.0000 0.34410  0.69547  0.77206  Biso   1.000  V
  V3       1.0000 0.15590  0.19547  0.72794  Biso   1.000  V
  V4       1.0000 0.65590  0.69547  0.72794  Biso   1.000  V
  V5       1.0000 0.15590  0.80453  0.22794  Biso   1.000  V
  V6       1.0000 0.65590  0.30453  0.22794  Biso   1.000  V
  V7       1.0000 0.84410  0.80453  0.27206  Biso   1.000  V
  V8       1.0000 0.34410  0.30453  0.27206  Biso   1.000  V
  O1       1.0000 0.82150  0.11992  0.82520  Biso   1.000  O
  O2       1.0000 0.32150  0.61992  0.82520  Biso   1.000  O
  O3       1.0000 0.17850  0.11992  0.67480  Biso   1.000  O
  O4       1.0000 0.67850  0.61992  0.67480  Biso   1.000  O
  O5       1.0000 0.17850  0.88008  0.17480  Biso   1.000  O
  O6       1.0000 0.67850  0.38008  0.17480  Biso   1.000  O
  O7       1.0000 0.82150  0.88008  0.32520  Biso   1.000  O
  O8       1.0000 0.32150  0.38008  0.32520  Biso   1.000  O
  O9       1.0000 0.00000  0.21170  0.75000  Biso   1.000  O
  O10      1.0000 0.50000  0.71170  0.75000  Biso   1.000  O
  O11      1.0000 0.00000  0.78830  0.25000  Biso   1.000  O
  O12      1.0000 0.50000  0.28830  0.25000  Biso   1.000  O
  O13      1.0000 0.76960  0.19240  0.68040  Biso   1.000  O
  O14      1.0000 0.26960  0.69240  0.68040  Biso   1.000  O
  O15      1.0000 0.23040  0.19240  0.81960  Biso   1.000  O
  O16      1.0000 0.73040  0.69240  0.81960  Biso   1.000  O
  O17      1.0000 0.23040  0.80760  0.31960  Biso   1.000  O
  O18      1.0000 0.73040  0.30760  0.31960  Biso   1.000  O
  O19      1.0000 0.76960  0.80760  0.18040  Biso   1.000  O
  O20      1.0000 0.26960  0.30760  0.18040  Biso   1.000  O
  O21      1.0000 0.78090  0.26969  0.83960  Biso   1.000  O
  O22      1.0000 0.28090  0.76969  0.83960  Biso   1.000  O
  O23      1.0000 0.21910  0.26969  0.66040  Biso   1.000  O
  O24      1.0000 0.71910  0.76969  0.66040  Biso   1.000  O
  O25      1.0000 0.21910  0.73031  0.16040  Biso   1.000  O
  O26      1.0000 0.71910  0.23031  0.16040  Biso   1.000  O
  O27      1.0000 0.78090  0.73031  0.33960  Biso   1.000  O
  O28      1.0000 0.28090  0.23031  0.33960  Biso   1.000  O
  O29      1.0000 0.61120  0.21092  0.92410  Biso   1.000  O
  O30      1.0000 0.11120  0.71092  0.92410  Biso   1.000  O
  O31      1.0000 0.38880  0.21092  0.57590  Biso   1.000  O
  O32      1.0000 0.88880  0.71092  0.57590  Biso   1.000  O
  O33      1.0000 0.38880  0.78908  0.07590  Biso   1.000  O
  O34      1.0000 0.88880  0.28908  0.07590  Biso   1.000  O
  O35      1.0000 0.61120  0.78908  0.42410  Biso   1.000  O
  O36      1.0000 0.11120  0.28908  0.42410  Biso   1.000  O
  O37      1.0000 0.68710  0.33490  0.96810  Biso   1.000  O
  O38      1.0000 0.18710  0.83490  0.96810  Biso   1.000  O
  O39      1.0000 0.31290  0.33490  0.53190  Biso   1.000  O
  O40      1.0000 0.81290  0.83490  0.53190  Biso   1.000  O
  O41      1.0000 0.31290  0.66510  0.03190  Biso   1.000  O
  O42      1.0000 0.81290  0.16510  0.03190  Biso   1.000  O
  O43      1.0000 0.68710  0.66510  0.46810  Biso   1.000  O
  O44      1.0000 0.18710  0.16510  0.46810  Biso   1.000  O
  N1       1.0000 0.75520  0.02410  0.98610  Biso   1.000  N
  N2       1.0000 0.25520  0.52410  0.98610  Biso   1.000  N
  N3       1.0000 0.24480  0.02410  0.51390  Biso   1.000  N
  N4       1.0000 0.74480  0.52410  0.51390  Biso   1.000  N
  N5       1.0000 0.24480  0.97590  0.01390  Biso   1.000  N
  N6       1.0000 0.74480  0.47590  0.01390  Biso   1.000  N
  N7       1.0000 0.75520  0.97590  0.48610  Biso   1.000  N
  N8       1.0000 0.25520  0.47590  0.48610  Biso   1.000  N
  N9       1.0000 0.55960  0.06600  0.90100  Biso   1.000  N
  N10      1.0000 0.05960  0.56600  0.90100  Biso   1.000  N
  N11      1.0000 0.44040  0.06600  0.59900  Biso   1.000  N
  N12      1.0000 0.94040  0.56600  0.59900  Biso   1.000  N
  N13      1.0000 0.44040  0.93400  0.09900  Biso   1.000  N
  N14      1.0000 0.94040  0.43400  0.09900  Biso   1.000  N
  N15      1.0000 0.55960  0.93400  0.40100  Biso   1.000  N
  N16      1.0000 0.05960  0.43400  0.40100  Biso   1.000  N
  C1       1.0000 0.85280  0.00500  0.03360  Biso   1.000  C
  C2       1.0000 0.35280  0.50500  0.03360  Biso   1.000  C
  C3       1.0000 0.14720  0.00500  0.46640  Biso   1.000  C
  C4       1.0000 0.64720  0.50500  0.46640  Biso   1.000  C
  C5       1.0000 0.14720  0.99500  0.96640  Biso   1.000  C
  C6       1.0000 0.64720  0.49500  0.96640  Biso   1.000  C
  C7       1.0000 0.85280  0.99500  0.53360  Biso   1.000  C
  C8       1.0000 0.35280  0.49500  0.53360  Biso   1.000  C
  H1       1.0000 0.89880  0.04030  0.06120  Biso   1.000  H
  H2       1.0000 0.39880  0.54030  0.06120  Biso   1.000  H
  H3       1.0000 0.10120  0.04030  0.43880  Biso   1.000  H
  H4       1.0000 0.60120  0.54030  0.43880  Biso   1.000  H
  H5       1.0000 0.10120  0.95970  0.93880  Biso   1.000  H
  H6       1.0000 0.60120  0.45970  0.93880  Biso   1.000  H
  H7       1.0000 0.89880  0.95970  0.56120  Biso   1.000  H
  H8       1.0000 0.39880  0.45970  0.56120  Biso   1.000  H
  C9       1.0000 0.88730  0.93340  0.04300  Biso   1.000  C
  C10      1.0000 0.38730  0.43340  0.04300  Biso   1.000  C
  C11      1.0000 0.11270  0.93340  0.45700  Biso   1.000  C
  C12      1.0000 0.61270  0.43340  0.45700  Biso   1.000  C
  C13      1.0000 0.11270  0.06660  0.95700  Biso   1.000  C
  C14      1.0000 0.61270  0.56660  0.95700  Biso   1.000  C
  C15      1.0000 0.88730  0.06660  0.54300  Biso   1.000  C
  C16      1.0000 0.38730  0.56660  0.54300  Biso   1.000  C
  H9       1.0000 0.95610  0.92170  0.07560  Biso   1.000  H
  H10      1.0000 0.45610  0.42170  0.07560  Biso   1.000  H
  H11      1.0000 0.04390  0.92170  0.42440  Biso   1.000  H
  H12      1.0000 0.54390  0.42170  0.42440  Biso   1.000  H
  H13      1.0000 0.04390  0.07830  0.92440  Biso   1.000  H
  H14      1.0000 0.54390  0.57830  0.92440  Biso   1.000  H
  H15      1.0000 0.95610  0.07830  0.57560  Biso   1.000  H
  H16      1.0000 0.45610  0.57830  0.57560  Biso   1.000  H
  C17      1.0000 0.82030  0.88110  0.00440  Biso   1.000  C
  C18      1.0000 0.32030  0.38110  0.00440  Biso   1.000  C
  C19      1.0000 0.17970  0.88110  0.49560  Biso   1.000  C
  C20      1.0000 0.67970  0.38110  0.49560  Biso   1.000  C
  C21      1.0000 0.17970  0.11890  0.99560  Biso   1.000  C
  C22      1.0000 0.67970  0.61890  0.99560  Biso   1.000  C
  C23      1.0000 0.82030  0.11890  0.50440  Biso   1.000  C
  C24      1.0000 0.32030  0.61890  0.50440  Biso   1.000  C
  H17      1.0000 0.84420  0.83350  0.00990  Biso   1.000  H
  H18      1.0000 0.34420  0.33350  0.00990  Biso   1.000  H
  H19      1.0000 0.15580  0.83350  0.49010  Biso   1.000  H
  H20      1.0000 0.65580  0.33350  0.49010  Biso   1.000  H
  H21      1.0000 0.15580  0.16650  0.99010  Biso   1.000  H
  H22      1.0000 0.65580  0.66650  0.99010  Biso   1.000  H
  H23      1.0000 0.84420  0.16650  0.50990  Biso   1.000  H
  H24      1.0000 0.34420  0.66650  0.50990  Biso   1.000  H
  C25      1.0000 0.71520  0.89820  0.95630  Biso   1.000  C
  C26      1.0000 0.21520  0.39820  0.95630  Biso   1.000  C
  C27      1.0000 0.28480  0.89820  0.54370  Biso   1.000  C
  C28      1.0000 0.78480  0.39820  0.54370  Biso   1.000  C
  C29      1.0000 0.28480  0.10180  0.04370  Biso   1.000  C
  C30      1.0000 0.78480  0.60180  0.04370  Biso   1.000  C
  C31      1.0000 0.71520  0.10180  0.45630  Biso   1.000  C
  C32      1.0000 0.21520  0.60180  0.45630  Biso   1.000  C
  C33      1.0000 0.63350  0.84790  0.91650  Biso   1.000  C
  C34      1.0000 0.13350  0.34790  0.91650  Biso   1.000  C
  C35      1.0000 0.36650  0.84790  0.58350  Biso   1.000  C
  C36      1.0000 0.86650  0.34790  0.58350  Biso   1.000  C
  C37      1.0000 0.36650  0.15210  0.08350  Biso   1.000  C
  C38      1.0000 0.86650  0.65210  0.08350  Biso   1.000  C
  C39      1.0000 0.63350  0.15210  0.41650  Biso   1.000  C
  C40      1.0000 0.13350  0.65210  0.41650  Biso   1.000  C
  H25      1.0000 0.65250  0.79940  0.91790  Biso   1.000  H
  H26      1.0000 0.15250  0.29940  0.91790  Biso   1.000  H
  H27      1.0000 0.34750  0.79940  0.58210  Biso   1.000  H
  H28      1.0000 0.84750  0.29940  0.58210  Biso   1.000  H
  H29      1.0000 0.34750  0.20060  0.08210  Biso   1.000  H
  H30      1.0000 0.84750  0.70060  0.08210  Biso   1.000  H
  H31      1.0000 0.65250  0.20060  0.41790  Biso   1.000  H
  H32      1.0000 0.15250  0.70060  0.41790  Biso   1.000  H
  C41      1.0000 0.53070  0.86900  0.87750  Biso   1.000  C
  C42      1.0000 0.03070  0.36900  0.87750  Biso   1.000  C
  C43      1.0000 0.46930  0.86900  0.62250  Biso   1.000  C
  C44      1.0000 0.96930  0.36900  0.62250  Biso   1.000  C
  C45      1.0000 0.46930  0.13100  0.12250  Biso   1.000  C
  C46      1.0000 0.96930  0.63100  0.12250  Biso   1.000  C
  C47      1.0000 0.53070  0.13100  0.37750  Biso   1.000  C
  C48      1.0000 0.03070  0.63100  0.37750  Biso   1.000  C
  H33      1.0000 0.47810  0.83460  0.85470  Biso   1.000  H
  H34      1.0000 0.97810  0.33460  0.85470  Biso   1.000  H
  H35      1.0000 0.52190  0.83460  0.64530  Biso   1.000  H
  H36      1.0000 0.02190  0.33460  0.64530  Biso   1.000  H
  H37      1.0000 0.52190  0.16540  0.14530  Biso   1.000  H
  H38      1.0000 0.02190  0.66540  0.14530  Biso   1.000  H
  H39      1.0000 0.47810  0.16540  0.35470  Biso   1.000  H
  H40      1.0000 0.97810  0.66540  0.35470  Biso   1.000  H
  C49      1.0000 0.49980  0.94290  0.86980  Biso   1.000  C
  C50      1.0000 0.99980  0.44290  0.86980  Biso   1.000  C
  C51      1.0000 0.50020  0.94290  0.63020  Biso   1.000  C
  C52      1.0000 0.00020  0.44290  0.63020  Biso   1.000  C
  C53      1.0000 0.50020  0.05710  0.13020  Biso   1.000  C
  C54      1.0000 0.00020  0.55710  0.13020  Biso   1.000  C
  C55      1.0000 0.49980  0.05710  0.36980  Biso   1.000  C
  C56      1.0000 0.99980  0.55710  0.36980  Biso   1.000  C
  C57      1.0000 0.39370  0.96920  0.82820  Biso   1.000  C
  C58      1.0000 0.89370  0.46920  0.82820  Biso   1.000  C
  C59      1.0000 0.60630  0.96920  0.67180  Biso   1.000  C
  C60      1.0000 0.10630  0.46920  0.67180  Biso   1.000  C
  C61      1.0000 0.60630  0.03080  0.17180  Biso   1.000  C
  C62      1.0000 0.10630  0.53080  0.17180  Biso   1.000  C
  C63      1.0000 0.39370  0.03080  0.32820  Biso   1.000  C
  C64      1.0000 0.89370  0.53080  0.32820  Biso   1.000  C
  H41      1.0000 0.33710  0.93770  0.80420  Biso   1.000  H
  H42      1.0000 0.83710  0.43770  0.80420  Biso   1.000  H
  H43      1.0000 0.66290  0.93770  0.69580  Biso   1.000  H
  H44      1.0000 0.16290  0.43770  0.69580  Biso   1.000  H
  H45      1.0000 0.66290  0.06230  0.19580  Biso   1.000  H
  H46      1.0000 0.16290  0.56230  0.19580  Biso   1.000  H
  H47      1.0000 0.33710  0.06230  0.30420  Biso   1.000  H
  H48      1.0000 0.83710  0.56230  0.30420  Biso   1.000  H
  C65      1.0000 0.37520  0.04250  0.82370  Biso   1.000  C
  C66      1.0000 0.87520  0.54250  0.82370  Biso   1.000  C
  C67      1.0000 0.62480  0.04250  0.67630  Biso   1.000  C
  C68      1.0000 0.12480  0.54250  0.67630  Biso   1.000  C
  C69      1.0000 0.62480  0.95750  0.17630  Biso   1.000  C
  C70      1.0000 0.12480  0.45750  0.17630  Biso   1.000  C
  C71      1.0000 0.37520  0.95750  0.32370  Biso   1.000  C
  C72      1.0000 0.87520  0.45750  0.32370  Biso   1.000  C
  H49      1.0000 0.30640  0.06060  0.79580  Biso   1.000  H
  H50      1.0000 0.80640  0.56060  0.79580  Biso   1.000  H
  H51      1.0000 0.69360  0.06060  0.70420  Biso   1.000  H
  H52      1.0000 0.19360  0.56060  0.70420  Biso   1.000  H
  H53      1.0000 0.69360  0.93940  0.20420  Biso   1.000  H
  H54      1.0000 0.19360  0.43940  0.20420  Biso   1.000  H
  H55      1.0000 0.30640  0.93940  0.29580  Biso   1.000  H
  H56      1.0000 0.80640  0.43940  0.29580  Biso   1.000  H
  C73      1.0000 0.45990  0.08880  0.86090  Biso   1.000  C
  C74      1.0000 0.95990  0.58880  0.86090  Biso   1.000  C
  C75      1.0000 0.54010  0.08880  0.63910  Biso   1.000  C
  C76      1.0000 0.04010  0.58880  0.63910  Biso   1.000  C
  C77      1.0000 0.54010  0.91120  0.13910  Biso   1.000  C
  C78      1.0000 0.04010  0.41120  0.13910  Biso   1.000  C
  C79      1.0000 0.45990  0.91120  0.36090  Biso   1.000  C
  C80      1.0000 0.95990  0.41120  0.36090  Biso   1.000  C
  H57      1.0000 0.44600  0.13790  0.85750  Biso   1.000  H
  H58      1.0000 0.94600  0.63790  0.85750  Biso   1.000  H
  H59      1.0000 0.55400  0.13790  0.64250  Biso   1.000  H
  H60      1.0000 0.05400  0.63790  0.64250  Biso   1.000  H
  H61      1.0000 0.55400  0.86210  0.14250  Biso   1.000  H
  H62      1.0000 0.05400  0.36210  0.14250  Biso   1.000  H
  H63      1.0000 0.44600  0.86210  0.35750  Biso   1.000  H
  H64      1.0000 0.94600  0.36210  0.35750  Biso   1.000  H
  C81      1.0000 0.57910  0.99380  0.90490  Biso   1.000  C
  C82      1.0000 0.07910  0.49380  0.90490  Biso   1.000  C
  C83      1.0000 0.42090  0.99380  0.59510  Biso   1.000  C
  C84      1.0000 0.92090  0.49380  0.59510  Biso   1.000  C
  C85      1.0000 0.42090  0.00620  0.09510  Biso   1.000  C
  C86      1.0000 0.92090  0.50620  0.09510  Biso   1.000  C
  C87      1.0000 0.57910  0.00620  0.40490  Biso   1.000  C
  C88      1.0000 0.07910  0.50620  0.40490  Biso   1.000  C
  C89      1.0000 0.68680  0.97170  0.94990  Biso   1.000  C
  C90      1.0000 0.18680  0.47170  0.94990  Biso   1.000  C
  C91      1.0000 0.31320  0.97170  0.55010  Biso   1.000  C
  C92      1.0000 0.81320  0.47170  0.55010  Biso   1.000  C
  C93      1.0000 0.31320  0.02830  0.05010  Biso   1.000  C
  C94      1.0000 0.81320  0.52830  0.05010  Biso   1.000  C
  C95      1.0000 0.68680  0.02830  0.44990  Biso   1.000  C
  C96      1.0000 0.18680  0.52830  0.44990  Biso   1.000  C
  C97      1.0000 0.55800  0.32490  0.82250  Biso   1.000  C
  C98      1.0000 0.05800  0.82490  0.82250  Biso   1.000  C
  C99      1.0000 0.44200  0.32490  0.67750  Biso   1.000  C
  C100     1.0000 0.94200  0.82490  0.67750  Biso   1.000  C
  C101     1.0000 0.44200  0.67510  0.17750  Biso   1.000  C
  C102     1.0000 0.94200  0.17510  0.17750  Biso   1.000  C
  C103     1.0000 0.55800  0.67510  0.32250  Biso   1.000  C
  C104     1.0000 0.05800  0.17510  0.32250  Biso   1.000  C
  H65      1.0000 0.49340  0.34490  0.85850  Biso   1.000  H
  H66      1.0000 0.99340  0.84490  0.85850  Biso   1.000  H
  H67      1.0000 0.50660  0.34490  0.64150  Biso   1.000  H
  H68      1.0000 0.00660  0.84490  0.64150  Biso   1.000  H
  H69      1.0000 0.50660  0.65510  0.14150  Biso   1.000  H
  H70      1.0000 0.00660  0.15510  0.14150  Biso   1.000  H
  H71      1.0000 0.49340  0.65510  0.35850  Biso   1.000  H
  H72      1.0000 0.99340  0.15510  0.35850  Biso   1.000  H
  H73      1.0000 0.59900  0.36460  0.79390  Biso   1.000  H
  H74      1.0000 0.09900  0.86460  0.79390  Biso   1.000  H
  H75      1.0000 0.40100  0.36460  0.70610  Biso   1.000  H
  H76      1.0000 0.90100  0.86460  0.70610  Biso   1.000  H
  H77      1.0000 0.40100  0.63540  0.20610  Biso   1.000  H
  H78      1.0000 0.90100  0.13540  0.20610  Biso   1.000  H
  H79      1.0000 0.59900  0.63540  0.29390  Biso   1.000  H
  H80      1.0000 0.09900  0.13540  0.29390  Biso   1.000  H
  C105     1.0000 0.50000  0.27850  0.75000  Biso   1.000  C
  C106     1.0000 0.00000  0.77850  0.75000  Biso   1.000  C
  C107     1.0000 0.50000  0.72150  0.25000  Biso   1.000  C
  C108     1.0000 0.00000  0.22150  0.25000  Biso   1.000  C
  H81      1.0000 0.56140  0.24800  0.72370  Biso   1.000  H
  H82      1.0000 0.06140  0.74800  0.72370  Biso   1.000  H
  H83      1.0000 0.43860  0.24800  0.77630  Biso   1.000  H
  H84      1.0000 0.93860  0.74800  0.77630  Biso   1.000  H
  H85      1.0000 0.43860  0.75200  0.27630  Biso   1.000  H
  H86      1.0000 0.93860  0.25200  0.27630  Biso   1.000  H
  H87      1.0000 0.56140  0.75200  0.22370  Biso   1.000  H
  H88      1.0000 0.06140  0.25200  0.22370  Biso   1.000  H
  C109     1.0000 0.61130  0.48290  0.70610  Biso   1.000  C
  C110     1.0000 0.11130  0.98290  0.70610  Biso   1.000  C
  C111     1.0000 0.38870  0.48290  0.79390  Biso   1.000  C
  C112     1.0000 0.88870  0.98290  0.79390  Biso   1.000  C
  C113     1.0000 0.38870  0.51710  0.29390  Biso   1.000  C
  C114     1.0000 0.88870  0.01710  0.29390  Biso   1.000  C
  C115     1.0000 0.61130  0.51710  0.20610  Biso   1.000  C
  C116     1.0000 0.11130  0.01710  0.20610  Biso   1.000  C
  H89      1.0000 0.65630  0.45290  0.74610  Biso   1.000  H
  H90      1.0000 0.15630  0.95290  0.74610  Biso   1.000  H
  H91      1.0000 0.34370  0.45290  0.75390  Biso   1.000  H
  H92      1.0000 0.84370  0.95290  0.75390  Biso   1.000  H
  H93      1.0000 0.34370  0.54710  0.25390  Biso   1.000  H
  H94      1.0000 0.84370  0.04710  0.25390  Biso   1.000  H
  H95      1.0000 0.65630  0.54710  0.24610  Biso   1.000  H
  H96      1.0000 0.15630  0.04710  0.24610  Biso   1.000  H
  H97      1.0000 0.65990  0.52350  0.68980  Biso   1.000  H
  H98      1.0000 0.15990  0.02350  0.68980  Biso   1.000  H
  H99      1.0000 0.34010  0.52350  0.81020  Biso   1.000  H
  H100     1.0000 0.84010  0.02350  0.81020  Biso   1.000  H
  H101     1.0000 0.34010  0.47650  0.31020  Biso   1.000  H
  H102     1.0000 0.84010  0.97650  0.31020  Biso   1.000  H
  H103     1.0000 0.65990  0.47650  0.18980  Biso   1.000  H
  H104     1.0000 0.15990  0.97650  0.18980  Biso   1.000  H
  H105     1.0000 0.59050  0.45610  0.65390  Biso   1.000  H
  H106     1.0000 0.09050  0.95610  0.65390  Biso   1.000  H
  H107     1.0000 0.40950  0.45610  0.84610  Biso   1.000  H
  H108     1.0000 0.90950  0.95610  0.84610  Biso   1.000  H
  H109     1.0000 0.40950  0.54390  0.34610  Biso   1.000  H
  H110     1.0000 0.90950  0.04390  0.34610  Biso   1.000  H
  H111     1.0000 0.59050  0.54390  0.15390  Biso   1.000  H
  H112     1.0000 0.09050  0.04390  0.15390  Biso   1.000  H
  C117     1.0000 0.50000  0.50770  0.75000  Biso   1.000  C
  C118     1.0000 0.00000  0.00770  0.75000  Biso   1.000  C
  C119     1.0000 0.50000  0.49230  0.25000  Biso   1.000  C
  C120     1.0000 0.00000  0.99230  0.25000  Biso   1.000  C
  H113     1.0000 0.53300  0.53950  0.79490  Biso   1.000  H
  H114     1.0000 0.03300  0.03950  0.79490  Biso   1.000  H
  H115     1.0000 0.46700  0.53950  0.70510  Biso   1.000  H
  H116     1.0000 0.96700  0.03950  0.70510  Biso   1.000  H
  H117     1.0000 0.46700  0.46050  0.20510  Biso   1.000  H
  H118     1.0000 0.96700  0.96050  0.20510  Biso   1.000  H
  H119     1.0000 0.53300  0.46050  0.29490  Biso   1.000  H
  H120     1.0000 0.03300  0.96050  0.29490  Biso   1.000  H
