data_image0
_cell_length_a       11.788
_cell_length_b       17.887
_cell_length_c       14.158
_cell_angle_alpha    90
_cell_angle_beta     93.988
_cell_angle_gamma    90

_symmetry_space_group_name_H-M    "P 1"
_symmetry_int_tables_number       1

loop_
  _symmetry_equiv_pos_as_xyz
  'x, y, z'

loop_
  _atom_site_label
  _atom_site_occupancy
  _atom_site_fract_x
  _atom_site_fract_y
  _atom_site_fract_z
  _atom_site_thermal_displace_type
  _atom_site_B_iso_or_equiv
  _atom_site_type_symbol
  Cu1      1.0000 0.70017  0.52138  0.78378  Biso   1.000  Cu
  Cu2      1.0000 0.79983  0.02138  0.71622  Biso   1.000  Cu
  Cu3      1.0000 0.29983  0.47862  0.21622  Biso   1.000  Cu
  Cu4      1.0000 0.20017  0.97862  0.28378  Biso   1.000  Cu
  Cu5      1.0000 0.38193  0.54220  0.51920  Biso   1.000  Cu
  Cu6      1.0000 0.11807  0.04220  0.98080  Biso   1.000  Cu
  Cu7      1.0000 0.61807  0.45780  0.48080  Biso   1.000  Cu
  Cu8      1.0000 0.88193  0.95780  0.01920  Biso   1.000  Cu
  V1       1.0000 0.38272  0.33606  0.82621  Biso   1.000  V
  V2       1.0000 0.11728  0.83606  0.67379  Biso   1.000  V
  V3       1.0000 0.61728  0.66394  0.17379  Biso   1.000  V
  V4       1.0000 0.88272  0.16394  0.32621  Biso   1.000  V
  V5       1.0000 0.29035  0.70981  0.76132  Biso   1.000  V
  V6       1.0000 0.20965  0.20981  0.73868  Biso   1.000  V
  V7       1.0000 0.70965  0.29019  0.23868  Biso   1.000  V
  V8       1.0000 0.79035  0.79019  0.26132  Biso   1.000  V
  P1       1.0000 0.48389  0.45024  0.68795  Biso   1.000  P
  P2       1.0000 0.01611  0.95024  0.81205  Biso   1.000  P
  P3       1.0000 0.51611  0.54976  0.31205  Biso   1.000  P
  P4       1.0000 0.98389  0.04976  0.18795  Biso   1.000  P
  P5       1.0000 0.48971  0.61281  0.70016  Biso   1.000  P
  P6       1.0000 0.01029  0.11281  0.79984  Biso   1.000  P
  P7       1.0000 0.51029  0.38719  0.29984  Biso   1.000  P
  P8       1.0000 0.98971  0.88719  0.20016  Biso   1.000  P
  O1       1.0000 0.60500  0.44305  0.72716  Biso   1.000  O
  O2       1.0000 0.89500  0.94305  0.77284  Biso   1.000  O
  O3       1.0000 0.39500  0.55695  0.27284  Biso   1.000  O
  O4       1.0000 0.10500  0.05695  0.22716  Biso   1.000  O
  O5       1.0000 0.41420  0.38109  0.71160  Biso   1.000  O
  O6       1.0000 0.08580  0.88109  0.78840  Biso   1.000  O
  O7       1.0000 0.58580  0.61891  0.28840  Biso   1.000  O
  O8       1.0000 0.91420  0.11891  0.21160  Biso   1.000  O
  O9       1.0000 0.47540  0.46180  0.58144  Biso   1.000  O
  O10      1.0000 0.02460  0.96180  0.91856  Biso   1.000  O
  O11      1.0000 0.52460  0.53820  0.41856  Biso   1.000  O
  O12      1.0000 0.97540  0.03820  0.08144  Biso   1.000  O
  O13      1.0000 0.46230  0.61921  0.59459  Biso   1.000  O
  O14      1.0000 0.03770  0.11921  0.90541  Biso   1.000  O
  O15      1.0000 0.53770  0.38079  0.40541  Biso   1.000  O
  O16      1.0000 0.96230  0.88079  0.09459  Biso   1.000  O
  O17      1.0000 0.44110  0.68147  0.74989  Biso   1.000  O
  O18      1.0000 0.05890  0.18147  0.75011  Biso   1.000  O
  O19      1.0000 0.55890  0.31853  0.25011  Biso   1.000  O
  O20      1.0000 0.94110  0.81853  0.24989  Biso   1.000  O
  O21      1.0000 0.61459  0.60613  0.72900  Biso   1.000  O
  O22      1.0000 0.88541  0.10613  0.77100  Biso   1.000  O
  O23      1.0000 0.38541  0.39387  0.27100  Biso   1.000  O
  O24      1.0000 0.11459  0.89387  0.22900  Biso   1.000  O
  O25      1.0000 0.37710  0.39872  0.90770  Biso   1.000  O
  O26      1.0000 0.12290  0.89872  0.59230  Biso   1.000  O
  O27      1.0000 0.62290  0.60128  0.09230  Biso   1.000  O
  O28      1.0000 0.87710  0.10128  0.40770  Biso   1.000  O
  O29      1.0000 0.48530  0.28011  0.85660  Biso   1.000  O
  O30      1.0000 0.01470  0.78011  0.64340  Biso   1.000  O
  O31      1.0000 0.51470  0.71989  0.14340  Biso   1.000  O
  O32      1.0000 0.98530  0.21989  0.35660  Biso   1.000  O
  O33      1.0000 0.24800  0.28963  0.81125  Biso   1.000  O
  O34      1.0000 0.25200  0.78963  0.68875  Biso   1.000  O
  O35      1.0000 0.75200  0.71037  0.18875  Biso   1.000  O
  O36      1.0000 0.74800  0.21037  0.31125  Biso   1.000  O
  O37      1.0000 0.20920  0.64022  0.73180  Biso   1.000  O
  O38      1.0000 0.29080  0.14022  0.76820  Biso   1.000  O
  O39      1.0000 0.79080  0.35978  0.26820  Biso   1.000  O
  O40      1.0000 0.70920  0.85978  0.23180  Biso   1.000  O
  O41      1.0000 0.27890  0.72947  0.87203  Biso   1.000  O
  O42      1.0000 0.22110  0.22947  0.62797  Biso   1.000  O
  O43      1.0000 0.72110  0.27053  0.12797  Biso   1.000  O
  O44      1.0000 0.77890  0.77053  0.37203  Biso   1.000  O
  O45      1.0000 0.62380  0.51450  0.92460  Biso   1.000  O
  O46      1.0000 0.87620  0.01450  0.57540  Biso   1.000  O
  O47      1.0000 0.37620  0.48550  0.07540  Biso   1.000  O
  O48      1.0000 0.12380  0.98550  0.42460  Biso   1.000  O
  O49      1.0000 0.39240  0.63080  0.99070  Biso   1.000  O
  O50      1.0000 0.10760  0.13080  0.50930  Biso   1.000  O
  O51      1.0000 0.60760  0.36920  0.00930  Biso   1.000  O
  O52      1.0000 0.89240  0.86920  0.49070  Biso   1.000  O
  O53      1.0000 0.36150  0.63180  0.02080  Biso   1.000  O
  O54      1.0000 0.13850  0.13180  0.47920  Biso   1.000  O
  O55      1.0000 0.63850  0.36820  0.97920  Biso   1.000  O
  O56      1.0000 0.86150  0.86820  0.52080  Biso   1.000  O
  N1       1.0000 0.83030  0.58847  0.82180  Biso   1.000  N
  N2       1.0000 0.66970  0.08847  0.67820  Biso   1.000  N
  N3       1.0000 0.16970  0.41153  0.17820  Biso   1.000  N
  N4       1.0000 0.33030  0.91153  0.32180  Biso   1.000  N
  N5       1.0000 0.81560  0.44166  0.82010  Biso   1.000  N
  N6       1.0000 0.68440  0.94166  0.67990  Biso   1.000  N
  N7       1.0000 0.18440  0.55834  0.17990  Biso   1.000  N
  N8       1.0000 0.31560  0.05834  0.32010  Biso   1.000  N
  N9       1.0000 0.25990  0.61460  0.47470  Biso   1.000  N
  N10      1.0000 0.24010  0.11460  0.02530  Biso   1.000  N
  N11      1.0000 0.74010  0.38540  0.52530  Biso   1.000  N
  N12      1.0000 0.75990  0.88540  0.97470  Biso   1.000  N
  N13      1.0000 0.26470  0.46813  0.46800  Biso   1.000  N
  N14      1.0000 0.23530  0.96813  0.03200  Biso   1.000  N
  N15      1.0000 0.73530  0.53187  0.53200  Biso   1.000  N
  N16      1.0000 0.76470  0.03187  0.96800  Biso   1.000  N
  C1       1.0000 0.83490  0.66230  0.81920  Biso   1.000  C
  C2       1.0000 0.66510  0.16230  0.68080  Biso   1.000  C
  C3       1.0000 0.16510  0.33770  0.18080  Biso   1.000  C
  C4       1.0000 0.33490  0.83770  0.31920  Biso   1.000  C
  H1       1.0000 0.77030  0.68870  0.79740  Biso   1.000  H
  H2       1.0000 0.72970  0.18870  0.70260  Biso   1.000  H
  H3       1.0000 0.22970  0.31130  0.20260  Biso   1.000  H
  H4       1.0000 0.27030  0.81130  0.29740  Biso   1.000  H
  C5       1.0000 0.93240  0.70160  0.84790  Biso   1.000  C
  C6       1.0000 0.56760  0.20160  0.65210  Biso   1.000  C
  C7       1.0000 0.06760  0.29840  0.15210  Biso   1.000  C
  C8       1.0000 0.43240  0.79840  0.34790  Biso   1.000  C
  H5       1.0000 0.93280  0.75360  0.84600  Biso   1.000  H
  H6       1.0000 0.56720  0.25360  0.65400  Biso   1.000  H
  H7       1.0000 0.06720  0.24640  0.15400  Biso   1.000  H
  H8       1.0000 0.43280  0.74640  0.34600  Biso   1.000  H
  C9       1.0000 0.02800  0.66320  0.87910  Biso   1.000  C
  C10      1.0000 0.47200  0.16320  0.62090  Biso   1.000  C
  C11      1.0000 0.97200  0.33680  0.12090  Biso   1.000  C
  C12      1.0000 0.52800  0.83680  0.37910  Biso   1.000  C
  H9       1.0000 0.09380  0.68910  0.89890  Biso   1.000  H
  H10      1.0000 0.40620  0.18910  0.60110  Biso   1.000  H
  H11      1.0000 0.90620  0.31090  0.10110  Biso   1.000  H
  H12      1.0000 0.59380  0.81090  0.39890  Biso   1.000  H
  C13      1.0000 0.02690  0.58560  0.88130  Biso   1.000  C
  C14      1.0000 0.47310  0.08560  0.61870  Biso   1.000  C
  C15      1.0000 0.97310  0.41440  0.11870  Biso   1.000  C
  C16      1.0000 0.52690  0.91440  0.38130  Biso   1.000  C
  C17      1.0000 0.12270  0.53860  0.91030  Biso   1.000  C
  C18      1.0000 0.37730  0.03860  0.58970  Biso   1.000  C
  C19      1.0000 0.87730  0.46140  0.08970  Biso   1.000  C
  C20      1.0000 0.62270  0.96140  0.41030  Biso   1.000  C
  H13      1.0000 0.19160  0.56090  0.93030  Biso   1.000  H
  H14      1.0000 0.30840  0.06090  0.56970  Biso   1.000  H
  H15      1.0000 0.80840  0.43910  0.06970  Biso   1.000  H
  H16      1.0000 0.69160  0.93910  0.43030  Biso   1.000  H
  C21      1.0000 0.11520  0.46430  0.90930  Biso   1.000  C
  C22      1.0000 0.38480  0.96430  0.59070  Biso   1.000  C
  C23      1.0000 0.88480  0.53570  0.09070  Biso   1.000  C
  C24      1.0000 0.61520  0.03570  0.40930  Biso   1.000  C
  H17      1.0000 0.17880  0.43600  0.92850  Biso   1.000  H
  H18      1.0000 0.32120  0.93600  0.57150  Biso   1.000  H
  H19      1.0000 0.82120  0.56400  0.07150  Biso   1.000  H
  H20      1.0000 0.67880  0.06400  0.42850  Biso   1.000  H
  C25      1.0000 0.01210  0.42720  0.87950  Biso   1.000  C
  C26      1.0000 0.48790  0.92720  0.62050  Biso   1.000  C
  C27      1.0000 0.98790  0.57280  0.12050  Biso   1.000  C
  C28      1.0000 0.51210  0.07280  0.37950  Biso   1.000  C
  C29      1.0000 0.99680  0.35040  0.87490  Biso   1.000  C
  C30      1.0000 0.50320  0.85040  0.62510  Biso   1.000  C
  C31      1.0000 0.00320  0.64960  0.12510  Biso   1.000  C
  C32      1.0000 0.49680  0.14960  0.37490  Biso   1.000  C
  H21      1.0000 0.05740  0.31870  0.89190  Biso   1.000  H
  H22      1.0000 0.44260  0.81870  0.60810  Biso   1.000  H
  H23      1.0000 0.94260  0.68130  0.10810  Biso   1.000  H
  H24      1.0000 0.55740  0.18130  0.39190  Biso   1.000  H
  C33      1.0000 0.89390  0.32120  0.84580  Biso   1.000  C
  C34      1.0000 0.60610  0.82120  0.65420  Biso   1.000  C
  C35      1.0000 0.10610  0.67880  0.15420  Biso   1.000  C
  C36      1.0000 0.39390  0.17880  0.34580  Biso   1.000  C
  H25      1.0000 0.88350  0.26960  0.84400  Biso   1.000  H
  H26      1.0000 0.61650  0.76960  0.65600  Biso   1.000  H
  H27      1.0000 0.11650  0.73040  0.15600  Biso   1.000  H
  H28      1.0000 0.38350  0.23040  0.34400  Biso   1.000  H
  C37      1.0000 0.80420  0.36860  0.81870  Biso   1.000  C
  C38      1.0000 0.69580  0.86860  0.68130  Biso   1.000  C
  C39      1.0000 0.19580  0.63140  0.18130  Biso   1.000  C
  C40      1.0000 0.30420  0.13140  0.31870  Biso   1.000  C
  H29      1.0000 0.73410  0.34800  0.79900  Biso   1.000  H
  H30      1.0000 0.76590  0.84800  0.70100  Biso   1.000  H
  H31      1.0000 0.26590  0.65200  0.20100  Biso   1.000  H
  H32      1.0000 0.23410  0.15200  0.29900  Biso   1.000  H
  C41      1.0000 0.91750  0.47060  0.85140  Biso   1.000  C
  C42      1.0000 0.58250  0.97060  0.64860  Biso   1.000  C
  C43      1.0000 0.08250  0.52940  0.14860  Biso   1.000  C
  C44      1.0000 0.41750  0.02940  0.35140  Biso   1.000  C
  C45      1.0000 0.92530  0.55030  0.85200  Biso   1.000  C
  C46      1.0000 0.57470  0.05030  0.64800  Biso   1.000  C
  C47      1.0000 0.07470  0.44970  0.14800  Biso   1.000  C
  C48      1.0000 0.42530  0.94970  0.35200  Biso   1.000  C
  C49      1.0000 0.25880  0.68790  0.48360  Biso   1.000  C
  C50      1.0000 0.24120  0.18790  0.01640  Biso   1.000  C
  C51      1.0000 0.74120  0.31210  0.51640  Biso   1.000  C
  C52      1.0000 0.75880  0.81210  0.98360  Biso   1.000  C
  H33      1.0000 0.32290  0.71170  0.51130  Biso   1.000  H
  H34      1.0000 0.17710  0.21170  0.98870  Biso   1.000  H
  H35      1.0000 0.67710  0.28830  0.48870  Biso   1.000  H
  H36      1.0000 0.82290  0.78830  0.01130  Biso   1.000  H
  C53      1.0000 0.16530  0.73090  0.45300  Biso   1.000  C
  C54      1.0000 0.33470  0.23090  0.04700  Biso   1.000  C
  C55      1.0000 0.83470  0.26910  0.54700  Biso   1.000  C
  C56      1.0000 0.66530  0.76910  0.95300  Biso   1.000  C
  H37      1.0000 0.16760  0.78250  0.46030  Biso   1.000  H
  H38      1.0000 0.33240  0.28250  0.03970  Biso   1.000  H
  H39      1.0000 0.83240  0.21750  0.53970  Biso   1.000  H
  H40      1.0000 0.66760  0.71750  0.96030  Biso   1.000  H
  C57      1.0000 0.06980  0.69720  0.41220  Biso   1.000  C
  C58      1.0000 0.43020  0.19720  0.08780  Biso   1.000  C
  C59      1.0000 0.93020  0.30280  0.58780  Biso   1.000  C
  C60      1.0000 0.56980  0.80280  0.91220  Biso   1.000  C
  H41      1.0000 0.00730  0.72570  0.39090  Biso   1.000  H
  H42      1.0000 0.49270  0.22570  0.10910  Biso   1.000  H
  H43      1.0000 0.99270  0.27430  0.60910  Biso   1.000  H
  H44      1.0000 0.50730  0.77430  0.89090  Biso   1.000  H
  C61      1.0000 0.06730  0.61930  0.40280  Biso   1.000  C
  C62      1.0000 0.43270  0.11930  0.09720  Biso   1.000  C
  C63      1.0000 0.93270  0.38070  0.59720  Biso   1.000  C
  C64      1.0000 0.56730  0.88070  0.90280  Biso   1.000  C
  C65      1.0000 0.97200  0.57700  0.36430  Biso   1.000  C
  C66      1.0000 0.52800  0.07700  0.13570  Biso   1.000  C
  C67      1.0000 0.02800  0.42300  0.63570  Biso   1.000  C
  C68      1.0000 0.47200  0.92300  0.86430  Biso   1.000  C
  H45      1.0000 0.90670  0.60200  0.34120  Biso   1.000  H
  H46      1.0000 0.59330  0.10200  0.15880  Biso   1.000  H
  H47      1.0000 0.09330  0.39800  0.65880  Biso   1.000  H
  H48      1.0000 0.40670  0.89800  0.84120  Biso   1.000  H
  C69      1.0000 0.97440  0.50180  0.36070  Biso   1.000  C
  C70      1.0000 0.52560  0.00180  0.13930  Biso   1.000  C
  C71      1.0000 0.02560  0.49820  0.63930  Biso   1.000  C
  C72      1.0000 0.47440  0.99820  0.86070  Biso   1.000  C
  H49      1.0000 0.91090  0.47600  0.33530  Biso   1.000  H
  H50      1.0000 0.58910  0.97600  0.16470  Biso   1.000  H
  H51      1.0000 0.08910  0.52400  0.66470  Biso   1.000  H
  H52      1.0000 0.41090  0.02400  0.83530  Biso   1.000  H
  C73      1.0000 0.07300  0.46090  0.39530  Biso   1.000  C
  C74      1.0000 0.42700  0.96090  0.10470  Biso   1.000  C
  C75      1.0000 0.92700  0.53910  0.60470  Biso   1.000  C
  C76      1.0000 0.57300  0.03910  0.89530  Biso   1.000  C
  C77      1.0000 0.08060  0.38330  0.39750  Biso   1.000  C
  C78      1.0000 0.41940  0.88330  0.10250  Biso   1.000  C
  C79      1.0000 0.91940  0.61670  0.60250  Biso   1.000  C
  C80      1.0000 0.58060  0.11670  0.89750  Biso   1.000  C
  H53      1.0000 0.01980  0.35430  0.37360  Biso   1.000  H
  H54      1.0000 0.48020  0.85430  0.12640  Biso   1.000  H
  H55      1.0000 0.98020  0.64570  0.62640  Biso   1.000  H
  H56      1.0000 0.51980  0.14570  0.87360  Biso   1.000  H
  C81      1.0000 0.17770  0.35000  0.43500  Biso   1.000  C
  C82      1.0000 0.32230  0.85000  0.06500  Biso   1.000  C
  C83      1.0000 0.82230  0.65000  0.56500  Biso   1.000  C
  C84      1.0000 0.67770  0.15000  0.93500  Biso   1.000  C
  H57      1.0000 0.18290  0.29810  0.43740  Biso   1.000  H
  H58      1.0000 0.31710  0.79810  0.06260  Biso   1.000  H
  H59      1.0000 0.81710  0.70190  0.56260  Biso   1.000  H
  H60      1.0000 0.68290  0.20190  0.93740  Biso   1.000  H
  C85      1.0000 0.26920  0.39400  0.47000  Biso   1.000  C
  C86      1.0000 0.23080  0.89400  0.03000  Biso   1.000  C
  C87      1.0000 0.73080  0.60600  0.53000  Biso   1.000  C
  C88      1.0000 0.76920  0.10600  0.97000  Biso   1.000  C
  H61      1.0000 0.33490  0.37080  0.49540  Biso   1.000  H
  H62      1.0000 0.16510  0.87080  0.00460  Biso   1.000  H
  H63      1.0000 0.66510  0.62920  0.50460  Biso   1.000  H
  H64      1.0000 0.83490  0.12920  0.99540  Biso   1.000  H
  C89      1.0000 0.16790  0.50120  0.43160  Biso   1.000  C
  C90      1.0000 0.33210  0.00120  0.06840  Biso   1.000  C
  C91      1.0000 0.83210  0.49880  0.56840  Biso   1.000  C
  C92      1.0000 0.66790  0.99880  0.93160  Biso   1.000  C
  C93      1.0000 0.16490  0.58050  0.43500  Biso   1.000  C
  C94      1.0000 0.33510  0.08050  0.06500  Biso   1.000  C
  C95      1.0000 0.83510  0.41950  0.56500  Biso   1.000  C
  C96      1.0000 0.66490  0.91950  0.93500  Biso   1.000  C
  C97      1.0000 0.42100  0.53020  0.74080  Biso   1.000  C
  C98      1.0000 0.07900  0.03020  0.75920  Biso   1.000  C
  C99      1.0000 0.57900  0.46980  0.25920  Biso   1.000  C
  C100     1.0000 0.92100  0.96980  0.24080  Biso   1.000  C
  H65      1.0000 0.43100  0.52690  0.80930  Biso   1.000  H
  H66      1.0000 0.06900  0.02690  0.69070  Biso   1.000  H
  H67      1.0000 0.56900  0.47310  0.19070  Biso   1.000  H
  H68      1.0000 0.93100  0.97310  0.30930  Biso   1.000  H
  H69      1.0000 0.34020  0.53210  0.72260  Biso   1.000  H
  H70      1.0000 0.15980  0.03210  0.77740  Biso   1.000  H
  H71      1.0000 0.65980  0.46790  0.27740  Biso   1.000  H
  H72      1.0000 0.84020  0.96790  0.22260  Biso   1.000  H
  H73      1.0000 0.61100  0.54100  0.96400  Biso   1.000  H
  H74      1.0000 0.88900  0.04100  0.53600  Biso   1.000  H
  H75      1.0000 0.38900  0.45900  0.03600  Biso   1.000  H
  H76      1.0000 0.11100  0.95900  0.46400  Biso   1.000  H
  H77      1.0000 0.61800  0.47000  0.94400  Biso   1.000  H
  H78      1.0000 0.88200  0.97000  0.55600  Biso   1.000  H
  H79      1.0000 0.38200  0.53000  0.05600  Biso   1.000  H
  H80      1.0000 0.11800  0.03000  0.44400  Biso   1.000  H
