data_image0
_cell_length_a       7.9182
_cell_length_b       11.7533
_cell_length_c       22.7024
_cell_angle_alpha    90
_cell_angle_beta     107.436
_cell_angle_gamma    90

_symmetry_space_group_name_H-M    "P 1"
_symmetry_int_tables_number       1

loop_
  _symmetry_equiv_pos_as_xyz
  'x, y, z'

loop_
  _atom_site_label
  _atom_site_occupancy
  _atom_site_fract_x
  _atom_site_fract_y
  _atom_site_fract_z
  _atom_site_thermal_displace_type
  _atom_site_B_iso_or_equiv
  _atom_site_type_symbol
  Cu1      1.0000 0.49262  0.39861  0.62909  Biso   1.000  Cu
  Cu2      1.0000 0.50738  0.89861  0.87091  Biso   1.000  Cu
  Cu3      1.0000 0.50738  0.60139  0.37091  Biso   1.000  Cu
  Cu4      1.0000 0.49262  0.10139  0.12908  Biso   1.000  Cu
  Cu5      1.0000 0.30852  0.04604  0.98311  Biso   1.000  Cu
  Cu6      1.0000 0.69148  0.54604  0.51689  Biso   1.000  Cu
  Cu7      1.0000 0.69148  0.95396  0.01689  Biso   1.000  Cu
  Cu8      1.0000 0.30852  0.45396  0.48311  Biso   1.000  Cu
  N1       1.0000 0.35720  0.54570  0.60737  Biso   1.000  N
  N2       1.0000 0.64280  0.04570  0.89263  Biso   1.000  N
  N3       1.0000 0.64280  0.45430  0.39263  Biso   1.000  N
  N4       1.0000 0.35720  0.95430  0.10737  Biso   1.000  N
  N5       1.0000 0.28260  0.56670  0.54542  Biso   1.000  N
  N6       1.0000 0.71740  0.06670  0.95458  Biso   1.000  N
  N7       1.0000 0.71740  0.43330  0.45458  Biso   1.000  N
  N8       1.0000 0.28260  0.93330  0.04542  Biso   1.000  N
  N9       1.0000 0.24580  0.71670  0.59633  Biso   1.000  N
  N10      1.0000 0.75420  0.21670  0.90367  Biso   1.000  N
  N11      1.0000 0.75420  0.28330  0.40367  Biso   1.000  N
  N12      1.0000 0.24580  0.78330  0.09633  Biso   1.000  N
  N13      1.0000 0.07600  0.01180  0.71878  Biso   1.000  N
  N14      1.0000 0.92400  0.51180  0.78122  Biso   1.000  N
  N15      1.0000 0.92400  0.98820  0.28122  Biso   1.000  N
  N16      1.0000 0.07600  0.48820  0.21878  Biso   1.000  N
  N17      1.0000 0.98650  0.12160  0.78202  Biso   1.000  N
  N18      1.0000 0.01350  0.62160  0.71798  Biso   1.000  N
  N19      1.0000 0.01350  0.87840  0.21798  Biso   1.000  N
  N20      1.0000 0.98650  0.37840  0.28202  Biso   1.000  N
  N21      1.0000 0.03340  0.01660  0.80942  Biso   1.000  N
  N22      1.0000 0.96660  0.51660  0.69058  Biso   1.000  N
  N23      1.0000 0.96660  0.98340  0.19058  Biso   1.000  N
  N24      1.0000 0.03340  0.48340  0.30942  Biso   1.000  N
  O1       1.0000 0.49370  0.42389  0.71341  Biso   1.000  O
  O2       1.0000 0.50630  0.92389  0.78659  Biso   1.000  O
  O3       1.0000 0.50630  0.57611  0.28659  Biso   1.000  O
  O4       1.0000 0.49370  0.07611  0.21341  Biso   1.000  O
  O5       1.0000 0.27410  0.29960  0.70192  Biso   1.000  O
  O6       1.0000 0.72590  0.79960  0.79808  Biso   1.000  O
  O7       1.0000 0.72590  0.70040  0.29808  Biso   1.000  O
  O8       1.0000 0.27410  0.20040  0.20192  Biso   1.000  O
  O9       1.0000 0.33290  0.16106  0.92536  Biso   1.000  O
  O10      1.0000 0.66710  0.66106  0.57464  Biso   1.000  O
  O11      1.0000 0.66710  0.83894  0.07464  Biso   1.000  O
  O12      1.0000 0.33290  0.33894  0.42536  Biso   1.000  O
  O13      1.0000 0.21050  0.28685  0.97404  Biso   1.000  O
  O14      1.0000 0.78950  0.78685  0.52596  Biso   1.000  O
  O15      1.0000 0.78950  0.71315  0.02596  Biso   1.000  O
  O16      1.0000 0.21050  0.21315  0.47404  Biso   1.000  O
  O17      1.0000 0.35120  0.69628  0.94077  Biso   1.000  O
  O18      1.0000 0.64880  0.19628  0.55923  Biso   1.000  O
  O19      1.0000 0.64880  0.30372  0.05923  Biso   1.000  O
  O20      1.0000 0.35120  0.80372  0.44077  Biso   1.000  O
  O21      1.0000 0.41440  0.74386  0.85424  Biso   1.000  O
  O22      1.0000 0.58560  0.24386  0.64576  Biso   1.000  O
  O23      1.0000 0.58560  0.25614  0.14576  Biso   1.000  O
  O24      1.0000 0.41440  0.75614  0.35424  Biso   1.000  O
  O25      1.0000 0.51860  0.40749  0.54839  Biso   1.000  O
  O26      1.0000 0.48140  0.90749  0.95161  Biso   1.000  O
  O27      1.0000 0.48140  0.59251  0.45161  Biso   1.000  O
  O28      1.0000 0.51860  0.09251  0.04839  Biso   1.000  O
  H1       1.0000 0.56610  0.34550  0.54220  Biso   1.000  H
  H2       1.0000 0.43390  0.84550  0.95780  Biso   1.000  H
  H3       1.0000 0.43390  0.65450  0.45780  Biso   1.000  H
  H4       1.0000 0.56610  0.15450  0.04220  Biso   1.000  H
  O29      1.0000 0.07260  0.00650  0.92902  Biso   1.000  O
  O30      1.0000 0.92740  0.50650  0.57098  Biso   1.000  O
  O31      1.0000 0.92740  0.99350  0.07098  Biso   1.000  O
  O32      1.0000 0.07260  0.49350  0.42902  Biso   1.000  O
  H5       1.0000 0.07030  0.01210  0.89150  Biso   1.000  H
  H6       1.0000 0.92970  0.51210  0.60850  Biso   1.000  H
  H7       1.0000 0.92970  0.98790  0.10850  Biso   1.000  H
  H8       1.0000 0.07030  0.48790  0.39150  Biso   1.000  H
  H9       1.0000 0.02710  0.94440  0.93610  Biso   1.000  H
  H10      1.0000 0.97290  0.44440  0.56390  Biso   1.000  H
  H11      1.0000 0.97290  0.05560  0.06390  Biso   1.000  H
  H12      1.0000 0.02710  0.55560  0.43610  Biso   1.000  H
  C1       1.0000 0.36860  0.40440  0.79561  Biso   1.000  C
  C2       1.0000 0.63140  0.90440  0.70439  Biso   1.000  C
  C3       1.0000 0.63140  0.59560  0.20439  Biso   1.000  C
  C4       1.0000 0.36860  0.09560  0.29561  Biso   1.000  C
  C5       1.0000 0.39350  0.51680  0.81571  Biso   1.000  C
  C6       1.0000 0.60650  0.01680  0.68429  Biso   1.000  C
  C7       1.0000 0.60650  0.48320  0.18429  Biso   1.000  C
  C8       1.0000 0.39350  0.98320  0.31571  Biso   1.000  C
  H13      1.0000 0.42840  0.57110  0.79190  Biso   1.000  H
  H14      1.0000 0.57160  0.07110  0.70810  Biso   1.000  H
  H15      1.0000 0.57160  0.42890  0.20810  Biso   1.000  H
  H16      1.0000 0.42840  0.92890  0.29190  Biso   1.000  H
  C9       1.0000 0.36650  0.54830  0.87126  Biso   1.000  C
  C10      1.0000 0.63350  0.04830  0.62874  Biso   1.000  C
  C11      1.0000 0.63350  0.45170  0.12874  Biso   1.000  C
  C12      1.0000 0.36650  0.95170  0.37126  Biso   1.000  C
  C13      1.0000 0.32740  0.46500  0.90900  Biso   1.000  C
  C14      1.0000 0.67260  0.96500  0.59100  Biso   1.000  C
  C15      1.0000 0.67260  0.53500  0.09100  Biso   1.000  C
  C16      1.0000 0.32740  0.03500  0.40900  Biso   1.000  C
  H17      1.0000 0.31110  0.48560  0.94650  Biso   1.000  H
  H18      1.0000 0.68890  0.98560  0.55350  Biso   1.000  H
  H19      1.0000 0.68890  0.51440  0.05350  Biso   1.000  H
  H20      1.0000 0.31110  0.01440  0.44650  Biso   1.000  H
  C17      1.0000 0.31260  0.35170  0.89101  Biso   1.000  C
  C18      1.0000 0.68740  0.85170  0.60899  Biso   1.000  C
  C19      1.0000 0.68740  0.64830  0.10899  Biso   1.000  C
  C20      1.0000 0.31260  0.14830  0.39101  Biso   1.000  C
  C21      1.0000 0.32760  0.32240  0.83341  Biso   1.000  C
  C22      1.0000 0.67240  0.82240  0.66659  Biso   1.000  C
  C23      1.0000 0.67240  0.67760  0.16659  Biso   1.000  C
  C24      1.0000 0.32760  0.17760  0.33341  Biso   1.000  C
  H21      1.0000 0.31010  0.24730  0.82000  Biso   1.000  H
  H22      1.0000 0.68990  0.74730  0.68000  Biso   1.000  H
  H23      1.0000 0.68990  0.75270  0.18000  Biso   1.000  H
  H24      1.0000 0.31010  0.25270  0.32000  Biso   1.000  H
  C25      1.0000 0.37860  0.37140  0.73222  Biso   1.000  C
  C26      1.0000 0.62140  0.87140  0.76778  Biso   1.000  C
  C27      1.0000 0.62140  0.62860  0.26778  Biso   1.000  C
  C28      1.0000 0.37860  0.12860  0.23222  Biso   1.000  C
  C29      1.0000 0.37870  0.67200  0.89141  Biso   1.000  C
  C30      1.0000 0.62130  0.17200  0.60859  Biso   1.000  C
  C31      1.0000 0.62130  0.32800  0.10859  Biso   1.000  C
  C32      1.0000 0.37870  0.82800  0.39141  Biso   1.000  C
  C33      1.0000 0.28040  0.26130  0.93392  Biso   1.000  C
  C34      1.0000 0.71960  0.76130  0.56608  Biso   1.000  C
  C35      1.0000 0.71960  0.73870  0.06608  Biso   1.000  C
  C36      1.0000 0.28040  0.23870  0.43392  Biso   1.000  C
  C37      1.0000 0.20660  0.83310  0.60658  Biso   1.000  C
  C38      1.0000 0.79340  0.33310  0.89342  Biso   1.000  C
  C39      1.0000 0.79340  0.16690  0.39342  Biso   1.000  C
  C40      1.0000 0.20660  0.66690  0.10658  Biso   1.000  C
  C41      1.0000 0.21700  0.91150  0.56285  Biso   1.000  C
  C42      1.0000 0.78300  0.41150  0.93715  Biso   1.000  C
  C43      1.0000 0.78300  0.08850  0.43715  Biso   1.000  C
  C44      1.0000 0.21700  0.58850  0.06285  Biso   1.000  C
  H25      1.0000 0.25250  0.88980  0.52900  Biso   1.000  H
  H26      1.0000 0.74750  0.38980  0.97100  Biso   1.000  H
  H27      1.0000 0.74750  0.11020  0.47100  Biso   1.000  H
  H28      1.0000 0.25250  0.61020  0.02900  Biso   1.000  H
  C45      1.0000 0.17400  0.02240  0.57030  Biso   1.000  C
  C46      1.0000 0.82600  0.52240  0.92970  Biso   1.000  C
  C47      1.0000 0.82600  0.97760  0.42970  Biso   1.000  C
  C48      1.0000 0.17400  0.47760  0.07030  Biso   1.000  C
  H29      1.0000 0.17580  0.07610  0.54040  Biso   1.000  H
  H30      1.0000 0.82420  0.57610  0.95960  Biso   1.000  H
  H31      1.0000 0.82420  0.92390  0.45960  Biso   1.000  H
  H32      1.0000 0.17580  0.42390  0.04040  Biso   1.000  H
  C49      1.0000 0.12830  0.05480  0.62180  Biso   1.000  C
  C50      1.0000 0.87170  0.55480  0.87820  Biso   1.000  C
  C51      1.0000 0.87170  0.94520  0.37820  Biso   1.000  C
  C52      1.0000 0.12830  0.44520  0.12180  Biso   1.000  C
  H33      1.0000 0.10100  0.13040  0.62690  Biso   1.000  H
  H34      1.0000 0.89900  0.63040  0.87310  Biso   1.000  H
  H35      1.0000 0.89900  0.86960  0.37310  Biso   1.000  H
  H36      1.0000 0.10100  0.36960  0.12690  Biso   1.000  H
  C53      1.0000 0.12280  0.97530  0.66570  Biso   1.000  C
  C54      1.0000 0.87720  0.47530  0.83430  Biso   1.000  C
  C55      1.0000 0.87720  0.02470  0.33430  Biso   1.000  C
  C56      1.0000 0.12280  0.52470  0.16570  Biso   1.000  C
  C57      1.0000 0.15790  0.86180  0.65805  Biso   1.000  C
  C58      1.0000 0.84210  0.36180  0.84195  Biso   1.000  C
  C59      1.0000 0.84210  0.13820  0.34195  Biso   1.000  C
  C60      1.0000 0.15790  0.63820  0.15805  Biso   1.000  C
  H37      1.0000 0.14890  0.80710  0.68650  Biso   1.000  H
  H38      1.0000 0.85110  0.30710  0.81350  Biso   1.000  H
  H39      1.0000 0.85110  0.19290  0.31350  Biso   1.000  H
  H40      1.0000 0.14890  0.69290  0.18650  Biso   1.000  H
  C61      1.0000 0.33340  0.63660  0.63710  Biso   1.000  C
  C62      1.0000 0.66660  0.13660  0.86290  Biso   1.000  C
  C63      1.0000 0.66660  0.36340  0.36290  Biso   1.000  C
  C64      1.0000 0.33340  0.86340  0.13710  Biso   1.000  C
  H41      1.0000 0.37100  0.64510  0.67980  Biso   1.000  H
  H42      1.0000 0.62900  0.14510  0.82020  Biso   1.000  H
  H43      1.0000 0.62900  0.35490  0.32020  Biso   1.000  H
  H44      1.0000 0.37100  0.85490  0.17980  Biso   1.000  H
  C65      1.0000 0.21750  0.66890  0.54008  Biso   1.000  C
  C66      1.0000 0.78250  0.16890  0.95992  Biso   1.000  C
  C67      1.0000 0.78250  0.33110  0.45992  Biso   1.000  C
  C68      1.0000 0.21750  0.83110  0.04008  Biso   1.000  C
  H45      1.0000 0.15950  0.70420  0.50280  Biso   1.000  H
  H46      1.0000 0.84050  0.20420  0.99720  Biso   1.000  H
  H47      1.0000 0.84050  0.29580  0.49720  Biso   1.000  H
  H48      1.0000 0.15950  0.79580  0.00280  Biso   1.000  H
  C69      1.0000 0.01310  0.11570  0.72873  Biso   1.000  C
  C70      1.0000 0.98690  0.61570  0.77127  Biso   1.000  C
  C71      1.0000 0.98690  0.88430  0.27127  Biso   1.000  C
  C72      1.0000 0.01310  0.38430  0.22873  Biso   1.000  C
  H49      1.0000 0.99180  0.17520  0.70050  Biso   1.000  H
  H50      1.0000 0.00820  0.67520  0.79950  Biso   1.000  H
  H51      1.0000 0.00820  0.82480  0.29950  Biso   1.000  H
  H52      1.0000 0.99180  0.32480  0.20050  Biso   1.000  H
  C73      1.0000 0.08620  0.95350  0.77126  Biso   1.000  C
  C74      1.0000 0.91380  0.45350  0.72874  Biso   1.000  C
  C75      1.0000 0.91380  0.04650  0.22874  Biso   1.000  C
  C76      1.0000 0.08620  0.54650  0.27126  Biso   1.000  C
  H53      1.0000 0.12540  0.87880  0.77890  Biso   1.000  H
  H54      1.0000 0.87460  0.37880  0.72110  Biso   1.000  H
  H55      1.0000 0.87460  0.12120  0.22110  Biso   1.000  H
  H56      1.0000 0.12540  0.62120  0.27890  Biso   1.000  H
  O33      1.0000 0.14310  0.32240  0.57233  Biso   1.000  O
  O34      1.0000 0.85690  0.82240  0.92767  Biso   1.000  O
  O35      1.0000 0.85690  0.67760  0.42767  Biso   1.000  O
  O36      1.0000 0.14310  0.17760  0.07233  Biso   1.000  O
  H57      1.0000 0.22310  0.29560  0.60310  Biso   1.000  H
  H58      1.0000 0.77690  0.79560  0.89690  Biso   1.000  H
  H59      1.0000 0.77690  0.70440  0.39690  Biso   1.000  H
  H60      1.0000 0.22310  0.20440  0.10310  Biso   1.000  H
  H61      1.0000 0.17210  0.28410  0.54510  Biso   1.000  H
  H62      1.0000 0.82790  0.78410  0.95490  Biso   1.000  H
  H63      1.0000 0.82790  0.71590  0.45490  Biso   1.000  H
  H64      1.0000 0.17210  0.21590  0.04510  Biso   1.000  H
