data_image0
_cell_length_a       6.8545
_cell_length_b       8.2037
_cell_length_c       14.324
_cell_angle_alpha    105.15
_cell_angle_beta     98.85
_cell_angle_gamma    94.75

_symmetry_space_group_name_H-M    "P 1"
_symmetry_int_tables_number       1

loop_
  _symmetry_equiv_pos_as_xyz
  'x, y, z'

loop_
  _atom_site_label
  _atom_site_occupancy
  _atom_site_fract_x
  _atom_site_fract_y
  _atom_site_fract_z
  _atom_site_thermal_displace_type
  _atom_site_B_iso_or_equiv
  _atom_site_type_symbol
  C1       1.0000 0.52150  0.19740  0.45163  Biso   1.000  C
  C2       1.0000 0.47850  0.80260  0.54837  Biso   1.000  C
  C3       1.0000 0.52270  0.08340  0.51670  Biso   1.000  C
  C4       1.0000 0.47730  0.91660  0.48330  Biso   1.000  C
  H1       1.0000 0.55720  0.13190  0.58430  Biso   1.000  H
  H2       1.0000 0.44280  0.86810  0.41570  Biso   1.000  H
  C5       1.0000 0.88550  0.77960  0.40894  Biso   1.000  C
  C6       1.0000 0.11450  0.22040  0.59106  Biso   1.000  C
  C7       1.0000 0.00090  0.95340  0.45482  Biso   1.000  C
  C8       1.0000 0.99910  0.04660  0.54518  Biso   1.000  C
  H3       1.0000 0.07850  0.99840  0.41740  Biso   1.000  H
  H4       1.0000 0.92150  0.00160  0.58260  Biso   1.000  H
  C9       1.0000 0.93140  0.26890  0.31540  Biso   1.000  C
  C10      1.0000 0.06860  0.73110  0.68460  Biso   1.000  C
  H5       1.0000 0.99720  0.28460  0.37960  Biso   1.000  H
  H6       1.0000 0.00280  0.71540  0.62040  Biso   1.000  H
  C11      1.0000 0.00680  0.16860  0.23800  Biso   1.000  C
  C12      1.0000 0.99320  0.83140  0.76200  Biso   1.000  C
  H7       1.0000 0.12050  0.11770  0.25080  Biso   1.000  H
  H8       1.0000 0.87950  0.88230  0.74920  Biso   1.000  H
  C13      1.0000 0.91260  0.14520  0.14320  Biso   1.000  C
  C14      1.0000 0.08740  0.85480  0.85680  Biso   1.000  C
  H9       1.0000 0.96160  0.07830  0.09110  Biso   1.000  H
  H10      1.0000 0.03840  0.92170  0.90890  Biso   1.000  H
  C15      1.0000 0.74070  0.22340  0.12526  Biso   1.000  C
  C16      1.0000 0.25930  0.77660  0.87474  Biso   1.000  C
  C17      1.0000 0.67360  0.31930  0.20734  Biso   1.000  C
  C18      1.0000 0.32640  0.68070  0.79266  Biso   1.000  C
  C19      1.0000 0.49220  0.39800  0.19465  Biso   1.000  C
  C20      1.0000 0.50780  0.60200  0.80535  Biso   1.000  C
  C21      1.0000 0.38560  0.38020  0.10069  Biso   1.000  C
  C22      1.0000 0.61440  0.61980  0.89931  Biso   1.000  C
  C23      1.0000 0.21210  0.45860  0.09270  Biso   1.000  C
  C24      1.0000 0.78790  0.54140  0.90730  Biso   1.000  C
  H11      1.0000 0.13800  0.45010  0.03110  Biso   1.000  H
  H12      1.0000 0.86200  0.54990  0.96890  Biso   1.000  H
  C25      1.0000 0.15210  0.54790  0.17640  Biso   1.000  C
  C26      1.0000 0.84790  0.45210  0.82360  Biso   1.000  C
  H13      1.0000 0.03760  0.60100  0.17230  Biso   1.000  H
  H14      1.0000 0.96240  0.39900  0.82770  Biso   1.000  H
  C27      1.0000 0.26550  0.55770  0.26741  Biso   1.000  C
  C28      1.0000 0.73450  0.44230  0.73259  Biso   1.000  C
  H15      1.0000 0.22310  0.61690  0.32390  Biso   1.000  H
  H16      1.0000 0.77690  0.38310  0.67610  Biso   1.000  H
  C29      1.0000 0.63130  0.20640  0.02759  Biso   1.000  C
  C30      1.0000 0.36870  0.79360  0.97241  Biso   1.000  C
  C31      1.0000 0.45750  0.28330  0.01517  Biso   1.000  C
  C32      1.0000 0.54250  0.71670  0.98483  Biso   1.000  C
  C33      1.0000 0.42050  0.18000  0.84980  Biso   1.000  C
  C34      1.0000 0.57950  0.82000  0.15020  Biso   1.000  C
  H17      1.0000 0.35250  0.16680  0.78640  Biso   1.000  H
  H18      1.0000 0.64750  0.83320  0.21360  Biso   1.000  H
  C35      1.0000 0.59310  0.10210  0.86230  Biso   1.000  C
  C36      1.0000 0.40690  0.89790  0.13770  Biso   1.000  C
  H19      1.0000 0.63360  0.03890  0.80620  Biso   1.000  H
  H20      1.0000 0.36640  0.96110  0.19380  Biso   1.000  H
  N1       1.0000 0.43190  0.48610  0.27739  Biso   1.000  N
  N2       1.0000 0.56810  0.51390  0.72261  Biso   1.000  N
  N3       1.0000 0.76860  0.34290  0.30046  Biso   1.000  N
  N4       1.0000 0.23140  0.65710  0.69954  Biso   1.000  N
  N5       1.0000 0.35150  0.27040  0.92389  Biso   1.000  N
  N6       1.0000 0.64850  0.72960  0.07611  Biso   1.000  N
  N7       1.0000 0.70060  0.11250  0.94745  Biso   1.000  N
  N8       1.0000 0.29940  0.88750  0.05255  Biso   1.000  N
  O1       1.0000 0.59270  0.35510  0.49522  Biso   1.000  O
  O2       1.0000 0.40730  0.64490  0.50478  Biso   1.000  O
  O3       1.0000 0.45900  0.14130  0.36308  Biso   1.000  O
  O4       1.0000 0.54100  0.85870  0.63692  Biso   1.000  O
  O5       1.0000 0.81640  0.70280  0.46611  Biso   1.000  O
  O6       1.0000 0.18360  0.29720  0.53389  Biso   1.000  O
  O7       1.0000 0.86140  0.72400  0.31916  Biso   1.000  O
  O8       1.0000 0.13860  0.27600  0.68084  Biso   1.000  O
  Cu1      1.0000 0.62610  0.49731  0.40534  Biso   1.000  Cu
  Cu2      1.0000 0.37390  0.50269  0.59466  Biso   1.000  Cu
