data_image0
_cell_length_a       5.6113
_cell_length_b       19.4865
_cell_length_c       17.0719
_cell_angle_alpha    90
_cell_angle_beta     98.664
_cell_angle_gamma    90

_symmetry_space_group_name_H-M    "P 1"
_symmetry_int_tables_number       1

loop_
  _symmetry_equiv_pos_as_xyz
  'x, y, z'

loop_
  _atom_site_label
  _atom_site_occupancy
  _atom_site_fract_x
  _atom_site_fract_y
  _atom_site_fract_z
  _atom_site_thermal_displace_type
  _atom_site_B_iso_or_equiv
  _atom_site_type_symbol
  Cu1      1.0000 0.50000  0.42262  0.75000  Biso   1.000  Cu
  Cu2      1.0000 0.00000  0.92262  0.75000  Biso   1.000  Cu
  Cu3      1.0000 0.50000  0.57738  0.25000  Biso   1.000  Cu
  Cu4      1.0000 0.00000  0.07738  0.25000  Biso   1.000  Cu
  O1       1.0000 0.31800  0.35336  0.68269  Biso   1.000  O
  O2       1.0000 0.68200  0.35336  0.81731  Biso   1.000  O
  O3       1.0000 0.81800  0.85336  0.68269  Biso   1.000  O
  O4       1.0000 0.18200  0.85336  0.81731  Biso   1.000  O
  O5       1.0000 0.68200  0.64664  0.31731  Biso   1.000  O
  O6       1.0000 0.31800  0.64664  0.18269  Biso   1.000  O
  O7       1.0000 0.18200  0.14664  0.31731  Biso   1.000  O
  O8       1.0000 0.81800  0.14664  0.18269  Biso   1.000  O
  O9       1.0000 0.62160  0.37987  0.61880  Biso   1.000  O
  O10      1.0000 0.37840  0.37987  0.88120  Biso   1.000  O
  O11      1.0000 0.12160  0.87987  0.61880  Biso   1.000  O
  O12      1.0000 0.87840  0.87987  0.88120  Biso   1.000  O
  O13      1.0000 0.37840  0.62013  0.38120  Biso   1.000  O
  O14      1.0000 0.62160  0.62013  0.11880  Biso   1.000  O
  O15      1.0000 0.87840  0.12013  0.38120  Biso   1.000  O
  O16      1.0000 0.12160  0.12013  0.11880  Biso   1.000  O
  N1       1.0000 0.70270  0.50014  0.79827  Biso   1.000  N
  N2       1.0000 0.29730  0.50014  0.70173  Biso   1.000  N
  N3       1.0000 0.20270  0.00014  0.79827  Biso   1.000  N
  N4       1.0000 0.79730  0.00014  0.70173  Biso   1.000  N
  N5       1.0000 0.29730  0.49986  0.20173  Biso   1.000  N
  N6       1.0000 0.70270  0.49986  0.29827  Biso   1.000  N
  N7       1.0000 0.79730  0.99986  0.20173  Biso   1.000  N
  N8       1.0000 0.20270  0.99986  0.29827  Biso   1.000  N
  C1       1.0000 0.43620  0.34685  0.62397  Biso   1.000  C
  C2       1.0000 0.56380  0.34685  0.87603  Biso   1.000  C
  C3       1.0000 0.93620  0.84685  0.62397  Biso   1.000  C
  C4       1.0000 0.06380  0.84685  0.87603  Biso   1.000  C
  C5       1.0000 0.56380  0.65315  0.37603  Biso   1.000  C
  C6       1.0000 0.43620  0.65315  0.12397  Biso   1.000  C
  C7       1.0000 0.06380  0.15315  0.37603  Biso   1.000  C
  C8       1.0000 0.93620  0.15315  0.12397  Biso   1.000  C
  C9       1.0000 0.61290  0.56332  0.77875  Biso   1.000  C
  C10      1.0000 0.38710  0.56332  0.72125  Biso   1.000  C
  C11      1.0000 0.11290  0.06332  0.77875  Biso   1.000  C
  C12      1.0000 0.88710  0.06332  0.72125  Biso   1.000  C
  C13      1.0000 0.38710  0.43668  0.22125  Biso   1.000  C
  C14      1.0000 0.61290  0.43668  0.27875  Biso   1.000  C
  C15      1.0000 0.88710  0.93668  0.22125  Biso   1.000  C
  C16      1.0000 0.11290  0.93668  0.27875  Biso   1.000  C
  C17      1.0000 0.33680  0.29655  0.55998  Biso   1.000  C
  C18      1.0000 0.66320  0.29655  0.94002  Biso   1.000  C
  C19      1.0000 0.83680  0.79655  0.55998  Biso   1.000  C
  C20      1.0000 0.16320  0.79655  0.94002  Biso   1.000  C
  C21      1.0000 0.66320  0.70345  0.44002  Biso   1.000  C
  C22      1.0000 0.33680  0.70345  0.05998  Biso   1.000  C
  C23      1.0000 0.16320  0.20345  0.44002  Biso   1.000  C
  C24      1.0000 0.83680  0.20345  0.05998  Biso   1.000  C
  C25      1.0000 0.11670  0.26334  0.56095  Biso   1.000  C
  C26      1.0000 0.88330  0.26334  0.93905  Biso   1.000  C
  C27      1.0000 0.61670  0.76334  0.56095  Biso   1.000  C
  C28      1.0000 0.38330  0.76334  0.93905  Biso   1.000  C
  C29      1.0000 0.88330  0.73666  0.43905  Biso   1.000  C
  C30      1.0000 0.11670  0.73666  0.06095  Biso   1.000  C
  C31      1.0000 0.38330  0.23666  0.43905  Biso   1.000  C
  C32      1.0000 0.61670  0.23666  0.06095  Biso   1.000  C
  H1       1.0000 0.02700  0.27230  0.60140  Biso   1.000  H
  H2       1.0000 0.97300  0.27230  0.89860  Biso   1.000  H
  H3       1.0000 0.52700  0.77230  0.60140  Biso   1.000  H
  H4       1.0000 0.47300  0.77230  0.89860  Biso   1.000  H
  H5       1.0000 0.97300  0.72770  0.39860  Biso   1.000  H
  H6       1.0000 0.02700  0.72770  0.10140  Biso   1.000  H
  H7       1.0000 0.47300  0.22770  0.39860  Biso   1.000  H
  H8       1.0000 0.52700  0.22770  0.10140  Biso   1.000  H
  C33      1.0000 0.90890  0.49398  0.84921  Biso   1.000  C
  C34      1.0000 0.09110  0.49398  0.65079  Biso   1.000  C
  C35      1.0000 0.40890  0.99398  0.84921  Biso   1.000  C
  C36      1.0000 0.59110  0.99398  0.65079  Biso   1.000  C
  C37      1.0000 0.09110  0.50602  0.15079  Biso   1.000  C
  C38      1.0000 0.90890  0.50602  0.34921  Biso   1.000  C
  C39      1.0000 0.59110  0.00602  0.15079  Biso   1.000  C
  C40      1.0000 0.40890  0.00602  0.34921  Biso   1.000  C
  H9       1.0000 0.97090  0.45030  0.86110  Biso   1.000  H
  H10      1.0000 0.02910  0.45030  0.63890  Biso   1.000  H
  H11      1.0000 0.47090  0.95030  0.86110  Biso   1.000  H
  H12      1.0000 0.52910  0.95030  0.63890  Biso   1.000  H
  H13      1.0000 0.02910  0.54970  0.13890  Biso   1.000  H
  H14      1.0000 0.97090  0.54970  0.36110  Biso   1.000  H
  H15      1.0000 0.52910  0.04970  0.13890  Biso   1.000  H
  H16      1.0000 0.47090  0.04970  0.36110  Biso   1.000  H
  C41      1.0000 0.03160  0.21686  0.50125  Biso   1.000  C
  C42      1.0000 0.96840  0.21686  0.99875  Biso   1.000  C
  C43      1.0000 0.53160  0.71686  0.50125  Biso   1.000  C
  C44      1.0000 0.46840  0.71686  0.99875  Biso   1.000  C
  C45      1.0000 0.96840  0.78314  0.49875  Biso   1.000  C
  C46      1.0000 0.03160  0.78314  0.00125  Biso   1.000  C
  C47      1.0000 0.46840  0.28314  0.49875  Biso   1.000  C
  C48      1.0000 0.53160  0.28314  0.00125  Biso   1.000  C
  H17      1.0000 0.88550  0.19460  0.50230  Biso   1.000  H
  H18      1.0000 0.11450  0.19460  0.99770  Biso   1.000  H
  H19      1.0000 0.38550  0.69460  0.50230  Biso   1.000  H
  H20      1.0000 0.61450  0.69460  0.99770  Biso   1.000  H
  H21      1.0000 0.11450  0.80540  0.49770  Biso   1.000  H
  H22      1.0000 0.88550  0.80540  0.00230  Biso   1.000  H
  H23      1.0000 0.61450  0.30540  0.49770  Biso   1.000  H
  H24      1.0000 0.38550  0.30540  0.00230  Biso   1.000  H
  C49      1.0000 0.72670  0.62203  0.81158  Biso   1.000  C
  C50      1.0000 0.27330  0.62203  0.68842  Biso   1.000  C
  C51      1.0000 0.22670  0.12203  0.81158  Biso   1.000  C
  C52      1.0000 0.77330  0.12203  0.68842  Biso   1.000  C
  C53      1.0000 0.27330  0.37797  0.18842  Biso   1.000  C
  C54      1.0000 0.72670  0.37797  0.31158  Biso   1.000  C
  C55      1.0000 0.77330  0.87797  0.18842  Biso   1.000  C
  C56      1.0000 0.22670  0.87797  0.31158  Biso   1.000  C
  H25      1.0000 0.66310  0.66520  0.79790  Biso   1.000  H
  H26      1.0000 0.33690  0.66520  0.70210  Biso   1.000  H
  H27      1.0000 0.16310  0.16520  0.79790  Biso   1.000  H
  H28      1.0000 0.83690  0.16520  0.70210  Biso   1.000  H
  H29      1.0000 0.33690  0.33480  0.20210  Biso   1.000  H
  H30      1.0000 0.66310  0.33480  0.29790  Biso   1.000  H
  H31      1.0000 0.83690  0.83480  0.20210  Biso   1.000  H
  H32      1.0000 0.16310  0.83480  0.29790  Biso   1.000  H
  C57      1.0000 0.03320  0.55025  0.88480  Biso   1.000  C
  C58      1.0000 0.96680  0.55025  0.61520  Biso   1.000  C
  C59      1.0000 0.53320  0.05025  0.88480  Biso   1.000  C
  C60      1.0000 0.46680  0.05025  0.61520  Biso   1.000  C
  C61      1.0000 0.96680  0.44975  0.11520  Biso   1.000  C
  C62      1.0000 0.03320  0.44975  0.38480  Biso   1.000  C
  C63      1.0000 0.46680  0.94975  0.11520  Biso   1.000  C
  C64      1.0000 0.53320  0.94975  0.38480  Biso   1.000  C
  C65      1.0000 0.93770  0.61509  0.86538  Biso   1.000  C
  C66      1.0000 0.06230  0.61509  0.63462  Biso   1.000  C
  C67      1.0000 0.43770  0.11509  0.86538  Biso   1.000  C
  C68      1.0000 0.56230  0.11509  0.63462  Biso   1.000  C
  C69      1.0000 0.06230  0.38491  0.13462  Biso   1.000  C
  C70      1.0000 0.93770  0.38491  0.36538  Biso   1.000  C
  C71      1.0000 0.56230  0.88491  0.13462  Biso   1.000  C
  C72      1.0000 0.43770  0.88491  0.36538  Biso   1.000  C
  H33      1.0000 0.01540  0.65390  0.88840  Biso   1.000  H
  H34      1.0000 0.98460  0.65390  0.61160  Biso   1.000  H
  H35      1.0000 0.51540  0.15390  0.88840  Biso   1.000  H
  H36      1.0000 0.48460  0.15390  0.61160  Biso   1.000  H
  H37      1.0000 0.98460  0.34610  0.11160  Biso   1.000  H
  H38      1.0000 0.01540  0.34610  0.38840  Biso   1.000  H
  H39      1.0000 0.48460  0.84610  0.11160  Biso   1.000  H
  H40      1.0000 0.51540  0.84610  0.38840  Biso   1.000  H
  C73      1.0000 0.26080  0.53971  0.94290  Biso   1.000  C
  C74      1.0000 0.73920  0.53971  0.55710  Biso   1.000  C
  C75      1.0000 0.76080  0.03971  0.94290  Biso   1.000  C
  C76      1.0000 0.23920  0.03971  0.55710  Biso   1.000  C
  C77      1.0000 0.73920  0.46029  0.05710  Biso   1.000  C
  C78      1.0000 0.26080  0.46029  0.44290  Biso   1.000  C
  C79      1.0000 0.23920  0.96029  0.05710  Biso   1.000  C
  C80      1.0000 0.76080  0.96029  0.44290  Biso   1.000  C
  H41      1.0000 0.22730  0.54660  0.99580  Biso   1.000  H
  H42      1.0000 0.77270  0.54660  0.50420  Biso   1.000  H
  H43      1.0000 0.72730  0.04660  0.99580  Biso   1.000  H
  H44      1.0000 0.27270  0.04660  0.50420  Biso   1.000  H
  H45      1.0000 0.77270  0.45340  0.00420  Biso   1.000  H
  H46      1.0000 0.22730  0.45340  0.49580  Biso   1.000  H
  H47      1.0000 0.27270  0.95340  0.00420  Biso   1.000  H
  H48      1.0000 0.72730  0.95340  0.49580  Biso   1.000  H
  H49      1.0000 0.38090  0.57200  0.93200  Biso   1.000  H
  H50      1.0000 0.61910  0.57200  0.56800  Biso   1.000  H
  H51      1.0000 0.88090  0.07200  0.93200  Biso   1.000  H
  H52      1.0000 0.11910  0.07200  0.56800  Biso   1.000  H
  H53      1.0000 0.61910  0.42800  0.06800  Biso   1.000  H
  H54      1.0000 0.38090  0.42800  0.43200  Biso   1.000  H
  H55      1.0000 0.11910  0.92800  0.06800  Biso   1.000  H
  H56      1.0000 0.88090  0.92800  0.43200  Biso   1.000  H
  H57      1.0000 0.31910  0.49380  0.93780  Biso   1.000  H
  H58      1.0000 0.68090  0.49380  0.56220  Biso   1.000  H
  H59      1.0000 0.81910  0.99380  0.93780  Biso   1.000  H
  H60      1.0000 0.18090  0.99380  0.56220  Biso   1.000  H
  H61      1.0000 0.68090  0.50620  0.06220  Biso   1.000  H
  H62      1.0000 0.31910  0.50620  0.43780  Biso   1.000  H
  H63      1.0000 0.18090  0.00620  0.06220  Biso   1.000  H
  H64      1.0000 0.81910  0.00620  0.43780  Biso   1.000  H
  O17      1.0000 0.00000  0.26813  0.75000  Biso   1.000  O
  O18      1.0000 0.50000  0.76813  0.75000  Biso   1.000  O
  O19      1.0000 0.00000  0.73187  0.25000  Biso   1.000  O
  O20      1.0000 0.50000  0.23187  0.25000  Biso   1.000  O
  H65      1.0000 0.07630  0.29700  0.72590  Biso   1.000  H
  H66      1.0000 0.92370  0.29700  0.77410  Biso   1.000  H
  H67      1.0000 0.57630  0.79700  0.72590  Biso   1.000  H
  H68      1.0000 0.42370  0.79700  0.77410  Biso   1.000  H
  H69      1.0000 0.92370  0.70300  0.27410  Biso   1.000  H
  H70      1.0000 0.07630  0.70300  0.22590  Biso   1.000  H
  H71      1.0000 0.42370  0.20300  0.27410  Biso   1.000  H
  H72      1.0000 0.57630  0.20300  0.22590  Biso   1.000  H
  H73      1.0000 0.86830  0.28580  0.75890  Biso   1.000  H
  H74      1.0000 0.13170  0.28580  0.74110  Biso   1.000  H
  H75      1.0000 0.36830  0.78580  0.75890  Biso   1.000  H
  H76      1.0000 0.63170  0.78580  0.74110  Biso   1.000  H
  H77      1.0000 0.13170  0.71420  0.24110  Biso   1.000  H
  H78      1.0000 0.86830  0.71420  0.25890  Biso   1.000  H
  H79      1.0000 0.63170  0.21420  0.24110  Biso   1.000  H
  H80      1.0000 0.36830  0.21420  0.25890  Biso   1.000  H
