data_image0
_cell_length_a       9.6038
_cell_length_b       10.4719
_cell_length_c       12.79
_cell_angle_alpha    90
_cell_angle_beta     108.154
_cell_angle_gamma    90

_symmetry_space_group_name_H-M    "P 1"
_symmetry_int_tables_number       1

loop_
  _symmetry_equiv_pos_as_xyz
  'x, y, z'

loop_
  _atom_site_label
  _atom_site_occupancy
  _atom_site_fract_x
  _atom_site_fract_y
  _atom_site_fract_z
  _atom_site_thermal_displace_type
  _atom_site_B_iso_or_equiv
  _atom_site_type_symbol
  Cu1      1.0000 0.55291  0.59745  0.12974  Biso   1.000  Cu
  Cu2      1.0000 0.94709  0.09745  0.37026  Biso   1.000  Cu
  Cu3      1.0000 0.44709  0.40255  0.87026  Biso   1.000  Cu
  Cu4      1.0000 0.05291  0.90255  0.62974  Biso   1.000  Cu
  O1       1.0000 0.64999  0.48477  0.04768  Biso   1.000  O
  O2       1.0000 0.85001  0.98477  0.45232  Biso   1.000  O
  O3       1.0000 0.35001  0.51523  0.95232  Biso   1.000  O
  O4       1.0000 0.14999  0.01523  0.54768  Biso   1.000  O
  O5       1.0000 0.87010  0.51986  0.16808  Biso   1.000  O
  O6       1.0000 0.62990  0.01986  0.33192  Biso   1.000  O
  O7       1.0000 0.12990  0.48014  0.83192  Biso   1.000  O
  O8       1.0000 0.37010  0.98014  0.66808  Biso   1.000  O
  O9       1.0000 0.03738  0.20538  0.27797  Biso   1.000  O
  O10      1.0000 0.46262  0.70538  0.22203  Biso   1.000  O
  O11      1.0000 0.96262  0.79462  0.72203  Biso   1.000  O
  O12      1.0000 0.53738  0.29462  0.77797  Biso   1.000  O
  O13      1.0000 0.81240  0.18046  0.16343  Biso   1.000  O
  O14      1.0000 0.68760  0.68046  0.33657  Biso   1.000  O
  O15      1.0000 0.18760  0.81954  0.83657  Biso   1.000  O
  O16      1.0000 0.31240  0.31954  0.66343  Biso   1.000  O
  N1       1.0000 0.49630  0.44630  0.20065  Biso   1.000  N
  N2       1.0000 0.00370  0.94630  0.29935  Biso   1.000  N
  N3       1.0000 0.50370  0.55370  0.79935  Biso   1.000  N
  N4       1.0000 0.99630  0.05370  0.70065  Biso   1.000  N
  N5       1.0000 0.49660  0.25540  0.27081  Biso   1.000  N
  N6       1.0000 0.00340  0.75540  0.22919  Biso   1.000  N
  N7       1.0000 0.50340  0.74460  0.72919  Biso   1.000  N
  N8       1.0000 0.99660  0.24460  0.77081  Biso   1.000  N
  H1       1.0000 0.52270  0.17840  0.29110  Biso   1.000  H
  H2       1.0000 0.97730  0.67840  0.20890  Biso   1.000  H
  H3       1.0000 0.47730  0.82160  0.70890  Biso   1.000  H
  H4       1.0000 0.02270  0.32160  0.79110  Biso   1.000  H
  N9       1.0000 0.61150  0.75640  0.06892  Biso   1.000  N
  N10      1.0000 0.88850  0.25640  0.43108  Biso   1.000  N
  N11      1.0000 0.38850  0.24360  0.93108  Biso   1.000  N
  N12      1.0000 0.11150  0.74360  0.56892  Biso   1.000  N
  N13      1.0000 0.68150  0.95520  0.06549  Biso   1.000  N
  N14      1.0000 0.81850  0.45520  0.43451  Biso   1.000  N
  N15      1.0000 0.31850  0.04480  0.93451  Biso   1.000  N
  N16      1.0000 0.18150  0.54480  0.56549  Biso   1.000  N
  H5       1.0000 0.69290  0.03540  0.08020  Biso   1.000  H
  H6       1.0000 0.80710  0.53540  0.41980  Biso   1.000  H
  H7       1.0000 0.30710  0.96460  0.91980  Biso   1.000  H
  H8       1.0000 0.19290  0.46460  0.58020  Biso   1.000  H
  C1       1.0000 0.78790  0.46640  0.08501  Biso   1.000  C
  C2       1.0000 0.71210  0.96640  0.41499  Biso   1.000  C
  C3       1.0000 0.21210  0.53360  0.91499  Biso   1.000  C
  C4       1.0000 0.28790  0.03360  0.58501  Biso   1.000  C
  C5       1.0000 0.85110  0.37140  0.02246  Biso   1.000  C
  C6       1.0000 0.64890  0.87140  0.47754  Biso   1.000  C
  C7       1.0000 0.14890  0.62860  0.97754  Biso   1.000  C
  C8       1.0000 0.35110  0.12860  0.52246  Biso   1.000  C
  H9       1.0000 0.88250  0.41660  0.96750  Biso   1.000  H
  H10      1.0000 0.61750  0.91660  0.53250  Biso   1.000  H
  H11      1.0000 0.11750  0.58340  0.03250  Biso   1.000  H
  H12      1.0000 0.38250  0.08340  0.46750  Biso   1.000  H
  H13      1.0000 0.77540  0.31130  0.98450  Biso   1.000  H
  H14      1.0000 0.72460  0.81130  0.51550  Biso   1.000  H
  H15      1.0000 0.22460  0.68870  0.01550  Biso   1.000  H
  H16      1.0000 0.27540  0.18870  0.48450  Biso   1.000  H
  H17      1.0000 0.01960  0.23980  0.05470  Biso   1.000  H
  H18      1.0000 0.48040  0.73980  0.44530  Biso   1.000  H
  H19      1.0000 0.98040  0.76020  0.94530  Biso   1.000  H
  H20      1.0000 0.51960  0.26020  0.55470  Biso   1.000  H
  H21      1.0000 0.05880  0.35740  0.13450  Biso   1.000  H
  H22      1.0000 0.44120  0.85740  0.36550  Biso   1.000  H
  H23      1.0000 0.94120  0.64260  0.86550  Biso   1.000  H
  H24      1.0000 0.55880  0.14260  0.63450  Biso   1.000  H
  C9       1.0000 0.98150  0.29810  0.09880  Biso   1.000  C
  C10      1.0000 0.51850  0.79810  0.40120  Biso   1.000  C
  C11      1.0000 0.01850  0.70190  0.90120  Biso   1.000  C
  C12      1.0000 0.48150  0.20190  0.59880  Biso   1.000  C
  C13      1.0000 0.93980  0.22240  0.18530  Biso   1.000  C
  C14      1.0000 0.56020  0.72240  0.31470  Biso   1.000  C
  C15      1.0000 0.06020  0.77760  0.81470  Biso   1.000  C
  C16      1.0000 0.43980  0.27760  0.68530  Biso   1.000  C
  C17      1.0000 0.56110  0.33340  0.21841  Biso   1.000  C
  C18      1.0000 0.93890  0.83340  0.28159  Biso   1.000  C
  C19      1.0000 0.43890  0.66660  0.78159  Biso   1.000  C
  C20      1.0000 0.06110  0.16660  0.71841  Biso   1.000  C
  H25      1.0000 0.64190  0.31140  0.19680  Biso   1.000  H
  H26      1.0000 0.85810  0.81140  0.30320  Biso   1.000  H
  H27      1.0000 0.35810  0.68860  0.80320  Biso   1.000  H
  H28      1.0000 0.14190  0.18860  0.69680  Biso   1.000  H
  C21      1.0000 0.38050  0.32000  0.28680  Biso   1.000  C
  C22      1.0000 0.11950  0.82000  0.21320  Biso   1.000  C
  C23      1.0000 0.61950  0.68000  0.71320  Biso   1.000  C
  C24      1.0000 0.88050  0.18000  0.78680  Biso   1.000  C
  H29      1.0000 0.31410  0.28890  0.32020  Biso   1.000  H
  H30      1.0000 0.18590  0.78890  0.17980  Biso   1.000  H
  H31      1.0000 0.68590  0.71110  0.67980  Biso   1.000  H
  H32      1.0000 0.81410  0.21110  0.82020  Biso   1.000  H
  C25      1.0000 0.38230  0.43770  0.24410  Biso   1.000  C
  C26      1.0000 0.11770  0.93770  0.25590  Biso   1.000  C
  C27      1.0000 0.61770  0.56230  0.75590  Biso   1.000  C
  C28      1.0000 0.88230  0.06230  0.74410  Biso   1.000  C
  H33      1.0000 0.31660  0.50300  0.24410  Biso   1.000  H
  H34      1.0000 0.18340  0.00300  0.25590  Biso   1.000  H
  H35      1.0000 0.68340  0.49700  0.75590  Biso   1.000  H
  H36      1.0000 0.81660  0.99700  0.74410  Biso   1.000  H
  C29      1.0000 0.60890  0.87340  0.10820  Biso   1.000  C
  C30      1.0000 0.89110  0.37340  0.39180  Biso   1.000  C
  C31      1.0000 0.39110  0.12660  0.89180  Biso   1.000  C
  C32      1.0000 0.10890  0.62660  0.60820  Biso   1.000  C
  H37      1.0000 0.56200  0.89520  0.15930  Biso   1.000  H
  H38      1.0000 0.93800  0.39520  0.34070  Biso   1.000  H
  H39      1.0000 0.43800  0.10480  0.84070  Biso   1.000  H
  H40      1.0000 0.06200  0.60480  0.65930  Biso   1.000  H
  C33      1.0000 0.73470  0.88990  0.99440  Biso   1.000  C
  C34      1.0000 0.76530  0.38990  0.50560  Biso   1.000  C
  C35      1.0000 0.26530  0.11010  0.00560  Biso   1.000  C
  C36      1.0000 0.23470  0.61010  0.49440  Biso   1.000  C
  H41      1.0000 0.78990  0.92290  0.95250  Biso   1.000  H
  H42      1.0000 0.71010  0.42290  0.54750  Biso   1.000  H
  H43      1.0000 0.21010  0.07710  0.04750  Biso   1.000  H
  H44      1.0000 0.28990  0.57710  0.45250  Biso   1.000  H
  C37      1.0000 0.69140  0.76720  0.99680  Biso   1.000  C
  C38      1.0000 0.80860  0.26720  0.50320  Biso   1.000  C
  C39      1.0000 0.30860  0.23280  0.00320  Biso   1.000  C
  C40      1.0000 0.19140  0.73280  0.49680  Biso   1.000  C
  H45      1.0000 0.71240  0.70050  0.95600  Biso   1.000  H
  H46      1.0000 0.78760  0.20050  0.54400  Biso   1.000  H
  H47      1.0000 0.28760  0.29950  0.04400  Biso   1.000  H
  H48      1.0000 0.21240  0.79950  0.45600  Biso   1.000  H
