data_image0
_cell_length_a       13.074
_cell_length_b       20.229
_cell_length_c       14.419
_cell_angle_alpha    90
_cell_angle_beta     108.889
_cell_angle_gamma    90

_symmetry_space_group_name_H-M    "P 1"
_symmetry_int_tables_number       1

loop_
  _symmetry_equiv_pos_as_xyz
  'x, y, z'

loop_
  _atom_site_label
  _atom_site_occupancy
  _atom_site_fract_x
  _atom_site_fract_y
  _atom_site_fract_z
  _atom_site_thermal_displace_type
  _atom_site_B_iso_or_equiv
  _atom_site_type_symbol
  Cu1      1.0000 0.81154  0.28704  0.16716  Biso   1.000  Cu
  Cu2      1.0000 0.68846  0.78704  0.33284  Biso   1.000  Cu
  Cu3      1.0000 0.18846  0.71296  0.83284  Biso   1.000  Cu
  Cu4      1.0000 0.31154  0.21296  0.66716  Biso   1.000  Cu
  Cu5      1.0000 0.69321  0.20461  0.03194  Biso   1.000  Cu
  Cu6      1.0000 0.80679  0.70461  0.46806  Biso   1.000  Cu
  Cu7      1.0000 0.30679  0.79539  0.96806  Biso   1.000  Cu
  Cu8      1.0000 0.19321  0.29539  0.53194  Biso   1.000  Cu
  O1       1.0000 0.77560  0.35179  0.06081  Biso   1.000  O
  O2       1.0000 0.72440  0.85179  0.43919  Biso   1.000  O
  O3       1.0000 0.22440  0.64821  0.93919  Biso   1.000  O
  O4       1.0000 0.27560  0.14821  0.56081  Biso   1.000  O
  C1       1.0000 0.72970  0.33562  0.97380  Biso   1.000  C
  C2       1.0000 0.77030  0.83562  0.52620  Biso   1.000  C
  C3       1.0000 0.27030  0.66438  0.02620  Biso   1.000  C
  C4       1.0000 0.22970  0.16438  0.47380  Biso   1.000  C
  O5       1.0000 0.68820  0.28056  0.94415  Biso   1.000  O
  O6       1.0000 0.81180  0.78056  0.55585  Biso   1.000  O
  O7       1.0000 0.31180  0.71944  0.05585  Biso   1.000  O
  O8       1.0000 0.18820  0.21944  0.44415  Biso   1.000  O
  C5       1.0000 0.72540  0.38642  0.89740  Biso   1.000  C
  C6       1.0000 0.77460  0.88642  0.60260  Biso   1.000  C
  C7       1.0000 0.27460  0.61358  0.10260  Biso   1.000  C
  C8       1.0000 0.22540  0.11358  0.39740  Biso   1.000  C
  C9       1.0000 0.63290  0.39870  0.81970  Biso   1.000  C
  C10      1.0000 0.86710  0.89870  0.68030  Biso   1.000  C
  C11      1.0000 0.36710  0.60130  0.18030  Biso   1.000  C
  C12      1.0000 0.13290  0.10130  0.31970  Biso   1.000  C
  F1       1.0000 0.54490  0.36447  0.81410  Biso   1.000  F
  F2       1.0000 0.95510  0.86447  0.68590  Biso   1.000  F
  F3       1.0000 0.45510  0.63553  0.18590  Biso   1.000  F
  F4       1.0000 0.04490  0.13553  0.31410  Biso   1.000  F
  C13      1.0000 0.62870  0.44570  0.74830  Biso   1.000  C
  C14      1.0000 0.87130  0.94570  0.75170  Biso   1.000  C
  C15      1.0000 0.37130  0.55430  0.25170  Biso   1.000  C
  C16      1.0000 0.12870  0.05430  0.24830  Biso   1.000  C
  H1       1.0000 0.56490  0.45350  0.69740  Biso   1.000  H
  H2       1.0000 0.93510  0.95350  0.80260  Biso   1.000  H
  H3       1.0000 0.43510  0.54650  0.30260  Biso   1.000  H
  H4       1.0000 0.06490  0.04650  0.19740  Biso   1.000  H
  C17      1.0000 0.72020  0.47990  0.75490  Biso   1.000  C
  C18      1.0000 0.77980  0.97990  0.74510  Biso   1.000  C
  C19      1.0000 0.27980  0.52010  0.24510  Biso   1.000  C
  C20      1.0000 0.22020  0.02010  0.25490  Biso   1.000  C
  H5       1.0000 0.71890  0.51090  0.70690  Biso   1.000  H
  H6       1.0000 0.78110  0.01090  0.79310  Biso   1.000  H
  H7       1.0000 0.28110  0.48910  0.29310  Biso   1.000  H
  H8       1.0000 0.21890  0.98910  0.20690  Biso   1.000  H
  C21      1.0000 0.81370  0.46980  0.83020  Biso   1.000  C
  C22      1.0000 0.68630  0.96980  0.66980  Biso   1.000  C
  C23      1.0000 0.18630  0.53020  0.16980  Biso   1.000  C
  C24      1.0000 0.31370  0.03020  0.33020  Biso   1.000  C
  H9       1.0000 0.87580  0.49350  0.83380  Biso   1.000  H
  H10      1.0000 0.62420  0.99350  0.66620  Biso   1.000  H
  H11      1.0000 0.12420  0.50650  0.16620  Biso   1.000  H
  H12      1.0000 0.37580  0.00650  0.33380  Biso   1.000  H
  C25      1.0000 0.81440  0.42490  0.89920  Biso   1.000  C
  C26      1.0000 0.68560  0.92490  0.60080  Biso   1.000  C
  C27      1.0000 0.18560  0.57510  0.10080  Biso   1.000  C
  C28      1.0000 0.31440  0.07510  0.39920  Biso   1.000  C
  F5       1.0000 0.90720  0.41400  0.97270  Biso   1.000  F
  F6       1.0000 0.59280  0.91400  0.52730  Biso   1.000  F
  F7       1.0000 0.09280  0.58600  0.02730  Biso   1.000  F
  F8       1.0000 0.40720  0.08600  0.47270  Biso   1.000  F
  O9       1.0000 0.92710  0.24890  0.12070  Biso   1.000  O
  O10      1.0000 0.57290  0.74890  0.37930  Biso   1.000  O
  O11      1.0000 0.07290  0.75110  0.87930  Biso   1.000  O
  O12      1.0000 0.42710  0.25110  0.62070  Biso   1.000  O
  C29      1.0000 0.91450  0.20490  0.05710  Biso   1.000  C
  C30      1.0000 0.58550  0.70490  0.44290  Biso   1.000  C
  C31      1.0000 0.08550  0.79510  0.94290  Biso   1.000  C
  C32      1.0000 0.41450  0.29510  0.55710  Biso   1.000  C
  O13      1.0000 0.82660  0.17840  0.00920  Biso   1.000  O
  O14      1.0000 0.67340  0.67840  0.49080  Biso   1.000  O
  O15      1.0000 0.17340  0.82160  0.99080  Biso   1.000  O
  O16      1.0000 0.32660  0.32160  0.50920  Biso   1.000  O
  C33      1.0000 0.01170  0.18000  0.03460  Biso   1.000  C
  C34      1.0000 0.48830  0.68000  0.46540  Biso   1.000  C
  C35      1.0000 0.98830  0.82000  0.96540  Biso   1.000  C
  C36      1.0000 0.51170  0.32000  0.53460  Biso   1.000  C
  C37      1.0000 0.02000  0.11520  0.00540  Biso   1.000  C
  C38      1.0000 0.48000  0.61520  0.49460  Biso   1.000  C
  C39      1.0000 0.98000  0.88480  0.99460  Biso   1.000  C
  C40      1.0000 0.52000  0.38480  0.50540  Biso   1.000  C
  F9       1.0000 0.94050  0.07354  0.99970  Biso   1.000  F
  F10      1.0000 0.55950  0.57354  0.50030  Biso   1.000  F
  F11      1.0000 0.05950  0.92646  0.00030  Biso   1.000  F
  F12      1.0000 0.44050  0.42646  0.49970  Biso   1.000  F
  C41      1.0000 0.10860  0.09090  0.98640  Biso   1.000  C
  C42      1.0000 0.39140  0.59090  0.51360  Biso   1.000  C
  C43      1.0000 0.89140  0.90910  0.01360  Biso   1.000  C
  C44      1.0000 0.60860  0.40910  0.48640  Biso   1.000  C
  H13      1.0000 0.11110  0.04680  0.96890  Biso   1.000  H
  H14      1.0000 0.38890  0.54680  0.53110  Biso   1.000  H
  H15      1.0000 0.88890  0.95320  0.03110  Biso   1.000  H
  H16      1.0000 0.61110  0.45320  0.46890  Biso   1.000  H
  C45      1.0000 0.19240  0.13170  0.99320  Biso   1.000  C
  C46      1.0000 0.30760  0.63170  0.50680  Biso   1.000  C
  C47      1.0000 0.80760  0.86830  0.00680  Biso   1.000  C
  C48      1.0000 0.69240  0.36830  0.49320  Biso   1.000  C
  H17      1.0000 0.25320  0.11520  0.98090  Biso   1.000  H
  H18      1.0000 0.24680  0.61520  0.51910  Biso   1.000  H
  H19      1.0000 0.74680  0.88480  0.01910  Biso   1.000  H
  H20      1.0000 0.75320  0.38480  0.48090  Biso   1.000  H
  C49      1.0000 0.18960  0.19600  0.01770  Biso   1.000  C
  C50      1.0000 0.31040  0.69600  0.48230  Biso   1.000  C
  C51      1.0000 0.81040  0.80400  0.98230  Biso   1.000  C
  C52      1.0000 0.68960  0.30400  0.51770  Biso   1.000  C
  H21      1.0000 0.24630  0.22440  0.01970  Biso   1.000  H
  H22      1.0000 0.25370  0.72440  0.48030  Biso   1.000  H
  H23      1.0000 0.75370  0.77560  0.98030  Biso   1.000  H
  H24      1.0000 0.74630  0.27560  0.51970  Biso   1.000  H
  C53      1.0000 0.09890  0.21880  0.04010  Biso   1.000  C
  C54      1.0000 0.40110  0.71880  0.45990  Biso   1.000  C
  C55      1.0000 0.90110  0.78120  0.95990  Biso   1.000  C
  C56      1.0000 0.59890  0.28120  0.54010  Biso   1.000  C
  F13      1.0000 0.09650  0.28310  0.06390  Biso   1.000  F
  F14      1.0000 0.40350  0.78310  0.43610  Biso   1.000  F
  F15      1.0000 0.90350  0.71690  0.93610  Biso   1.000  F
  F16      1.0000 0.59650  0.21690  0.56390  Biso   1.000  F
  O17      1.0000 0.67390  0.30572  0.19410  Biso   1.000  O
  O18      1.0000 0.82610  0.80572  0.30590  Biso   1.000  O
  O19      1.0000 0.32610  0.69428  0.80590  Biso   1.000  O
  O20      1.0000 0.17390  0.19428  0.69410  Biso   1.000  O
  C57      1.0000 0.59070  0.27400  0.15090  Biso   1.000  C
  C58      1.0000 0.90930  0.77400  0.34910  Biso   1.000  C
  C59      1.0000 0.40930  0.72600  0.84910  Biso   1.000  C
  C60      1.0000 0.09070  0.22600  0.65090  Biso   1.000  C
  O21      1.0000 0.57550  0.23955  0.07484  Biso   1.000  O
  O22      1.0000 0.92450  0.73955  0.42516  Biso   1.000  O
  O23      1.0000 0.42450  0.76045  0.92516  Biso   1.000  O
  O24      1.0000 0.07550  0.26045  0.57484  Biso   1.000  O
  C61      1.0000 0.50070  0.27410  0.19380  Biso   1.000  C
  C62      1.0000 0.99930  0.77410  0.30620  Biso   1.000  C
  C63      1.0000 0.49930  0.72590  0.80620  Biso   1.000  C
  C64      1.0000 0.00070  0.22590  0.69380  Biso   1.000  C
  C65      1.0000 0.45730  0.21650  0.21490  Biso   1.000  C
  C66      1.0000 0.04270  0.71650  0.28510  Biso   1.000  C
  C67      1.0000 0.54270  0.78350  0.78510  Biso   1.000  C
  C68      1.0000 0.95730  0.28350  0.71490  Biso   1.000  C
  C69      1.0000 0.37920  0.21390  0.25760  Biso   1.000  C
  C70      1.0000 0.12080  0.71390  0.24240  Biso   1.000  C
  C71      1.0000 0.62080  0.78610  0.74240  Biso   1.000  C
  C72      1.0000 0.87920  0.28610  0.75760  Biso   1.000  C
  H25      1.0000 0.35400  0.17320  0.27130  Biso   1.000  H
  H26      1.0000 0.14600  0.67320  0.22870  Biso   1.000  H
  H27      1.0000 0.64600  0.82680  0.72870  Biso   1.000  H
  H28      1.0000 0.85400  0.32680  0.77130  Biso   1.000  H
  C73      1.0000 0.33830  0.27000  0.28010  Biso   1.000  C
  C74      1.0000 0.16170  0.77000  0.21990  Biso   1.000  C
  C75      1.0000 0.66170  0.73000  0.71990  Biso   1.000  C
  C76      1.0000 0.83830  0.23000  0.78010  Biso   1.000  C
  H29      1.0000 0.28360  0.26860  0.30820  Biso   1.000  H
  H30      1.0000 0.21640  0.76860  0.19180  Biso   1.000  H
  H31      1.0000 0.71640  0.73140  0.69180  Biso   1.000  H
  H32      1.0000 0.78360  0.23140  0.80820  Biso   1.000  H
  C77      1.0000 0.37650  0.32770  0.26210  Biso   1.000  C
  C78      1.0000 0.12350  0.82770  0.23790  Biso   1.000  C
  C79      1.0000 0.62350  0.67230  0.73790  Biso   1.000  C
  C80      1.0000 0.87650  0.17230  0.76210  Biso   1.000  C
  H33      1.0000 0.34930  0.36690  0.27840  Biso   1.000  H
  H34      1.0000 0.15070  0.86690  0.22160  Biso   1.000  H
  H35      1.0000 0.65070  0.63310  0.72160  Biso   1.000  H
  H36      1.0000 0.84930  0.13310  0.77840  Biso   1.000  H
  C81      1.0000 0.45540  0.32920  0.21980  Biso   1.000  C
  C82      1.0000 0.04460  0.82920  0.28020  Biso   1.000  C
  C83      1.0000 0.54460  0.67080  0.78020  Biso   1.000  C
  C84      1.0000 0.95540  0.17080  0.71980  Biso   1.000  C
  O25      1.0000 0.82850  0.21164  0.25490  Biso   1.000  O
  O26      1.0000 0.67150  0.71164  0.24510  Biso   1.000  O
  O27      1.0000 0.17150  0.78836  0.74510  Biso   1.000  O
  O28      1.0000 0.32850  0.28836  0.75490  Biso   1.000  O
  C85      1.0000 0.78390  0.15707  0.22710  Biso   1.000  C
  C86      1.0000 0.71610  0.65707  0.27290  Biso   1.000  C
  C87      1.0000 0.21610  0.84293  0.77290  Biso   1.000  C
  C88      1.0000 0.28390  0.34293  0.72710  Biso   1.000  C
  O29      1.0000 0.72670  0.14165  0.14296  Biso   1.000  O
  O30      1.0000 0.77330  0.64165  0.35704  Biso   1.000  O
  O31      1.0000 0.27330  0.85835  0.85704  Biso   1.000  O
  O32      1.0000 0.22670  0.35835  0.64296  Biso   1.000  O
  C89      1.0000 0.80070  0.10550  0.30510  Biso   1.000  C
  C90      1.0000 0.69930  0.60550  0.19490  Biso   1.000  C
  C91      1.0000 0.19930  0.89450  0.69490  Biso   1.000  C
  C92      1.0000 0.30070  0.39450  0.80510  Biso   1.000  C
  C93      1.0000 0.83190  0.04190  0.29400  Biso   1.000  C
  C94      1.0000 0.66810  0.54190  0.20600  Biso   1.000  C
  C95      1.0000 0.16810  0.95810  0.70600  Biso   1.000  C
  C96      1.0000 0.33190  0.45810  0.79400  Biso   1.000  C
  F17      1.0000 0.84640  0.02582  0.21040  Biso   1.000  F
  F18      1.0000 0.65360  0.52582  0.28960  Biso   1.000  F
  F19      1.0000 0.15360  0.97418  0.78960  Biso   1.000  F
  F20      1.0000 0.34640  0.47418  0.71040  Biso   1.000  F
  C97      1.0000 0.86390  0.99090  0.35120  Biso   1.000  C
  C98      1.0000 0.63610  0.49090  0.14880  Biso   1.000  C
  C99      1.0000 0.13610  0.00910  0.64880  Biso   1.000  C
  C100     1.0000 0.36390  0.50910  0.85120  Biso   1.000  C
  H37      1.0000 0.88270  0.95000  0.33220  Biso   1.000  H
  H38      1.0000 0.61730  0.45000  0.16780  Biso   1.000  H
  H39      1.0000 0.11730  0.05000  0.66780  Biso   1.000  H
  H40      1.0000 0.38270  0.55000  0.83220  Biso   1.000  H
  C101     1.0000 0.86540  0.00810  0.44820  Biso   1.000  C
  C102     1.0000 0.63460  0.50810  0.05180  Biso   1.000  C
  C103     1.0000 0.13460  0.99190  0.55180  Biso   1.000  C
  C104     1.0000 0.36540  0.49190  0.94820  Biso   1.000  C
  H41      1.0000 0.88450  0.97540  0.49600  Biso   1.000  H
  H42      1.0000 0.61550  0.47540  0.00400  Biso   1.000  H
  H43      1.0000 0.11550  0.02460  0.50400  Biso   1.000  H
  H44      1.0000 0.38450  0.52460  0.99600  Biso   1.000  H
  C105     1.0000 0.84070  0.06950  0.47530  Biso   1.000  C
  C106     1.0000 0.65930  0.56950  0.02470  Biso   1.000  C
  C107     1.0000 0.15930  0.93050  0.52470  Biso   1.000  C
  C108     1.0000 0.34070  0.43050  0.97530  Biso   1.000  C
  H45      1.0000 0.83840  0.07850  0.53790  Biso   1.000  H
  H46      1.0000 0.66160  0.57850  0.96210  Biso   1.000  H
  H47      1.0000 0.16160  0.92150  0.46210  Biso   1.000  H
  H48      1.0000 0.33840  0.42150  0.03790  Biso   1.000  H
  C109     1.0000 0.81890  0.11790  0.40090  Biso   1.000  C
  C110     1.0000 0.68110  0.61790  0.09910  Biso   1.000  C
  C111     1.0000 0.18110  0.88210  0.59910  Biso   1.000  C
  C112     1.0000 0.31890  0.38210  0.90090  Biso   1.000  C
  F21      1.0000 0.79470  0.18030  0.42380  Biso   1.000  F
  F22      1.0000 0.70530  0.68030  0.07620  Biso   1.000  F
  F23      1.0000 0.20530  0.81970  0.57620  Biso   1.000  F
  F24      1.0000 0.29470  0.31970  0.92380  Biso   1.000  F
  N1       1.0000 0.58020  0.14315  0.92102  Biso   1.000  N
  N2       1.0000 0.91980  0.64315  0.57898  Biso   1.000  N
  N3       1.0000 0.41980  0.85685  0.07898  Biso   1.000  N
  N4       1.0000 0.08020  0.35685  0.42102  Biso   1.000  N
  C113     1.0000 0.63320  0.09934  0.86820  Biso   1.000  C
  C114     1.0000 0.86680  0.59934  0.63180  Biso   1.000  C
  C115     1.0000 0.36680  0.90066  0.13180  Biso   1.000  C
  C116     1.0000 0.13320  0.40066  0.36820  Biso   1.000  C
  H49      1.0000 0.67320  0.12610  0.83590  Biso   1.000  H
  H50      1.0000 0.82680  0.62610  0.66410  Biso   1.000  H
  H51      1.0000 0.32680  0.87390  0.16410  Biso   1.000  H
  H52      1.0000 0.17320  0.37390  0.33590  Biso   1.000  H
  H53      1.0000 0.68440  0.07100  0.91510  Biso   1.000  H
  H54      1.0000 0.81560  0.57100  0.58490  Biso   1.000  H
  H55      1.0000 0.31560  0.92900  0.08490  Biso   1.000  H
  H56      1.0000 0.18440  0.42900  0.41510  Biso   1.000  H
  N5       1.0000 0.55540  0.05837  0.79540  Biso   1.000  N
  N6       1.0000 0.94460  0.55837  0.70460  Biso   1.000  N
  N7       1.0000 0.44460  0.94163  0.20460  Biso   1.000  N
  N8       1.0000 0.05540  0.44163  0.29540  Biso   1.000  N
  C117     1.0000 0.49380  0.01888  0.84510  Biso   1.000  C
  C118     1.0000 0.00620  0.51888  0.65490  Biso   1.000  C
  C119     1.0000 0.50620  0.98112  0.15490  Biso   1.000  C
  C120     1.0000 0.99380  0.48112  0.34510  Biso   1.000  C
  H57      1.0000 0.44150  0.99180  0.79710  Biso   1.000  H
  H58      1.0000 0.05850  0.49180  0.70290  Biso   1.000  H
  H59      1.0000 0.55850  0.00820  0.20290  Biso   1.000  H
  H60      1.0000 0.94150  0.50820  0.29710  Biso   1.000  H
  H61      1.0000 0.54300  0.98950  0.89200  Biso   1.000  H
  H62      1.0000 0.95700  0.48950  0.60800  Biso   1.000  H
  H63      1.0000 0.45700  0.01050  0.10800  Biso   1.000  H
  H64      1.0000 0.04300  0.51050  0.39200  Biso   1.000  H
  N9       1.0000 0.43760  0.06010  0.89600  Biso   1.000  N
  N10      1.0000 0.06240  0.56010  0.60400  Biso   1.000  N
  N11      1.0000 0.56240  0.93990  0.10400  Biso   1.000  N
  N12      1.0000 0.93760  0.43990  0.39600  Biso   1.000  N
  C121     1.0000 0.51790  0.10028  0.96770  Biso   1.000  C
  C122     1.0000 0.98210  0.60028  0.53230  Biso   1.000  C
  C123     1.0000 0.48210  0.89972  0.03230  Biso   1.000  C
  C124     1.0000 0.01790  0.39972  0.46770  Biso   1.000  C
  H65      1.0000 0.56750  0.07150  0.01510  Biso   1.000  H
  H66      1.0000 0.93250  0.57150  0.48490  Biso   1.000  H
  H67      1.0000 0.43250  0.92850  0.98490  Biso   1.000  H
  H68      1.0000 0.06750  0.42850  0.51510  Biso   1.000  H
  H69      1.0000 0.48180  0.12790  0.00260  Biso   1.000  H
  H70      1.0000 0.01820  0.62790  0.49740  Biso   1.000  H
  H71      1.0000 0.51820  0.87210  0.99740  Biso   1.000  H
  H72      1.0000 0.98180  0.37210  0.50260  Biso   1.000  H
  C125     1.0000 0.50360  0.18553  0.84840  Biso   1.000  C
  C126     1.0000 0.99640  0.68553  0.65160  Biso   1.000  C
  C127     1.0000 0.49640  0.81447  0.15160  Biso   1.000  C
  C128     1.0000 0.00360  0.31447  0.34840  Biso   1.000  C
  H73      1.0000 0.54300  0.21310  0.81660  Biso   1.000  H
  H74      1.0000 0.95700  0.71310  0.68340  Biso   1.000  H
  H75      1.0000 0.45700  0.78690  0.18340  Biso   1.000  H
  H76      1.0000 0.04300  0.28690  0.31660  Biso   1.000  H
  H77      1.0000 0.46730  0.21430  0.88150  Biso   1.000  H
  H78      1.0000 0.03270  0.71430  0.61850  Biso   1.000  H
  H79      1.0000 0.53270  0.78570  0.11850  Biso   1.000  H
  H80      1.0000 0.96730  0.28570  0.38150  Biso   1.000  H
  N13      1.0000 0.42190  0.14643  0.77322  Biso   1.000  N
  N14      1.0000 0.07810  0.64643  0.72678  Biso   1.000  N
  N15      1.0000 0.57810  0.85357  0.22678  Biso   1.000  N
  N16      1.0000 0.92190  0.35357  0.27322  Biso   1.000  N
  C129     1.0000 0.47990  0.10225  0.72460  Biso   1.000  C
  C130     1.0000 0.02010  0.60225  0.77540  Biso   1.000  C
  C131     1.0000 0.52010  0.89775  0.27540  Biso   1.000  C
  C132     1.0000 0.97990  0.39775  0.22460  Biso   1.000  C
  H81      1.0000 0.42780  0.07580  0.67540  Biso   1.000  H
  H82      1.0000 0.07220  0.57580  0.82460  Biso   1.000  H
  H83      1.0000 0.57220  0.92420  0.32460  Biso   1.000  H
  H84      1.0000 0.92780  0.42420  0.17540  Biso   1.000  H
  H85      1.0000 0.51950  0.12890  0.69180  Biso   1.000  H
  H86      1.0000 0.98050  0.62890  0.80820  Biso   1.000  H
  H87      1.0000 0.48050  0.87110  0.30820  Biso   1.000  H
  H88      1.0000 0.01950  0.37110  0.19180  Biso   1.000  H
  C133     1.0000 0.36440  0.10398  0.82460  Biso   1.000  C
  C134     1.0000 0.13560  0.60398  0.67540  Biso   1.000  C
  C135     1.0000 0.63560  0.89602  0.17540  Biso   1.000  C
  C136     1.0000 0.86440  0.39602  0.32460  Biso   1.000  C
  H89      1.0000 0.32680  0.13190  0.85780  Biso   1.000  H
  H90      1.0000 0.17320  0.63190  0.64220  Biso   1.000  H
  H91      1.0000 0.67320  0.86810  0.14220  Biso   1.000  H
  H92      1.0000 0.82680  0.36810  0.35780  Biso   1.000  H
  H93      1.0000 0.31060  0.07770  0.77660  Biso   1.000  H
  H94      1.0000 0.18940  0.57770  0.72340  Biso   1.000  H
  H95      1.0000 0.68940  0.92230  0.22340  Biso   1.000  H
  H96      1.0000 0.81060  0.42230  0.27660  Biso   1.000  H
  F25      1.0000 0.47130  0.38740  0.17340  Biso   1.000  F
  F26      1.0000 0.02870  0.88740  0.32660  Biso   1.000  F
  F27      1.0000 0.52870  0.61260  0.82660  Biso   1.000  F
  F28      1.0000 0.97130  0.11260  0.67340  Biso   1.000  F
  F29      1.0000 0.47260  0.15900  0.16820  Biso   1.000  F
  F30      1.0000 0.02740  0.65900  0.33180  Biso   1.000  F
  F31      1.0000 0.52740  0.84100  0.83180  Biso   1.000  F
  F32      1.0000 0.97260  0.34100  0.66820  Biso   1.000  F
  C137     1.0000 0.84070  0.99820  0.38250  Biso   1.000  C
  C138     1.0000 0.65930  0.49820  0.11750  Biso   1.000  C
  C139     1.0000 0.15930  0.00180  0.61750  Biso   1.000  C
  C140     1.0000 0.34070  0.50180  0.88250  Biso   1.000  C
  H97      1.0000 0.87130  0.95640  0.38630  Biso   1.000  H
  H98      1.0000 0.62870  0.45640  0.11370  Biso   1.000  H
  H99      1.0000 0.12870  0.04360  0.61370  Biso   1.000  H
  H100     1.0000 0.37130  0.54360  0.88630  Biso   1.000  H
  C141     1.0000 0.80690  0.01810  0.45150  Biso   1.000  C
  C142     1.0000 0.69310  0.51810  0.04850  Biso   1.000  C
  C143     1.0000 0.19310  0.98190  0.54850  Biso   1.000  C
  C144     1.0000 0.30690  0.48190  0.95150  Biso   1.000  C
  H101     1.0000 0.81350  0.98800  0.50190  Biso   1.000  H
  H102     1.0000 0.68650  0.48800  0.99810  Biso   1.000  H
  H103     1.0000 0.18650  0.01200  0.49810  Biso   1.000  H
  H104     1.0000 0.31350  0.51200  0.00190  Biso   1.000  H
  C145     1.0000 0.76290  0.07700  0.46100  Biso   1.000  C
  C146     1.0000 0.73710  0.57700  0.03900  Biso   1.000  C
  C147     1.0000 0.23710  0.92300  0.53900  Biso   1.000  C
  C148     1.0000 0.26290  0.42300  0.96100  Biso   1.000  C
  H105     1.0000 0.73970  0.08710  0.51390  Biso   1.000  H
  H106     1.0000 0.76030  0.58710  0.98610  Biso   1.000  H
  H107     1.0000 0.26030  0.91290  0.48610  Biso   1.000  H
  H108     1.0000 0.23970  0.41290  0.01390  Biso   1.000  H
  C149     1.0000 0.75510  0.12130  0.38510  Biso   1.000  C
  C150     1.0000 0.74490  0.62130  0.11490  Biso   1.000  C
  C151     1.0000 0.24490  0.87870  0.61490  Biso   1.000  C
  C152     1.0000 0.25510  0.37870  0.88510  Biso   1.000  C
  F33      1.0000 0.71190  0.18020  0.38800  Biso   1.000  F
  F34      1.0000 0.78810  0.68020  0.11200  Biso   1.000  F
  F35      1.0000 0.28810  0.81980  0.61200  Biso   1.000  F
  F36      1.0000 0.21190  0.31980  0.88800  Biso   1.000  F
  F37      1.0000 0.51280  0.38700  0.22470  Biso   1.000  F
  F38      1.0000 0.98720  0.88700  0.27530  Biso   1.000  F
  F39      1.0000 0.48720  0.61300  0.77530  Biso   1.000  F
  F40      1.0000 0.01280  0.11300  0.72470  Biso   1.000  F
  F41      1.0000 0.52270  0.15980  0.21940  Biso   1.000  F
  F42      1.0000 0.97730  0.65980  0.28060  Biso   1.000  F
  F43      1.0000 0.47730  0.84020  0.78060  Biso   1.000  F
  F44      1.0000 0.02270  0.34020  0.71940  Biso   1.000  F
