data_image0
_cell_length_a       10.02
_cell_length_b       12.065
_cell_length_c       16.589
_cell_angle_alpha    90
_cell_angle_beta     90
_cell_angle_gamma    90

_symmetry_space_group_name_H-M    "P 1"
_symmetry_int_tables_number       1

loop_
  _symmetry_equiv_pos_as_xyz
  'x, y, z'

loop_
  _atom_site_label
  _atom_site_occupancy
  _atom_site_fract_x
  _atom_site_fract_y
  _atom_site_fract_z
  _atom_site_thermal_displace_type
  _atom_site_B_iso_or_equiv
  _atom_site_type_symbol
  Cu1      1.0000 0.99520  0.12933  0.22359  Biso   1.000  Cu
  Cu2      1.0000 0.50480  0.62933  0.72359  Biso   1.000  Cu
  Cu3      1.0000 0.49520  0.87067  0.22359  Biso   1.000  Cu
  Cu4      1.0000 0.00480  0.37067  0.72359  Biso   1.000  Cu
  Cu5      1.0000 0.00480  0.87067  0.77641  Biso   1.000  Cu
  Cu6      1.0000 0.49520  0.37067  0.27641  Biso   1.000  Cu
  Cu7      1.0000 0.50480  0.12933  0.77641  Biso   1.000  Cu
  Cu8      1.0000 0.99520  0.62933  0.27641  Biso   1.000  Cu
  N1       1.0000 0.90650  0.16200  0.11290  Biso   1.000  N
  N2       1.0000 0.59350  0.66200  0.61290  Biso   1.000  N
  N3       1.0000 0.40650  0.83800  0.11290  Biso   1.000  N
  N4       1.0000 0.09350  0.33800  0.61290  Biso   1.000  N
  N5       1.0000 0.09350  0.83800  0.88710  Biso   1.000  N
  N6       1.0000 0.40650  0.33800  0.38710  Biso   1.000  N
  N7       1.0000 0.59350  0.16200  0.88710  Biso   1.000  N
  N8       1.0000 0.90650  0.66200  0.38710  Biso   1.000  N
  O1       1.0000 0.16140  0.36860  0.09660  Biso   1.000  O
  O2       1.0000 0.33860  0.86860  0.59660  Biso   1.000  O
  O3       1.0000 0.66140  0.63140  0.09660  Biso   1.000  O
  O4       1.0000 0.83860  0.13140  0.59660  Biso   1.000  O
  O5       1.0000 0.83860  0.63140  0.90340  Biso   1.000  O
  O6       1.0000 0.66140  0.13140  0.40340  Biso   1.000  O
  O7       1.0000 0.33860  0.36860  0.90340  Biso   1.000  O
  O8       1.0000 0.16140  0.86860  0.40340  Biso   1.000  O
  O9       1.0000 0.13810  0.22140  0.17870  Biso   1.000  O
  O10      1.0000 0.36190  0.72140  0.67870  Biso   1.000  O
  O11      1.0000 0.63810  0.77860  0.17870  Biso   1.000  O
  O12      1.0000 0.86190  0.27860  0.67870  Biso   1.000  O
  O13      1.0000 0.86190  0.77860  0.82130  Biso   1.000  O
  O14      1.0000 0.63810  0.27860  0.32130  Biso   1.000  O
  O15      1.0000 0.36190  0.22140  0.82130  Biso   1.000  O
  O16      1.0000 0.13810  0.72140  0.32130  Biso   1.000  O
  O17      1.0000 0.83010  0.04820  0.24390  Biso   1.000  O
  O18      1.0000 0.66990  0.54820  0.74390  Biso   1.000  O
  O19      1.0000 0.33010  0.95180  0.24390  Biso   1.000  O
  O20      1.0000 0.16990  0.45180  0.74390  Biso   1.000  O
  O21      1.0000 0.16990  0.95180  0.75610  Biso   1.000  O
  O22      1.0000 0.33010  0.45180  0.25610  Biso   1.000  O
  O23      1.0000 0.66990  0.04820  0.75610  Biso   1.000  O
  O24      1.0000 0.83010  0.54820  0.25610  Biso   1.000  O
  O25      1.0000 0.61490  0.04530  0.20610  Biso   1.000  O
  O26      1.0000 0.88510  0.54530  0.70610  Biso   1.000  O
  O27      1.0000 0.11490  0.95470  0.20610  Biso   1.000  O
  O28      1.0000 0.38510  0.45470  0.70610  Biso   1.000  O
  O29      1.0000 0.38510  0.95470  0.79390  Biso   1.000  O
  O30      1.0000 0.11490  0.45470  0.29390  Biso   1.000  O
  O31      1.0000 0.88510  0.04530  0.79390  Biso   1.000  O
  O32      1.0000 0.61490  0.54530  0.29390  Biso   1.000  O
  C1       1.0000 0.89790  0.97550  0.05320  Biso   1.000  C
  C2       1.0000 0.60210  0.47550  0.55320  Biso   1.000  C
  C3       1.0000 0.39790  0.02450  0.05320  Biso   1.000  C
  C4       1.0000 0.10210  0.52450  0.55320  Biso   1.000  C
  C5       1.0000 0.10210  0.02450  0.94680  Biso   1.000  C
  C6       1.0000 0.39790  0.52450  0.44680  Biso   1.000  C
  C7       1.0000 0.60210  0.97550  0.94680  Biso   1.000  C
  C8       1.0000 0.89790  0.47550  0.44680  Biso   1.000  C
  C9       1.0000 0.05670  0.10440  0.00030  Biso   1.000  C
  C10      1.0000 0.44330  0.60440  0.50030  Biso   1.000  C
  C11      1.0000 0.55670  0.89560  0.00030  Biso   1.000  C
  C12      1.0000 0.94330  0.39560  0.50030  Biso   1.000  C
  C13      1.0000 0.94330  0.89560  0.99970  Biso   1.000  C
  C14      1.0000 0.55670  0.39560  0.49970  Biso   1.000  C
  C15      1.0000 0.44330  0.10440  0.99970  Biso   1.000  C
  C16      1.0000 0.05670  0.60440  0.49970  Biso   1.000  C
  C17      1.0000 0.95240  0.08090  0.05460  Biso   1.000  C
  C18      1.0000 0.54760  0.58090  0.55460  Biso   1.000  C
  C19      1.0000 0.45240  0.91910  0.05460  Biso   1.000  C
  C20      1.0000 0.04760  0.41910  0.55460  Biso   1.000  C
  C21      1.0000 0.04760  0.91910  0.94540  Biso   1.000  C
  C22      1.0000 0.45240  0.41910  0.44540  Biso   1.000  C
  C23      1.0000 0.54760  0.08090  0.94540  Biso   1.000  C
  C24      1.0000 0.95240  0.58090  0.44540  Biso   1.000  C
  C25      1.0000 0.95290  0.27710  0.09640  Biso   1.000  C
  C26      1.0000 0.54710  0.77710  0.59640  Biso   1.000  C
  C27      1.0000 0.45290  0.72290  0.09640  Biso   1.000  C
  C28      1.0000 0.04710  0.22290  0.59640  Biso   1.000  C
  C29      1.0000 0.04710  0.72290  0.90360  Biso   1.000  C
  C30      1.0000 0.45290  0.22290  0.40360  Biso   1.000  C
  C31      1.0000 0.54710  0.27710  0.90360  Biso   1.000  C
  C32      1.0000 0.95290  0.77710  0.40360  Biso   1.000  C
  C33      1.0000 0.09810  0.29100  0.12550  Biso   1.000  C
  C34      1.0000 0.40190  0.79100  0.62550  Biso   1.000  C
  C35      1.0000 0.59810  0.70900  0.12550  Biso   1.000  C
  C36      1.0000 0.90190  0.20900  0.62550  Biso   1.000  C
  C37      1.0000 0.90190  0.70900  0.87450  Biso   1.000  C
  C38      1.0000 0.59810  0.20900  0.37450  Biso   1.000  C
  C39      1.0000 0.40190  0.29100  0.87450  Biso   1.000  C
  C40      1.0000 0.09810  0.79100  0.37450  Biso   1.000  C
  C41      1.0000 0.73270  0.07560  0.19810  Biso   1.000  C
  C42      1.0000 0.76730  0.57560  0.69810  Biso   1.000  C
  C43      1.0000 0.23270  0.92440  0.19810  Biso   1.000  C
  C44      1.0000 0.26730  0.42440  0.69810  Biso   1.000  C
  C45      1.0000 0.26730  0.92440  0.80190  Biso   1.000  C
  C46      1.0000 0.23270  0.42440  0.30190  Biso   1.000  C
  C47      1.0000 0.76730  0.07560  0.80190  Biso   1.000  C
  C48      1.0000 0.73270  0.57560  0.30190  Biso   1.000  C
  C49      1.0000 0.76070  0.15510  0.12980  Biso   1.000  C
  C50      1.0000 0.73930  0.65510  0.62980  Biso   1.000  C
  C51      1.0000 0.26070  0.84490  0.12980  Biso   1.000  C
  C52      1.0000 0.23930  0.34490  0.62980  Biso   1.000  C
  C53      1.0000 0.23930  0.84490  0.87020  Biso   1.000  C
  C54      1.0000 0.26070  0.34490  0.37020  Biso   1.000  C
  C55      1.0000 0.73930  0.15510  0.87020  Biso   1.000  C
  C56      1.0000 0.76070  0.65510  0.37020  Biso   1.000  C
  O33      1.0000 0.09110  0.10180  0.32790  Biso   1.000  O
  O34      1.0000 0.40890  0.60180  0.82790  Biso   1.000  O
  O35      1.0000 0.59110  0.89820  0.32790  Biso   1.000  O
  O36      1.0000 0.90890  0.39820  0.82790  Biso   1.000  O
  O37      1.0000 0.90890  0.89820  0.67210  Biso   1.000  O
  O38      1.0000 0.59110  0.39820  0.17210  Biso   1.000  O
  O39      1.0000 0.40890  0.10180  0.67210  Biso   1.000  O
  O40      1.0000 0.09110  0.60180  0.17210  Biso   1.000  O
  O41      1.0000 0.90670  0.28440  0.28370  Biso   1.000  O
  O42      1.0000 0.59330  0.78440  0.78370  Biso   1.000  O
  O43      1.0000 0.40670  0.71560  0.28370  Biso   1.000  O
  O44      1.0000 0.09330  0.21560  0.78370  Biso   1.000  O
  O45      1.0000 0.09330  0.71560  0.71630  Biso   1.000  O
  O46      1.0000 0.40670  0.21560  0.21630  Biso   1.000  O
  O47      1.0000 0.59330  0.28440  0.71630  Biso   1.000  O
  O48      1.0000 0.90670  0.78440  0.21630  Biso   1.000  O
  O49      1.0000 0.40700  0.44770  0.06180  Biso   1.000  O
  O50      1.0000 0.09300  0.94770  0.56180  Biso   1.000  O
  O51      1.0000 0.90700  0.55230  0.06180  Biso   1.000  O
  O52      1.0000 0.59300  0.05230  0.56180  Biso   1.000  O
  O53      1.0000 0.59300  0.55230  0.93820  Biso   1.000  O
  O54      1.0000 0.90700  0.05230  0.43820  Biso   1.000  O
  O55      1.0000 0.09300  0.44770  0.93820  Biso   1.000  O
  O56      1.0000 0.40700  0.94770  0.43820  Biso   1.000  O
  H1       1.0000 0.10200  0.17500  0.00100  Biso   1.000  H
  H2       1.0000 0.39800  0.67500  0.50100  Biso   1.000  H
  H3       1.0000 0.60200  0.82500  0.00100  Biso   1.000  H
  H4       1.0000 0.89800  0.32500  0.50100  Biso   1.000  H
  H5       1.0000 0.89800  0.82500  0.99900  Biso   1.000  H
  H6       1.0000 0.60200  0.32500  0.49900  Biso   1.000  H
  H7       1.0000 0.39800  0.17500  0.99900  Biso   1.000  H
  H8       1.0000 0.10200  0.67500  0.49900  Biso   1.000  H
  H9       1.0000 0.83700  0.95400  0.09400  Biso   1.000  H
  H10      1.0000 0.66300  0.45400  0.59400  Biso   1.000  H
  H11      1.0000 0.33700  0.04600  0.09400  Biso   1.000  H
  H12      1.0000 0.16300  0.54600  0.59400  Biso   1.000  H
  H13      1.0000 0.16300  0.04600  0.90600  Biso   1.000  H
  H14      1.0000 0.33700  0.54600  0.40600  Biso   1.000  H
  H15      1.0000 0.66300  0.95400  0.90600  Biso   1.000  H
  H16      1.0000 0.83700  0.45400  0.40600  Biso   1.000  H
  H17      1.0000 0.89700  0.33200  0.12900  Biso   1.000  H
  H18      1.0000 0.60300  0.83200  0.62900  Biso   1.000  H
  H19      1.0000 0.39700  0.66800  0.12900  Biso   1.000  H
  H20      1.0000 0.10300  0.16800  0.62900  Biso   1.000  H
  H21      1.0000 0.10300  0.66800  0.87100  Biso   1.000  H
  H22      1.0000 0.39700  0.16800  0.37100  Biso   1.000  H
  H23      1.0000 0.60300  0.33200  0.87100  Biso   1.000  H
  H24      1.0000 0.89700  0.83200  0.37100  Biso   1.000  H
  H25      1.0000 0.94300  0.29500  0.03900  Biso   1.000  H
  H26      1.0000 0.55700  0.79500  0.53900  Biso   1.000  H
  H27      1.0000 0.44300  0.70500  0.03900  Biso   1.000  H
  H28      1.0000 0.05700  0.20500  0.53900  Biso   1.000  H
  H29      1.0000 0.05700  0.70500  0.96100  Biso   1.000  H
  H30      1.0000 0.44300  0.20500  0.46100  Biso   1.000  H
  H31      1.0000 0.55700  0.29500  0.96100  Biso   1.000  H
  H32      1.0000 0.94300  0.79500  0.46100  Biso   1.000  H
  H33      1.0000 0.71900  0.13000  0.07900  Biso   1.000  H
  H34      1.0000 0.78100  0.63000  0.57900  Biso   1.000  H
  H35      1.0000 0.21900  0.87000  0.07900  Biso   1.000  H
  H36      1.0000 0.28100  0.37000  0.57900  Biso   1.000  H
  H37      1.0000 0.28100  0.87000  0.92100  Biso   1.000  H
  H38      1.0000 0.21900  0.37000  0.42100  Biso   1.000  H
  H39      1.0000 0.78100  0.13000  0.92100  Biso   1.000  H
  H40      1.0000 0.71900  0.63000  0.42100  Biso   1.000  H
  H41      1.0000 0.72700  0.22300  0.15000  Biso   1.000  H
  H42      1.0000 0.77300  0.72300  0.65000  Biso   1.000  H
  H43      1.0000 0.22700  0.77700  0.15000  Biso   1.000  H
  H44      1.0000 0.27300  0.27700  0.65000  Biso   1.000  H
  H45      1.0000 0.27300  0.77700  0.85000  Biso   1.000  H
  H46      1.0000 0.22700  0.27700  0.35000  Biso   1.000  H
  H47      1.0000 0.77300  0.22300  0.85000  Biso   1.000  H
  H48      1.0000 0.72700  0.72300  0.35000  Biso   1.000  H
