data_image0
_cell_length_a       20.8272
_cell_length_b       13.4041
_cell_length_c       8.1916
_cell_angle_alpha    90
_cell_angle_beta     90
_cell_angle_gamma    90

_symmetry_space_group_name_H-M    "P 1"
_symmetry_int_tables_number       1

loop_
  _symmetry_equiv_pos_as_xyz
  'x, y, z'

loop_
  _atom_site_label
  _atom_site_occupancy
  _atom_site_fract_x
  _atom_site_fract_y
  _atom_site_fract_z
  _atom_site_thermal_displace_type
  _atom_site_B_iso_or_equiv
  _atom_site_type_symbol
  C1       1.0000 0.40113  0.14558  0.04750  Biso   1.000  C
  C2       1.0000 0.09887  0.85442  0.04750  Biso   1.000  C
  C3       1.0000 0.09887  0.64558  0.45250  Biso   1.000  C
  C4       1.0000 0.40113  0.35442  0.45250  Biso   1.000  C
  C5       1.0000 0.59887  0.85442  0.95250  Biso   1.000  C
  C6       1.0000 0.90113  0.14558  0.95250  Biso   1.000  C
  C7       1.0000 0.90113  0.35442  0.54750  Biso   1.000  C
  C8       1.0000 0.59887  0.64558  0.54750  Biso   1.000  C
  C9       1.0000 0.44148  0.06787  0.13403  Biso   1.000  C
  C10      1.0000 0.05852  0.93213  0.13403  Biso   1.000  C
  C11      1.0000 0.05852  0.56787  0.36597  Biso   1.000  C
  C12      1.0000 0.44148  0.43213  0.36597  Biso   1.000  C
  C13      1.0000 0.55852  0.93213  0.86597  Biso   1.000  C
  C14      1.0000 0.94148  0.06787  0.86597  Biso   1.000  C
  C15      1.0000 0.94148  0.43213  0.63403  Biso   1.000  C
  C16      1.0000 0.55852  0.56787  0.63403  Biso   1.000  C
  C17      1.0000 0.43325  0.96607  0.12158  Biso   1.000  C
  C18      1.0000 0.06675  0.03393  0.12158  Biso   1.000  C
  C19      1.0000 0.06675  0.46607  0.37842  Biso   1.000  C
  C20      1.0000 0.43325  0.53393  0.37842  Biso   1.000  C
  C21      1.0000 0.56675  0.03393  0.87842  Biso   1.000  C
  C22      1.0000 0.93325  0.96607  0.87842  Biso   1.000  C
  C23      1.0000 0.93325  0.53393  0.62158  Biso   1.000  C
  C24      1.0000 0.56675  0.46607  0.62158  Biso   1.000  C
  H1       1.0000 0.39980  0.93990  0.05980  Biso   1.000  H
  H2       1.0000 0.10020  0.06010  0.05980  Biso   1.000  H
  H3       1.0000 0.10020  0.43990  0.44020  Biso   1.000  H
  H4       1.0000 0.39980  0.56010  0.44020  Biso   1.000  H
  H5       1.0000 0.60020  0.06010  0.94020  Biso   1.000  H
  H6       1.0000 0.89980  0.93990  0.94020  Biso   1.000  H
  H7       1.0000 0.89980  0.56010  0.55980  Biso   1.000  H
  H8       1.0000 0.60020  0.43990  0.55980  Biso   1.000  H
  C25      1.0000 0.47556  0.90333  0.20240  Biso   1.000  C
  C26      1.0000 0.02444  0.09667  0.20240  Biso   1.000  C
  C27      1.0000 0.02444  0.40333  0.29760  Biso   1.000  C
  C28      1.0000 0.47556  0.59667  0.29760  Biso   1.000  C
  C29      1.0000 0.52444  0.09667  0.79760  Biso   1.000  C
  C30      1.0000 0.97556  0.90333  0.79760  Biso   1.000  C
  C31      1.0000 0.97556  0.59667  0.70240  Biso   1.000  C
  C32      1.0000 0.52444  0.40333  0.70240  Biso   1.000  C
  H9       1.0000 0.47090  0.83450  0.19450  Biso   1.000  H
  H10      1.0000 0.02910  0.16550  0.19450  Biso   1.000  H
  H11      1.0000 0.02910  0.33450  0.30550  Biso   1.000  H
  H12      1.0000 0.47090  0.66550  0.30550  Biso   1.000  H
  H13      1.0000 0.52910  0.16550  0.80550  Biso   1.000  H
  H14      1.0000 0.97090  0.83450  0.80550  Biso   1.000  H
  H15      1.0000 0.97090  0.66550  0.69450  Biso   1.000  H
  H16      1.0000 0.52910  0.33450  0.69450  Biso   1.000  H
  C33      1.0000 0.52523  0.94397  0.29560  Biso   1.000  C
  C34      1.0000 0.97477  0.05603  0.29560  Biso   1.000  C
  C35      1.0000 0.97477  0.44397  0.20440  Biso   1.000  C
  C36      1.0000 0.52523  0.55603  0.20440  Biso   1.000  C
  C37      1.0000 0.47477  0.05603  0.70440  Biso   1.000  C
  C38      1.0000 0.02523  0.94397  0.70440  Biso   1.000  C
  C39      1.0000 0.02523  0.55603  0.79560  Biso   1.000  C
  C40      1.0000 0.47477  0.44397  0.79560  Biso   1.000  C
  H17      1.0000 0.55430  0.90300  0.34970  Biso   1.000  H
  H18      1.0000 0.94570  0.09700  0.34970  Biso   1.000  H
  H19      1.0000 0.94570  0.40300  0.15030  Biso   1.000  H
  H20      1.0000 0.55430  0.59700  0.15030  Biso   1.000  H
  H21      1.0000 0.44570  0.09700  0.65030  Biso   1.000  H
  H22      1.0000 0.05430  0.90300  0.65030  Biso   1.000  H
  H23      1.0000 0.05430  0.59700  0.84970  Biso   1.000  H
  H24      1.0000 0.44570  0.40300  0.84970  Biso   1.000  H
  C41      1.0000 0.53017  0.04643  0.30541  Biso   1.000  C
  C42      1.0000 0.96983  0.95357  0.30541  Biso   1.000  C
  C43      1.0000 0.96983  0.54643  0.19459  Biso   1.000  C
  C44      1.0000 0.53017  0.45357  0.19459  Biso   1.000  C
  C45      1.0000 0.46983  0.95357  0.69459  Biso   1.000  C
  C46      1.0000 0.03017  0.04643  0.69459  Biso   1.000  C
  C47      1.0000 0.03017  0.45357  0.80541  Biso   1.000  C
  C48      1.0000 0.46983  0.54643  0.80541  Biso   1.000  C
  C49      1.0000 0.58004  0.10333  0.40420  Biso   1.000  C
  C50      1.0000 0.91996  0.89667  0.40420  Biso   1.000  C
  C51      1.0000 0.91996  0.60333  0.09580  Biso   1.000  C
  C52      1.0000 0.58004  0.39667  0.09580  Biso   1.000  C
  C53      1.0000 0.41996  0.89667  0.59580  Biso   1.000  C
  C54      1.0000 0.08004  0.10333  0.59580  Biso   1.000  C
  C55      1.0000 0.08004  0.39667  0.90420  Biso   1.000  C
  C56      1.0000 0.41996  0.60333  0.90420  Biso   1.000  C
  Cu1      1.0000 0.49438  0.25000  0.25000  Biso   1.000  Cu
  Cu2      1.0000 0.00562  0.75000  0.25000  Biso   1.000  Cu
  Cu3      1.0000 0.50562  0.75000  0.75000  Biso   1.000  Cu
  Cu4      1.0000 0.99438  0.25000  0.75000  Biso   1.000  Cu
  H25      1.0000 0.18250  0.10200  0.36200  Biso   1.000  H
  H26      1.0000 0.31750  0.89800  0.36200  Biso   1.000  H
  H27      1.0000 0.31750  0.60200  0.13800  Biso   1.000  H
  H28      1.0000 0.18250  0.39800  0.13800  Biso   1.000  H
  H29      1.0000 0.81750  0.89800  0.63800  Biso   1.000  H
  H30      1.0000 0.68250  0.10200  0.63800  Biso   1.000  H
  H31      1.0000 0.68250  0.39800  0.86200  Biso   1.000  H
  H32      1.0000 0.81750  0.60200  0.86200  Biso   1.000  H
  H33      1.0000 0.34500  0.43000  0.01700  Biso   1.000  H
  H34      1.0000 0.15500  0.57000  0.01700  Biso   1.000  H
  H35      1.0000 0.15500  0.93000  0.48300  Biso   1.000  H
  H36      1.0000 0.34500  0.07000  0.48300  Biso   1.000  H
  H37      1.0000 0.65500  0.57000  0.98300  Biso   1.000  H
  H38      1.0000 0.84500  0.43000  0.98300  Biso   1.000  H
  H39      1.0000 0.84500  0.07000  0.51700  Biso   1.000  H
  H40      1.0000 0.65500  0.93000  0.51700  Biso   1.000  H
  H41      1.0000 0.24850  0.12700  0.33600  Biso   1.000  H
  H42      1.0000 0.25150  0.87300  0.33600  Biso   1.000  H
  H43      1.0000 0.25150  0.62700  0.16400  Biso   1.000  H
  H44      1.0000 0.24850  0.37300  0.16400  Biso   1.000  H
  H45      1.0000 0.75150  0.87300  0.66400  Biso   1.000  H
  H46      1.0000 0.74850  0.12700  0.66400  Biso   1.000  H
  H47      1.0000 0.74850  0.37300  0.83600  Biso   1.000  H
  H48      1.0000 0.75150  0.62700  0.83600  Biso   1.000  H
  K1       1.0000 0.28485  0.25000  0.75000  Biso   1.000  K
  K2       1.0000 0.21515  0.75000  0.75000  Biso   1.000  K
  K3       1.0000 0.71515  0.75000  0.25000  Biso   1.000  K
  K4       1.0000 0.78485  0.25000  0.25000  Biso   1.000  K
  K5       1.0000 0.25000  0.00000  0.02403  Biso   1.000  K
  K6       1.0000 0.25000  0.50000  0.47597  Biso   1.000  K
  K7       1.0000 0.75000  0.00000  0.97597  Biso   1.000  K
  K8       1.0000 0.75000  0.50000  0.52403  Biso   1.000  K
  N1       1.0000 0.48905  0.10613  0.22597  Biso   1.000  N
  N2       1.0000 0.01095  0.89387  0.22597  Biso   1.000  N
  N3       1.0000 0.01095  0.60613  0.27403  Biso   1.000  N
  N4       1.0000 0.48905  0.39387  0.27403  Biso   1.000  N
  N5       1.0000 0.51095  0.89387  0.77403  Biso   1.000  N
  N6       1.0000 0.98905  0.10613  0.77403  Biso   1.000  N
  N7       1.0000 0.98905  0.39387  0.72597  Biso   1.000  N
  N8       1.0000 0.51095  0.60613  0.72597  Biso   1.000  N
  O1       1.0000 0.42134  0.23455  0.06311  Biso   1.000  O
  O2       1.0000 0.07866  0.76545  0.06311  Biso   1.000  O
  O3       1.0000 0.07866  0.73455  0.43689  Biso   1.000  O
  O4       1.0000 0.42134  0.26545  0.43689  Biso   1.000  O
  O5       1.0000 0.57866  0.76545  0.93689  Biso   1.000  O
  O6       1.0000 0.92134  0.23455  0.93689  Biso   1.000  O
  O7       1.0000 0.92134  0.26545  0.56311  Biso   1.000  O
  O8       1.0000 0.57866  0.73455  0.56311  Biso   1.000  O
  O9       1.0000 0.35401  0.11846  0.96856  Biso   1.000  O
  O10      1.0000 0.14599  0.88154  0.96856  Biso   1.000  O
  O11      1.0000 0.14599  0.61846  0.53144  Biso   1.000  O
  O12      1.0000 0.35401  0.38154  0.53144  Biso   1.000  O
  O13      1.0000 0.64599  0.88154  0.03144  Biso   1.000  O
  O14      1.0000 0.85401  0.11846  0.03144  Biso   1.000  O
  O15      1.0000 0.85401  0.38154  0.46856  Biso   1.000  O
  O16      1.0000 0.64599  0.61846  0.46856  Biso   1.000  O
  O17      1.0000 0.57203  0.19630  0.41084  Biso   1.000  O
  O18      1.0000 0.92797  0.80370  0.41084  Biso   1.000  O
  O19      1.0000 0.92797  0.69630  0.08916  Biso   1.000  O
  O20      1.0000 0.57203  0.30370  0.08916  Biso   1.000  O
  O21      1.0000 0.42797  0.80370  0.58916  Biso   1.000  O
  O22      1.0000 0.07203  0.19630  0.58916  Biso   1.000  O
  O23      1.0000 0.07203  0.30370  0.91084  Biso   1.000  O
  O24      1.0000 0.42797  0.69630  0.91084  Biso   1.000  O
  O25      1.0000 0.62387  0.05510  0.47026  Biso   1.000  O
  O26      1.0000 0.87613  0.94490  0.47026  Biso   1.000  O
  O27      1.0000 0.87613  0.55510  0.02974  Biso   1.000  O
  O28      1.0000 0.62387  0.44490  0.02974  Biso   1.000  O
  O29      1.0000 0.37613  0.94490  0.52974  Biso   1.000  O
  O30      1.0000 0.12387  0.05510  0.52974  Biso   1.000  O
  O31      1.0000 0.12387  0.44490  0.97026  Biso   1.000  O
  O32      1.0000 0.37613  0.55510  0.97026  Biso   1.000  O
  O33      1.0000 0.18607  0.19122  0.96005  Biso   1.000  O
  O34      1.0000 0.31393  0.80878  0.96005  Biso   1.000  O
  O35      1.0000 0.31393  0.69122  0.53995  Biso   1.000  O
  O36      1.0000 0.18607  0.30878  0.53995  Biso   1.000  O
  O37      1.0000 0.81393  0.80878  0.03995  Biso   1.000  O
  O38      1.0000 0.68607  0.19122  0.03995  Biso   1.000  O
  O39      1.0000 0.68607  0.30878  0.46005  Biso   1.000  O
  O40      1.0000 0.81393  0.69122  0.46005  Biso   1.000  O
  O41      1.0000 0.32517  0.36789  0.04020  Biso   1.000  O
  O42      1.0000 0.17483  0.63211  0.04020  Biso   1.000  O
  O43      1.0000 0.17483  0.86789  0.45980  Biso   1.000  O
  O44      1.0000 0.32517  0.13211  0.45980  Biso   1.000  O
  O45      1.0000 0.67483  0.63211  0.95980  Biso   1.000  O
  O46      1.0000 0.82517  0.36789  0.95980  Biso   1.000  O
  O47      1.0000 0.82517  0.13211  0.54020  Biso   1.000  O
  O48      1.0000 0.67483  0.86789  0.54020  Biso   1.000  O
  H49      1.0000 0.35650  0.34140  0.08260  Biso   1.000  H
  H50      1.0000 0.14350  0.65860  0.08260  Biso   1.000  H
  H51      1.0000 0.14350  0.84140  0.41740  Biso   1.000  H
  H52      1.0000 0.35650  0.15860  0.41740  Biso   1.000  H
  H53      1.0000 0.64350  0.65860  0.91740  Biso   1.000  H
  H54      1.0000 0.85650  0.34140  0.91740  Biso   1.000  H
  H55      1.0000 0.85650  0.15860  0.58260  Biso   1.000  H
  H56      1.0000 0.64350  0.84140  0.58260  Biso   1.000  H
  O49      1.0000 0.21052  0.12109  0.28189  Biso   1.000  O
  O50      1.0000 0.28948  0.87891  0.28189  Biso   1.000  O
  O51      1.0000 0.28948  0.62109  0.21811  Biso   1.000  O
  O52      1.0000 0.21052  0.37891  0.21811  Biso   1.000  O
  O53      1.0000 0.78948  0.87891  0.71811  Biso   1.000  O
  O54      1.0000 0.71052  0.12109  0.71811  Biso   1.000  O
  O55      1.0000 0.71052  0.37891  0.78189  Biso   1.000  O
  O56      1.0000 0.78948  0.62109  0.78189  Biso   1.000  O
  O57      1.0000 0.25000  0.00000  0.70300  Biso   1.000  O
  O58      1.0000 0.25000  0.50000  0.79700  Biso   1.000  O
  O59      1.0000 0.75000  0.00000  0.29700  Biso   1.000  O
  O60      1.0000 0.75000  0.50000  0.20300  Biso   1.000  O
  H57      1.0000 0.15070  0.22800  0.93500  Biso   1.000  H
  H58      1.0000 0.34930  0.77200  0.93500  Biso   1.000  H
  H59      1.0000 0.34930  0.72800  0.56500  Biso   1.000  H
  H60      1.0000 0.15070  0.27200  0.56500  Biso   1.000  H
  H61      1.0000 0.84930  0.77200  0.06500  Biso   1.000  H
  H62      1.0000 0.65070  0.22800  0.06500  Biso   1.000  H
  H63      1.0000 0.65070  0.27200  0.43500  Biso   1.000  H
  H64      1.0000 0.84930  0.72800  0.43500  Biso   1.000  H
  H65      1.0000 0.19360  0.18800  0.07100  Biso   1.000  H
  H66      1.0000 0.30640  0.81200  0.07100  Biso   1.000  H
  H67      1.0000 0.30640  0.68800  0.42900  Biso   1.000  H
  H68      1.0000 0.19360  0.31200  0.42900  Biso   1.000  H
  H69      1.0000 0.80640  0.81200  0.92900  Biso   1.000  H
  H70      1.0000 0.69360  0.18800  0.92900  Biso   1.000  H
  H71      1.0000 0.69360  0.31200  0.57100  Biso   1.000  H
  H72      1.0000 0.80640  0.68800  0.57100  Biso   1.000  H
