data_image0
_cell_length_a       24.4913
_cell_length_b       4.34232
_cell_length_c       14.2075
_cell_angle_alpha    90
_cell_angle_beta     78.8847
_cell_angle_gamma    90

_symmetry_space_group_name_H-M    "P 1"
_symmetry_int_tables_number       1

loop_
  _symmetry_equiv_pos_as_xyz
  'x, y, z'

loop_
  _atom_site_label
  _atom_site_occupancy
  _atom_site_fract_x
  _atom_site_fract_y
  _atom_site_fract_z
  _atom_site_thermal_displace_type
  _atom_site_B_iso_or_equiv
  _atom_site_type_symbol
  Cu1      1.0000 0.00000  0.37430  0.25000  Biso   1.000  Cu
  Cu2      1.0000 0.50000  0.87430  0.25000  Biso   1.000  Cu
  Cu3      1.0000 0.00000  0.62570  0.75000  Biso   1.000  Cu
  Cu4      1.0000 0.50000  0.12570  0.75000  Biso   1.000  Cu
  N1       1.0000 0.07710  0.36430  0.29070  Biso   1.000  N
  N2       1.0000 0.92290  0.36430  0.20930  Biso   1.000  N
  N3       1.0000 0.57710  0.86430  0.29070  Biso   1.000  N
  N4       1.0000 0.42290  0.86430  0.20930  Biso   1.000  N
  N5       1.0000 0.92290  0.63570  0.70930  Biso   1.000  N
  N6       1.0000 0.07710  0.63570  0.79070  Biso   1.000  N
  N7       1.0000 0.42290  0.13570  0.70930  Biso   1.000  N
  N8       1.0000 0.57710  0.13570  0.79070  Biso   1.000  N
  C1       1.0000 0.08795  0.54190  0.36227  Biso   1.000  C
  C2       1.0000 0.91205  0.54190  0.13773  Biso   1.000  C
  C3       1.0000 0.58795  0.04190  0.36227  Biso   1.000  C
  C4       1.0000 0.41205  0.04190  0.13773  Biso   1.000  C
  C5       1.0000 0.91205  0.45810  0.63773  Biso   1.000  C
  C6       1.0000 0.08795  0.45810  0.86227  Biso   1.000  C
  C7       1.0000 0.41205  0.95810  0.63773  Biso   1.000  C
  C8       1.0000 0.58795  0.95810  0.86227  Biso   1.000  C
  H1       1.0000 0.05801  0.68073  0.41107  Biso   1.000  H
  H2       1.0000 0.94199  0.68073  0.08893  Biso   1.000  H
  H3       1.0000 0.55801  0.18073  0.41107  Biso   1.000  H
  H4       1.0000 0.44199  0.18073  0.08893  Biso   1.000  H
  H5       1.0000 0.94199  0.31927  0.58893  Biso   1.000  H
  H6       1.0000 0.05801  0.31927  0.91107  Biso   1.000  H
  H7       1.0000 0.44199  0.81927  0.58893  Biso   1.000  H
  H8       1.0000 0.55801  0.81927  0.91107  Biso   1.000  H
  N9       1.0000 0.14107  0.51730  0.36248  Biso   1.000  N
  N10      1.0000 0.85893  0.51730  0.13752  Biso   1.000  N
  N11      1.0000 0.64107  0.01730  0.36248  Biso   1.000  N
  N12      1.0000 0.35893  0.01730  0.13752  Biso   1.000  N
  N13      1.0000 0.85893  0.48270  0.63752  Biso   1.000  N
  N14      1.0000 0.14107  0.48270  0.86248  Biso   1.000  N
  N15      1.0000 0.35893  0.98270  0.63752  Biso   1.000  N
  N16      1.0000 0.64107  0.98270  0.86248  Biso   1.000  N
  N17      1.0000 0.16628  0.32650  0.29219  Biso   1.000  N
  N18      1.0000 0.83372  0.32650  0.20781  Biso   1.000  N
  N19      1.0000 0.66628  0.82650  0.29219  Biso   1.000  N
  N20      1.0000 0.33372  0.82650  0.20781  Biso   1.000  N
  N21      1.0000 0.83372  0.67350  0.70781  Biso   1.000  N
  N22      1.0000 0.16628  0.67350  0.79219  Biso   1.000  N
  N23      1.0000 0.33372  0.17350  0.70781  Biso   1.000  N
  N24      1.0000 0.66628  0.17350  0.79219  Biso   1.000  N
  C9       1.0000 0.12586  0.24120  0.25135  Biso   1.000  C
  C10      1.0000 0.87414  0.24120  0.24865  Biso   1.000  C
  C11      1.0000 0.62586  0.74120  0.25135  Biso   1.000  C
  C12      1.0000 0.37414  0.74120  0.24865  Biso   1.000  C
  C13      1.0000 0.87414  0.75880  0.74865  Biso   1.000  C
  C14      1.0000 0.12586  0.75880  0.75135  Biso   1.000  C
  C15      1.0000 0.37414  0.25880  0.74865  Biso   1.000  C
  C16      1.0000 0.62586  0.25880  0.75135  Biso   1.000  C
  H9       1.0000 0.13128  0.08372  0.19060  Biso   1.000  H
  H10      1.0000 0.86872  0.08372  0.30940  Biso   1.000  H
  H11      1.0000 0.63128  0.58372  0.19060  Biso   1.000  H
  H12      1.0000 0.36872  0.58372  0.30940  Biso   1.000  H
  H13      1.0000 0.86872  0.91628  0.80940  Biso   1.000  H
  H14      1.0000 0.13128  0.91628  0.69060  Biso   1.000  H
  H15      1.0000 0.36872  0.41628  0.80940  Biso   1.000  H
  H16      1.0000 0.63128  0.41628  0.69060  Biso   1.000  H
  C17      1.0000 0.17441  0.68577  0.42981  Biso   1.000  C
  C18      1.0000 0.82559  0.68577  0.07019  Biso   1.000  C
  C19      1.0000 0.67441  0.18577  0.42981  Biso   1.000  C
  C20      1.0000 0.32559  0.18577  0.07019  Biso   1.000  C
  C21      1.0000 0.82559  0.31423  0.57019  Biso   1.000  C
  C22      1.0000 0.17441  0.31423  0.92981  Biso   1.000  C
  C23      1.0000 0.32559  0.81423  0.57019  Biso   1.000  C
  C24      1.0000 0.67441  0.81423  0.92981  Biso   1.000  C
  H17      1.0000 0.19885  0.87018  0.39024  Biso   1.000  H
  H18      1.0000 0.80115  0.87018  0.10976  Biso   1.000  H
  H19      1.0000 0.69885  0.37018  0.39024  Biso   1.000  H
  H20      1.0000 0.30115  0.37018  0.10976  Biso   1.000  H
  H21      1.0000 0.80115  0.12982  0.60976  Biso   1.000  H
  H22      1.0000 0.19885  0.12982  0.89024  Biso   1.000  H
  H23      1.0000 0.30115  0.62982  0.60976  Biso   1.000  H
  H24      1.0000 0.69885  0.62982  0.89024  Biso   1.000  H
  H25      1.0000 0.14549  0.78267  0.49046  Biso   1.000  H
  H26      1.0000 0.85451  0.78267  0.00954  Biso   1.000  H
  H27      1.0000 0.64549  0.28267  0.49046  Biso   1.000  H
  H28      1.0000 0.35451  0.28267  0.00954  Biso   1.000  H
  H29      1.0000 0.85451  0.21733  0.50954  Biso   1.000  H
  H30      1.0000 0.14549  0.21733  0.99046  Biso   1.000  H
  H31      1.0000 0.35451  0.71733  0.50954  Biso   1.000  H
  H32      1.0000 0.64549  0.71733  0.99046  Biso   1.000  H
  C25      1.0000 0.21326  0.46154  0.46659  Biso   1.000  C
  C26      1.0000 0.78674  0.46154  0.03341  Biso   1.000  C
  C27      1.0000 0.71326  0.96154  0.46659  Biso   1.000  C
  C28      1.0000 0.28674  0.96154  0.03341  Biso   1.000  C
  C29      1.0000 0.78674  0.53846  0.53341  Biso   1.000  C
  C30      1.0000 0.21326  0.53846  0.96659  Biso   1.000  C
  C31      1.0000 0.28674  0.03846  0.53341  Biso   1.000  C
  C32      1.0000 0.71326  0.03846  0.96659  Biso   1.000  C
  C33      1.0000 0.26166  0.35676  0.40470  Biso   1.000  C
  C34      1.0000 0.73834  0.35676  0.09530  Biso   1.000  C
  C35      1.0000 0.76166  0.85676  0.40470  Biso   1.000  C
  C36      1.0000 0.23834  0.85676  0.09530  Biso   1.000  C
  C37      1.0000 0.73834  0.64324  0.59530  Biso   1.000  C
  C38      1.0000 0.26166  0.64324  0.90470  Biso   1.000  C
  C39      1.0000 0.23834  0.14324  0.59530  Biso   1.000  C
  C40      1.0000 0.76166  0.14324  0.90470  Biso   1.000  C
  H33      1.0000 0.27092  0.43828  0.33085  Biso   1.000  H
  H34      1.0000 0.72908  0.43828  0.16915  Biso   1.000  H
  H35      1.0000 0.77092  0.93828  0.33085  Biso   1.000  H
  H36      1.0000 0.22908  0.93828  0.16915  Biso   1.000  H
  H37      1.0000 0.72908  0.56172  0.66915  Biso   1.000  H
  H38      1.0000 0.27092  0.56172  0.83085  Biso   1.000  H
  H39      1.0000 0.22908  0.06172  0.66915  Biso   1.000  H
  H40      1.0000 0.77092  0.06172  0.83085  Biso   1.000  H
  C41      1.0000 0.20222  0.35081  0.56230  Biso   1.000  C
  C42      1.0000 0.79778  0.35081  0.93770  Biso   1.000  C
  C43      1.0000 0.70222  0.85081  0.56230  Biso   1.000  C
  C44      1.0000 0.29778  0.85081  0.93770  Biso   1.000  C
  C45      1.0000 0.79778  0.64919  0.43770  Biso   1.000  C
  C46      1.0000 0.20222  0.64919  0.06230  Biso   1.000  C
  C47      1.0000 0.29778  0.14919  0.43770  Biso   1.000  C
  C48      1.0000 0.70222  0.14919  0.06230  Biso   1.000  C
  H41      1.0000 0.16493  0.42895  0.61111  Biso   1.000  H
  H42      1.0000 0.83507  0.42895  0.88889  Biso   1.000  H
  H43      1.0000 0.66493  0.92895  0.61111  Biso   1.000  H
  H44      1.0000 0.33507  0.92895  0.88889  Biso   1.000  H
  H45      1.0000 0.83507  0.57105  0.38889  Biso   1.000  H
  H46      1.0000 0.16493  0.57105  0.11111  Biso   1.000  H
  H47      1.0000 0.33507  0.07105  0.38889  Biso   1.000  H
  H48      1.0000 0.66493  0.07105  0.11111  Biso   1.000  H
  N25      1.0000 0.94239  0.81970  0.47014  Biso   1.000  N
  N26      1.0000 0.05761  0.81970  0.02986  Biso   1.000  N
  N27      1.0000 0.44239  0.31970  0.47014  Biso   1.000  N
  N28      1.0000 0.55761  0.31970  0.02986  Biso   1.000  N
  N29      1.0000 0.05761  0.18030  0.52986  Biso   1.000  N
  N30      1.0000 0.94239  0.18030  0.97014  Biso   1.000  N
  N31      1.0000 0.55761  0.68030  0.52986  Biso   1.000  N
  N32      1.0000 0.44239  0.68030  0.97014  Biso   1.000  N
  N33      1.0000 0.95598  0.90154  0.39637  Biso   1.000  N
  N34      1.0000 0.04402  0.90154  0.10363  Biso   1.000  N
  N35      1.0000 0.45598  0.40154  0.39637  Biso   1.000  N
  N36      1.0000 0.54402  0.40154  0.10363  Biso   1.000  N
  N37      1.0000 0.04402  0.09846  0.60363  Biso   1.000  N
  N38      1.0000 0.95598  0.09846  0.89637  Biso   1.000  N
  N39      1.0000 0.54402  0.59846  0.60363  Biso   1.000  N
  N40      1.0000 0.45598  0.59846  0.89637  Biso   1.000  N
  N41      1.0000 0.96968  0.98520  0.32153  Biso   1.000  N
  N42      1.0000 0.03032  0.98520  0.17847  Biso   1.000  N
  N43      1.0000 0.46968  0.48520  0.32153  Biso   1.000  N
  N44      1.0000 0.53032  0.48520  0.17847  Biso   1.000  N
  N45      1.0000 0.03032  0.01480  0.67847  Biso   1.000  N
  N46      1.0000 0.96968  0.01480  0.82153  Biso   1.000  N
  N47      1.0000 0.53032  0.51480  0.67847  Biso   1.000  N
  N48      1.0000 0.46968  0.51480  0.82153  Biso   1.000  N
