data_image0
_cell_length_a       17.174
_cell_length_b       24.572
_cell_length_c       15.267
_cell_angle_alpha    90
_cell_angle_beta     90
_cell_angle_gamma    90

_symmetry_space_group_name_H-M    "P 1"
_symmetry_int_tables_number       1

loop_
  _symmetry_equiv_pos_as_xyz
  'x, y, z'

loop_
  _atom_site_label
  _atom_site_occupancy
  _atom_site_fract_x
  _atom_site_fract_y
  _atom_site_fract_z
  _atom_site_thermal_displace_type
  _atom_site_B_iso_or_equiv
  _atom_site_type_symbol
  Na1      1.0000 0.40160  0.25000  0.16050  Biso   1.000  Na
  Na2      1.0000 0.09840  0.75000  0.66050  Biso   1.000  Na
  Na3      1.0000 0.59840  0.75000  0.83950  Biso   1.000  Na
  Na4      1.0000 0.90160  0.25000  0.33950  Biso   1.000  Na
  Cu1      1.0000 0.61511  0.37676  0.95343  Biso   1.000  Cu
  Cu2      1.0000 0.88489  0.62324  0.45343  Biso   1.000  Cu
  Cu3      1.0000 0.38489  0.87676  0.04657  Biso   1.000  Cu
  Cu4      1.0000 0.11511  0.12324  0.54657  Biso   1.000  Cu
  Cu5      1.0000 0.38489  0.62324  0.04657  Biso   1.000  Cu
  Cu6      1.0000 0.11511  0.37676  0.54657  Biso   1.000  Cu
  Cu7      1.0000 0.61511  0.12324  0.95343  Biso   1.000  Cu
  Cu8      1.0000 0.88489  0.87676  0.45343  Biso   1.000  Cu
  Cu9      1.0000 0.93398  0.36274  0.03356  Biso   1.000  Cu
  Cu10     1.0000 0.56602  0.63726  0.53356  Biso   1.000  Cu
  Cu11     1.0000 0.06602  0.86274  0.96644  Biso   1.000  Cu
  Cu12     1.0000 0.43398  0.13726  0.46644  Biso   1.000  Cu
  Cu13     1.0000 0.06602  0.63726  0.96644  Biso   1.000  Cu
  Cu14     1.0000 0.43398  0.36274  0.46644  Biso   1.000  Cu
  Cu15     1.0000 0.93398  0.13726  0.03356  Biso   1.000  Cu
  Cu16     1.0000 0.56602  0.86274  0.53356  Biso   1.000  Cu
  Sb1      1.0000 0.78176  0.25000  0.10621  Biso   1.000  Sb
  Sb2      1.0000 0.71824  0.75000  0.60621  Biso   1.000  Sb
  Sb3      1.0000 0.21824  0.75000  0.89379  Biso   1.000  Sb
  Sb4      1.0000 0.28176  0.25000  0.39379  Biso   1.000  Sb
  W1       1.0000 0.78231  0.31791  0.89870  Biso   1.000  W
  W2       1.0000 0.71769  0.68209  0.39870  Biso   1.000  W
  W3       1.0000 0.21769  0.81791  0.10130  Biso   1.000  W
  W4       1.0000 0.28231  0.18209  0.60130  Biso   1.000  W
  W5       1.0000 0.21769  0.68209  0.10130  Biso   1.000  W
  W6       1.0000 0.28231  0.31791  0.60130  Biso   1.000  W
  W7       1.0000 0.78231  0.18209  0.89870  Biso   1.000  W
  W8       1.0000 0.71769  0.81791  0.39870  Biso   1.000  W
  W9       1.0000 0.61326  0.25000  0.92333  Biso   1.000  W
  W10      1.0000 0.88674  0.75000  0.42333  Biso   1.000  W
  W11      1.0000 0.38674  0.75000  0.07667  Biso   1.000  W
  W12      1.0000 0.11326  0.25000  0.57667  Biso   1.000  W
  W13      1.0000 0.57694  0.32647  0.13996  Biso   1.000  W
  W14      1.0000 0.92306  0.67353  0.63996  Biso   1.000  W
  W15      1.0000 0.42306  0.82647  0.86004  Biso   1.000  W
  W16      1.0000 0.07694  0.17353  0.36004  Biso   1.000  W
  W17      1.0000 0.42306  0.67353  0.86004  Biso   1.000  W
  W18      1.0000 0.07694  0.32647  0.36004  Biso   1.000  W
  W19      1.0000 0.57694  0.17353  0.13996  Biso   1.000  W
  W20      1.0000 0.92306  0.82647  0.63996  Biso   1.000  W
  W21      1.0000 0.71883  0.32473  0.29332  Biso   1.000  W
  W22      1.0000 0.78117  0.67527  0.79332  Biso   1.000  W
  W23      1.0000 0.28117  0.82473  0.70668  Biso   1.000  W
  W24      1.0000 0.21883  0.17527  0.20668  Biso   1.000  W
  W25      1.0000 0.28117  0.67527  0.70668  Biso   1.000  W
  W26      1.0000 0.21883  0.32473  0.20668  Biso   1.000  W
  W27      1.0000 0.71883  0.17527  0.29332  Biso   1.000  W
  W28      1.0000 0.78117  0.82473  0.79332  Biso   1.000  W
  W29      1.0000 0.74416  0.39615  0.10957  Biso   1.000  W
  W30      1.0000 0.75584  0.60385  0.60957  Biso   1.000  W
  W31      1.0000 0.25584  0.89615  0.89043  Biso   1.000  W
  W32      1.0000 0.24416  0.10385  0.39043  Biso   1.000  W
  W33      1.0000 0.25584  0.60385  0.89043  Biso   1.000  W
  W34      1.0000 0.24416  0.39615  0.39043  Biso   1.000  W
  W35      1.0000 0.74416  0.10385  0.10957  Biso   1.000  W
  W36      1.0000 0.75584  0.89615  0.60957  Biso   1.000  W
  O1       1.0000 0.80430  0.36450  0.81840  Biso   1.000  O
  O2       1.0000 0.69570  0.63550  0.31840  Biso   1.000  O
  O3       1.0000 0.19570  0.86450  0.18160  Biso   1.000  O
  O4       1.0000 0.30430  0.13550  0.68160  Biso   1.000  O
  O5       1.0000 0.19570  0.63550  0.18160  Biso   1.000  O
  O6       1.0000 0.30430  0.36450  0.68160  Biso   1.000  O
  O7       1.0000 0.80430  0.13550  0.81840  Biso   1.000  O
  O8       1.0000 0.69570  0.86450  0.31840  Biso   1.000  O
  O9       1.0000 0.52960  0.25000  0.86150  Biso   1.000  O
  O10      1.0000 0.97040  0.75000  0.36150  Biso   1.000  O
  O11      1.0000 0.47040  0.75000  0.13850  Biso   1.000  O
  O12      1.0000 0.02960  0.25000  0.63850  Biso   1.000  O
  O13      1.0000 0.47860  0.34420  0.13720  Biso   1.000  O
  O14      1.0000 0.02140  0.65580  0.63720  Biso   1.000  O
  O15      1.0000 0.52140  0.84420  0.86280  Biso   1.000  O
  O16      1.0000 0.97860  0.15580  0.36280  Biso   1.000  O
  O17      1.0000 0.52140  0.65580  0.86280  Biso   1.000  O
  O18      1.0000 0.97860  0.34420  0.36280  Biso   1.000  O
  O19      1.0000 0.47860  0.15580  0.13720  Biso   1.000  O
  O20      1.0000 0.02140  0.84420  0.63720  Biso   1.000  O
  O21      1.0000 0.70680  0.34920  0.39890  Biso   1.000  O
  O22      1.0000 0.79320  0.65080  0.89890  Biso   1.000  O
  O23      1.0000 0.29320  0.84920  0.60110  Biso   1.000  O
  O24      1.0000 0.20680  0.15080  0.10110  Biso   1.000  O
  O25      1.0000 0.29320  0.65080  0.60110  Biso   1.000  O
  O26      1.0000 0.20680  0.34920  0.10110  Biso   1.000  O
  O27      1.0000 0.70680  0.15080  0.39890  Biso   1.000  O
  O28      1.0000 0.79320  0.84920  0.89890  Biso   1.000  O
  O29      1.0000 0.75070  0.46520  0.08740  Biso   1.000  O
  O30      1.0000 0.74930  0.53480  0.58740  Biso   1.000  O
  O31      1.0000 0.24930  0.96520  0.91260  Biso   1.000  O
  O32      1.0000 0.25070  0.03480  0.41260  Biso   1.000  O
  O33      1.0000 0.24930  0.53480  0.91260  Biso   1.000  O
  O34      1.0000 0.25070  0.46520  0.41260  Biso   1.000  O
  O35      1.0000 0.75070  0.03480  0.08740  Biso   1.000  O
  O36      1.0000 0.74930  0.96520  0.58740  Biso   1.000  O
  O37      1.0000 0.81910  0.30940  0.28500  Biso   1.000  O
  O38      1.0000 0.68090  0.69060  0.78500  Biso   1.000  O
  O39      1.0000 0.18090  0.80940  0.71500  Biso   1.000  O
  O40      1.0000 0.31910  0.19060  0.21500  Biso   1.000  O
  O41      1.0000 0.18090  0.69060  0.71500  Biso   1.000  O
  O42      1.0000 0.31910  0.30940  0.21500  Biso   1.000  O
  O43      1.0000 0.81910  0.19060  0.28500  Biso   1.000  O
  O44      1.0000 0.68090  0.80940  0.78500  Biso   1.000  O
  O45      1.0000 0.66920  0.30580  0.86280  Biso   1.000  O
  O46      1.0000 0.83080  0.69420  0.36280  Biso   1.000  O
  O47      1.0000 0.33080  0.80580  0.13720  Biso   1.000  O
  O48      1.0000 0.16920  0.19420  0.63720  Biso   1.000  O
  O49      1.0000 0.33080  0.69420  0.13720  Biso   1.000  O
  O50      1.0000 0.16920  0.30580  0.63720  Biso   1.000  O
  O51      1.0000 0.66920  0.19420  0.86280  Biso   1.000  O
  O52      1.0000 0.83080  0.80580  0.36280  Biso   1.000  O
  O53      1.0000 0.58910  0.30490  0.01070  Biso   1.000  O
  O54      1.0000 0.91090  0.69510  0.51070  Biso   1.000  O
  O55      1.0000 0.41090  0.80490  0.98930  Biso   1.000  O
  O56      1.0000 0.08910  0.19510  0.48930  Biso   1.000  O
  O57      1.0000 0.41090  0.69510  0.98930  Biso   1.000  O
  O58      1.0000 0.08910  0.30490  0.48930  Biso   1.000  O
  O59      1.0000 0.58910  0.19510  0.01070  Biso   1.000  O
  O60      1.0000 0.91090  0.80490  0.51070  Biso   1.000  O
  O61      1.0000 0.73100  0.39580  0.23270  Biso   1.000  O
  O62      1.0000 0.76900  0.60420  0.73270  Biso   1.000  O
  O63      1.0000 0.26900  0.89580  0.76730  Biso   1.000  O
  O64      1.0000 0.23100  0.10420  0.26730  Biso   1.000  O
  O65      1.0000 0.26900  0.60420  0.76730  Biso   1.000  O
  O66      1.0000 0.23100  0.39580  0.26730  Biso   1.000  O
  O67      1.0000 0.73100  0.10420  0.23270  Biso   1.000  O
  O68      1.0000 0.76900  0.89580  0.73270  Biso   1.000  O
  O69      1.0000 0.60060  0.33710  0.25570  Biso   1.000  O
  O70      1.0000 0.89940  0.66290  0.75570  Biso   1.000  O
  O71      1.0000 0.39940  0.83710  0.74430  Biso   1.000  O
  O72      1.0000 0.10060  0.16290  0.24430  Biso   1.000  O
  O73      1.0000 0.39940  0.66290  0.74430  Biso   1.000  O
  O74      1.0000 0.10060  0.33710  0.24430  Biso   1.000  O
  O75      1.0000 0.60060  0.16290  0.25570  Biso   1.000  O
  O76      1.0000 0.89940  0.83710  0.75570  Biso   1.000  O
  O77      1.0000 0.56260  0.25000  0.15540  Biso   1.000  O
  O78      1.0000 0.93740  0.75000  0.65540  Biso   1.000  O
  O79      1.0000 0.43740  0.75000  0.84460  Biso   1.000  O
  O80      1.0000 0.06260  0.25000  0.34460  Biso   1.000  O
  O81      1.0000 0.68650  0.25000  0.30600  Biso   1.000  O
  O82      1.0000 0.81350  0.75000  0.80600  Biso   1.000  O
  O83      1.0000 0.31350  0.75000  0.69400  Biso   1.000  O
  O84      1.0000 0.18650  0.25000  0.19400  Biso   1.000  O
  O85      1.0000 0.86850  0.31530  0.96480  Biso   1.000  O
  O86      1.0000 0.63150  0.68470  0.46480  Biso   1.000  O
  O87      1.0000 0.13150  0.81530  0.03520  Biso   1.000  O
  O88      1.0000 0.36850  0.18470  0.53520  Biso   1.000  O
  O89      1.0000 0.13150  0.68470  0.03520  Biso   1.000  O
  O90      1.0000 0.36850  0.31530  0.53520  Biso   1.000  O
  O91      1.0000 0.86850  0.18470  0.96480  Biso   1.000  O
  O92      1.0000 0.63150  0.81530  0.46480  Biso   1.000  O
  O93      1.0000 0.80290  0.25000  0.83760  Biso   1.000  O
  O94      1.0000 0.69710  0.75000  0.33760  Biso   1.000  O
  O95      1.0000 0.19710  0.75000  0.16240  Biso   1.000  O
  O96      1.0000 0.30290  0.25000  0.66240  Biso   1.000  O
  O97      1.0000 0.62450  0.39240  0.10210  Biso   1.000  O
  O98      1.0000 0.87550  0.60760  0.60210  Biso   1.000  O
  O99      1.0000 0.37550  0.89240  0.89790  Biso   1.000  O
  O100     1.0000 0.12450  0.10760  0.39790  Biso   1.000  O
  O101     1.0000 0.37550  0.60760  0.89790  Biso   1.000  O
  O102     1.0000 0.12450  0.39240  0.39790  Biso   1.000  O
  O103     1.0000 0.62450  0.10760  0.10210  Biso   1.000  O
  O104     1.0000 0.87550  0.89240  0.60210  Biso   1.000  O
  O105     1.0000 0.73010  0.36750  0.98460  Biso   1.000  O
  O106     1.0000 0.76990  0.63250  0.48460  Biso   1.000  O
  O107     1.0000 0.26990  0.86750  0.01540  Biso   1.000  O
  O108     1.0000 0.23010  0.13250  0.51540  Biso   1.000  O
  O109     1.0000 0.26990  0.63250  0.01540  Biso   1.000  O
  O110     1.0000 0.23010  0.36750  0.51540  Biso   1.000  O
  O111     1.0000 0.73010  0.13250  0.98460  Biso   1.000  O
  O112     1.0000 0.76990  0.86750  0.48460  Biso   1.000  O
  O113     1.0000 0.84450  0.37480  0.10670  Biso   1.000  O
  O114     1.0000 0.65550  0.62520  0.60670  Biso   1.000  O
  O115     1.0000 0.15550  0.87480  0.89330  Biso   1.000  O
  O116     1.0000 0.34450  0.12520  0.39330  Biso   1.000  O
  O117     1.0000 0.15550  0.62520  0.89330  Biso   1.000  O
  O118     1.0000 0.34450  0.37480  0.39330  Biso   1.000  O
  O119     1.0000 0.84450  0.12520  0.10670  Biso   1.000  O
  O120     1.0000 0.65550  0.87480  0.60670  Biso   1.000  O
  O121     1.0000 0.70890  0.30860  0.14600  Biso   1.000  O
  O122     1.0000 0.79110  0.69140  0.64600  Biso   1.000  O
  O123     1.0000 0.29110  0.80860  0.85400  Biso   1.000  O
  O124     1.0000 0.20890  0.19140  0.35400  Biso   1.000  O
  O125     1.0000 0.29110  0.69140  0.85400  Biso   1.000  O
  O126     1.0000 0.20890  0.30860  0.35400  Biso   1.000  O
  O127     1.0000 0.70890  0.19140  0.14600  Biso   1.000  O
  O128     1.0000 0.79110  0.80860  0.64600  Biso   1.000  O
  O129     1.0000 0.73570  0.25000  0.98750  Biso   1.000  O
  O130     1.0000 0.76430  0.75000  0.48750  Biso   1.000  O
  O131     1.0000 0.26430  0.75000  0.01250  Biso   1.000  O
  O132     1.0000 0.23570  0.25000  0.51250  Biso   1.000  O
  N1       1.0000 0.62990  0.45010  0.90430  Biso   1.000  N
  N2       1.0000 0.87010  0.54990  0.40430  Biso   1.000  N
  N3       1.0000 0.37010  0.95010  0.09570  Biso   1.000  N
  N4       1.0000 0.12990  0.04990  0.59570  Biso   1.000  N
  N5       1.0000 0.37010  0.54990  0.09570  Biso   1.000  N
  N6       1.0000 0.12990  0.45010  0.59570  Biso   1.000  N
  N7       1.0000 0.62990  0.04990  0.90430  Biso   1.000  N
  N8       1.0000 0.87010  0.95010  0.40430  Biso   1.000  N
  N9       1.0000 0.50350  0.39400  0.92680  Biso   1.000  N
  N10      1.0000 0.99650  0.60600  0.42680  Biso   1.000  N
  N11      1.0000 0.49650  0.89400  0.07320  Biso   1.000  N
  N12      1.0000 0.00350  0.10600  0.57320  Biso   1.000  N
  N13      1.0000 0.49650  0.60600  0.07320  Biso   1.000  N
  N14      1.0000 0.00350  0.39400  0.57320  Biso   1.000  N
  N15      1.0000 0.50350  0.10600  0.92680  Biso   1.000  N
  N16      1.0000 0.99650  0.89400  0.42680  Biso   1.000  N
  N17      1.0000 0.99590  0.42600  0.07990  Biso   1.000  N
  N18      1.0000 0.50410  0.57400  0.57990  Biso   1.000  N
  N19      1.0000 0.00410  0.92600  0.92010  Biso   1.000  N
  N20      1.0000 0.49590  0.07400  0.42010  Biso   1.000  N
  N21      1.0000 0.00410  0.57400  0.92010  Biso   1.000  N
  N22      1.0000 0.49590  0.42600  0.42010  Biso   1.000  N
  N23      1.0000 0.99590  0.07400  0.07990  Biso   1.000  N
  N24      1.0000 0.50410  0.92600  0.57990  Biso   1.000  N
  N25      1.0000 0.01840  0.36530  0.94210  Biso   1.000  N
  N26      1.0000 0.48160  0.63470  0.44210  Biso   1.000  N
  N27      1.0000 0.98160  0.86530  0.05790  Biso   1.000  N
  N28      1.0000 0.51840  0.13470  0.55790  Biso   1.000  N
  N29      1.0000 0.98160  0.63470  0.05790  Biso   1.000  N
  N30      1.0000 0.51840  0.36530  0.55790  Biso   1.000  N
  N31      1.0000 0.01840  0.13470  0.94210  Biso   1.000  N
  N32      1.0000 0.48160  0.86530  0.44210  Biso   1.000  N
  C1       1.0000 0.44230  0.36030  0.93330  Biso   1.000  C
  C2       1.0000 0.05770  0.63970  0.43330  Biso   1.000  C
  C3       1.0000 0.55770  0.86030  0.06670  Biso   1.000  C
  C4       1.0000 0.94230  0.13970  0.56670  Biso   1.000  C
  C5       1.0000 0.55770  0.63970  0.06670  Biso   1.000  C
  C6       1.0000 0.94230  0.36030  0.56670  Biso   1.000  C
  C7       1.0000 0.44230  0.13970  0.93330  Biso   1.000  C
  C8       1.0000 0.05770  0.86030  0.43330  Biso   1.000  C
  H1       1.0000 0.45120  0.32420  0.94860  Biso   1.000  H
  H2       1.0000 0.04880  0.67580  0.44860  Biso   1.000  H
  H3       1.0000 0.54880  0.82420  0.05140  Biso   1.000  H
  H4       1.0000 0.95120  0.17580  0.55140  Biso   1.000  H
  H5       1.0000 0.54880  0.67580  0.05140  Biso   1.000  H
  H6       1.0000 0.95120  0.32420  0.55140  Biso   1.000  H
  H7       1.0000 0.45120  0.17580  0.94860  Biso   1.000  H
  H8       1.0000 0.04880  0.82420  0.44860  Biso   1.000  H
  C9       1.0000 0.69790  0.47650  0.89050  Biso   1.000  C
  C10      1.0000 0.80210  0.52350  0.39050  Biso   1.000  C
  C11      1.0000 0.30210  0.97650  0.10950  Biso   1.000  C
  C12      1.0000 0.19790  0.02350  0.60950  Biso   1.000  C
  C13      1.0000 0.30210  0.52350  0.10950  Biso   1.000  C
  C14      1.0000 0.19790  0.47650  0.60950  Biso   1.000  C
  C15      1.0000 0.69790  0.02350  0.89050  Biso   1.000  C
  C16      1.0000 0.80210  0.97650  0.39050  Biso   1.000  C
  H9       1.0000 0.74370  0.45650  0.89530  Biso   1.000  H
  H10      1.0000 0.75630  0.54350  0.39530  Biso   1.000  H
  H11      1.0000 0.25630  0.95650  0.10470  Biso   1.000  H
  H12      1.0000 0.24370  0.04350  0.60470  Biso   1.000  H
  H13      1.0000 0.25630  0.54350  0.10470  Biso   1.000  H
  H14      1.0000 0.24370  0.45650  0.60470  Biso   1.000  H
  H15      1.0000 0.74370  0.04350  0.89530  Biso   1.000  H
  H16      1.0000 0.75630  0.95650  0.39530  Biso   1.000  H
  C17      1.0000 0.70390  0.52960  0.87020  Biso   1.000  C
  C18      1.0000 0.79610  0.47040  0.37020  Biso   1.000  C
  C19      1.0000 0.29610  0.02960  0.12980  Biso   1.000  C
  C20      1.0000 0.20390  0.97040  0.62980  Biso   1.000  C
  C21      1.0000 0.29610  0.47040  0.12980  Biso   1.000  C
  C22      1.0000 0.20390  0.52960  0.62980  Biso   1.000  C
  C23      1.0000 0.70390  0.97040  0.87020  Biso   1.000  C
  C24      1.0000 0.79610  0.02960  0.37020  Biso   1.000  C
  H17      1.0000 0.75210  0.54570  0.86040  Biso   1.000  H
  H18      1.0000 0.74790  0.45430  0.36040  Biso   1.000  H
  H19      1.0000 0.24790  0.04570  0.13960  Biso   1.000  H
  H20      1.0000 0.25210  0.95430  0.63960  Biso   1.000  H
  H21      1.0000 0.24790  0.45430  0.13960  Biso   1.000  H
  H22      1.0000 0.25210  0.54570  0.63960  Biso   1.000  H
  H23      1.0000 0.75210  0.95430  0.86040  Biso   1.000  H
  H24      1.0000 0.74790  0.04570  0.36040  Biso   1.000  H
  C25      1.0000 0.36610  0.37710  0.91810  Biso   1.000  C
  C26      1.0000 0.13390  0.62290  0.41810  Biso   1.000  C
  C27      1.0000 0.63390  0.87710  0.08190  Biso   1.000  C
  C28      1.0000 0.86610  0.12290  0.58190  Biso   1.000  C
  C29      1.0000 0.63390  0.62290  0.08190  Biso   1.000  C
  C30      1.0000 0.86610  0.37710  0.58190  Biso   1.000  C
  C31      1.0000 0.36610  0.12290  0.91810  Biso   1.000  C
  C32      1.0000 0.13390  0.87710  0.41810  Biso   1.000  C
  H25      1.0000 0.32460  0.35290  0.92190  Biso   1.000  H
  H26      1.0000 0.17540  0.64710  0.42190  Biso   1.000  H
  H27      1.0000 0.67540  0.85290  0.07810  Biso   1.000  H
  H28      1.0000 0.82460  0.14710  0.57810  Biso   1.000  H
  H29      1.0000 0.67540  0.64710  0.07810  Biso   1.000  H
  H30      1.0000 0.82460  0.35290  0.57810  Biso   1.000  H
  H31      1.0000 0.32460  0.14710  0.92190  Biso   1.000  H
  H32      1.0000 0.17540  0.85290  0.42190  Biso   1.000  H
  C33      1.0000 0.63540  0.55960  0.86440  Biso   1.000  C
  C34      1.0000 0.86460  0.44040  0.36440  Biso   1.000  C
  C35      1.0000 0.36460  0.05960  0.13560  Biso   1.000  C
  C36      1.0000 0.13540  0.94040  0.63560  Biso   1.000  C
  C37      1.0000 0.36460  0.44040  0.13560  Biso   1.000  C
  C38      1.0000 0.13540  0.55960  0.63560  Biso   1.000  C
  C39      1.0000 0.63540  0.94040  0.86440  Biso   1.000  C
  C40      1.0000 0.86460  0.05960  0.36440  Biso   1.000  C
  H33      1.0000 0.63750  0.59670  0.85240  Biso   1.000  H
  H34      1.0000 0.86250  0.40330  0.35240  Biso   1.000  H
  H35      1.0000 0.36250  0.09670  0.14760  Biso   1.000  H
  H36      1.0000 0.13750  0.90330  0.64760  Biso   1.000  H
  H37      1.0000 0.36250  0.40330  0.14760  Biso   1.000  H
  H38      1.0000 0.13750  0.59670  0.64760  Biso   1.000  H
  H39      1.0000 0.63750  0.90330  0.85240  Biso   1.000  H
  H40      1.0000 0.86250  0.09670  0.35240  Biso   1.000  H
  C41      1.0000 0.35510  0.43080  0.89740  Biso   1.000  C
  C42      1.0000 0.14490  0.56920  0.39740  Biso   1.000  C
  C43      1.0000 0.64490  0.93080  0.10260  Biso   1.000  C
  C44      1.0000 0.85510  0.06920  0.60260  Biso   1.000  C
  C45      1.0000 0.64490  0.56920  0.10260  Biso   1.000  C
  C46      1.0000 0.85510  0.43080  0.60260  Biso   1.000  C
  C47      1.0000 0.35510  0.06920  0.89740  Biso   1.000  C
  C48      1.0000 0.14490  0.93080  0.39740  Biso   1.000  C
  H41      1.0000 0.30470  0.44340  0.88800  Biso   1.000  H
  H42      1.0000 0.19530  0.55660  0.38800  Biso   1.000  H
  H43      1.0000 0.69530  0.94340  0.11200  Biso   1.000  H
  H44      1.0000 0.80470  0.05660  0.61200  Biso   1.000  H
  H45      1.0000 0.69530  0.55660  0.11200  Biso   1.000  H
  H46      1.0000 0.80470  0.44340  0.61200  Biso   1.000  H
  H47      1.0000 0.30470  0.05660  0.88800  Biso   1.000  H
  H48      1.0000 0.19530  0.94340  0.38800  Biso   1.000  H
  C49      1.0000 0.41660  0.46690  0.89020  Biso   1.000  C
  C50      1.0000 0.08340  0.53310  0.39020  Biso   1.000  C
  C51      1.0000 0.58340  0.96690  0.10980  Biso   1.000  C
  C52      1.0000 0.91660  0.03310  0.60980  Biso   1.000  C
  C53      1.0000 0.58340  0.53310  0.10980  Biso   1.000  C
  C54      1.0000 0.91660  0.46690  0.60980  Biso   1.000  C
  C55      1.0000 0.41660  0.03310  0.89020  Biso   1.000  C
  C56      1.0000 0.08340  0.96690  0.39020  Biso   1.000  C
  H49      1.0000 0.40840  0.50330  0.87640  Biso   1.000  H
  H50      1.0000 0.09160  0.49670  0.37640  Biso   1.000  H
  H51      1.0000 0.59160  0.00330  0.12360  Biso   1.000  H
  H52      1.0000 0.90840  0.99670  0.62360  Biso   1.000  H
  H53      1.0000 0.59160  0.49670  0.12360  Biso   1.000  H
  H54      1.0000 0.90840  0.50330  0.62360  Biso   1.000  H
  H55      1.0000 0.40840  0.99670  0.87640  Biso   1.000  H
  H56      1.0000 0.09160  0.00330  0.37640  Biso   1.000  H
  C57      1.0000 0.56370  0.53420  0.87660  Biso   1.000  C
  C58      1.0000 0.93630  0.46580  0.37660  Biso   1.000  C
  C59      1.0000 0.43630  0.03420  0.12340  Biso   1.000  C
  C60      1.0000 0.06370  0.96580  0.62340  Biso   1.000  C
  C61      1.0000 0.43630  0.46580  0.12340  Biso   1.000  C
  C62      1.0000 0.06370  0.53420  0.62340  Biso   1.000  C
  C63      1.0000 0.56370  0.96580  0.87660  Biso   1.000  C
  C64      1.0000 0.93630  0.03420  0.37660  Biso   1.000  C
  H57      1.0000 0.51770  0.55410  0.87230  Biso   1.000  H
  H58      1.0000 0.98230  0.44590  0.37230  Biso   1.000  H
  H59      1.0000 0.48230  0.05410  0.12770  Biso   1.000  H
  H60      1.0000 0.01770  0.94590  0.62770  Biso   1.000  H
  H61      1.0000 0.48230  0.44590  0.12770  Biso   1.000  H
  H62      1.0000 0.01770  0.55410  0.62770  Biso   1.000  H
  H63      1.0000 0.51770  0.94590  0.87230  Biso   1.000  H
  H64      1.0000 0.98230  0.05410  0.37230  Biso   1.000  H
  C65      1.0000 0.56170  0.47950  0.89510  Biso   1.000  C
  C66      1.0000 0.93830  0.52050  0.39510  Biso   1.000  C
  C67      1.0000 0.43830  0.97950  0.10490  Biso   1.000  C
  C68      1.0000 0.06170  0.02050  0.60490  Biso   1.000  C
  C69      1.0000 0.43830  0.52050  0.10490  Biso   1.000  C
  C70      1.0000 0.06170  0.47950  0.60490  Biso   1.000  C
  C71      1.0000 0.56170  0.02050  0.89510  Biso   1.000  C
  C72      1.0000 0.93830  0.97950  0.39510  Biso   1.000  C
  C73      1.0000 0.49100  0.44650  0.90440  Biso   1.000  C
  C74      1.0000 0.00900  0.55350  0.40440  Biso   1.000  C
  C75      1.0000 0.50900  0.94650  0.09560  Biso   1.000  C
  C76      1.0000 0.99100  0.05350  0.59560  Biso   1.000  C
  C77      1.0000 0.50900  0.55350  0.09560  Biso   1.000  C
  C78      1.0000 0.99100  0.44650  0.59560  Biso   1.000  C
  C79      1.0000 0.49100  0.05350  0.90440  Biso   1.000  C
  C80      1.0000 0.00900  0.94650  0.40440  Biso   1.000  C
  C81      1.0000 0.97720  0.45600  0.14880  Biso   1.000  C
  C82      1.0000 0.52280  0.54400  0.64880  Biso   1.000  C
  C83      1.0000 0.02280  0.95600  0.85120  Biso   1.000  C
  C84      1.0000 0.47720  0.04400  0.35120  Biso   1.000  C
  C85      1.0000 0.02280  0.54400  0.85120  Biso   1.000  C
  C86      1.0000 0.47720  0.45600  0.35120  Biso   1.000  C
  C87      1.0000 0.97720  0.04400  0.14880  Biso   1.000  C
  C88      1.0000 0.52280  0.95600  0.64880  Biso   1.000  C
  H65      1.0000 0.93410  0.44610  0.18200  Biso   1.000  H
  H66      1.0000 0.56590  0.55390  0.68200  Biso   1.000  H
  H67      1.0000 0.06590  0.94610  0.81800  Biso   1.000  H
  H68      1.0000 0.43410  0.05390  0.31800  Biso   1.000  H
  H69      1.0000 0.06590  0.55390  0.81800  Biso   1.000  H
  H70      1.0000 0.43410  0.44610  0.31800  Biso   1.000  H
  H71      1.0000 0.93410  0.05390  0.18200  Biso   1.000  H
  H72      1.0000 0.56590  0.94610  0.68200  Biso   1.000  H
  C89      1.0000 0.02130  0.33270  0.87220  Biso   1.000  C
  C90      1.0000 0.47870  0.66730  0.37220  Biso   1.000  C
  C91      1.0000 0.97870  0.83270  0.12780  Biso   1.000  C
  C92      1.0000 0.52130  0.16730  0.62780  Biso   1.000  C
  C93      1.0000 0.97870  0.66730  0.12780  Biso   1.000  C
  C94      1.0000 0.52130  0.33270  0.62780  Biso   1.000  C
  C95      1.0000 0.02130  0.16730  0.87220  Biso   1.000  C
  C96      1.0000 0.47870  0.83270  0.37220  Biso   1.000  C
  H73      1.0000 0.98190  0.30740  0.86250  Biso   1.000  H
  H74      1.0000 0.51810  0.69260  0.36250  Biso   1.000  H
  H75      1.0000 0.01810  0.80740  0.13750  Biso   1.000  H
  H76      1.0000 0.48190  0.19260  0.63750  Biso   1.000  H
  H77      1.0000 0.01810  0.69260  0.13750  Biso   1.000  H
  H78      1.0000 0.48190  0.30740  0.63750  Biso   1.000  H
  H79      1.0000 0.98190  0.19260  0.86250  Biso   1.000  H
  H80      1.0000 0.51810  0.80740  0.36250  Biso   1.000  H
  C97      1.0000 0.01900  0.50090  0.17320  Biso   1.000  C
  C98      1.0000 0.48100  0.49910  0.67320  Biso   1.000  C
  C99      1.0000 0.98100  0.00090  0.82680  Biso   1.000  C
  C100     1.0000 0.51900  0.99910  0.32680  Biso   1.000  C
  C101     1.0000 0.98100  0.49910  0.82680  Biso   1.000  C
  C102     1.0000 0.51900  0.50090  0.32680  Biso   1.000  C
  C103     1.0000 0.01900  0.99910  0.17320  Biso   1.000  C
  C104     1.0000 0.48100  0.00090  0.67320  Biso   1.000  C
  H81      1.0000 0.00380  0.52190  0.22090  Biso   1.000  H
  H82      1.0000 0.49620  0.47810  0.72090  Biso   1.000  H
  H83      1.0000 0.99620  0.02190  0.77910  Biso   1.000  H
  H84      1.0000 0.50380  0.97810  0.27910  Biso   1.000  H
  H85      1.0000 0.99620  0.47810  0.77910  Biso   1.000  H
  H86      1.0000 0.50380  0.52190  0.27910  Biso   1.000  H
  H87      1.0000 0.00380  0.97810  0.22090  Biso   1.000  H
  H88      1.0000 0.49620  0.02190  0.72090  Biso   1.000  H
  C105     1.0000 0.08310  0.33650  0.81400  Biso   1.000  C
  C106     1.0000 0.41690  0.66350  0.31400  Biso   1.000  C
  C107     1.0000 0.91690  0.83650  0.18600  Biso   1.000  C
  C108     1.0000 0.58310  0.16350  0.68600  Biso   1.000  C
  C109     1.0000 0.91690  0.66350  0.18600  Biso   1.000  C
  C110     1.0000 0.58310  0.33650  0.68600  Biso   1.000  C
  C111     1.0000 0.08310  0.16350  0.81400  Biso   1.000  C
  C112     1.0000 0.41690  0.83650  0.31400  Biso   1.000  C
  H89      1.0000 0.08580  0.31320  0.76620  Biso   1.000  H
  H90      1.0000 0.41420  0.68680  0.26620  Biso   1.000  H
  H91      1.0000 0.91420  0.81320  0.23380  Biso   1.000  H
  H92      1.0000 0.58580  0.18680  0.73380  Biso   1.000  H
  H93      1.0000 0.91420  0.68680  0.23380  Biso   1.000  H
  H94      1.0000 0.58580  0.31320  0.73380  Biso   1.000  H
  H95      1.0000 0.08580  0.18680  0.76620  Biso   1.000  H
  H96      1.0000 0.41420  0.81320  0.26620  Biso   1.000  H
  C113     1.0000 0.08450  0.51430  0.12500  Biso   1.000  C
  C114     1.0000 0.41550  0.48570  0.62500  Biso   1.000  C
  C115     1.0000 0.91550  0.01430  0.87500  Biso   1.000  C
  C116     1.0000 0.58450  0.98570  0.37500  Biso   1.000  C
  C117     1.0000 0.91550  0.48570  0.87500  Biso   1.000  C
  C118     1.0000 0.58450  0.51430  0.37500  Biso   1.000  C
  C119     1.0000 0.08450  0.98570  0.12500  Biso   1.000  C
  C120     1.0000 0.41550  0.01430  0.62500  Biso   1.000  C
  H97      1.0000 0.11500  0.54400  0.14080  Biso   1.000  H
  H98      1.0000 0.38500  0.45600  0.64080  Biso   1.000  H
  H99      1.0000 0.88500  0.04400  0.85920  Biso   1.000  H
  H100     1.0000 0.61500  0.95600  0.35920  Biso   1.000  H
  H101     1.0000 0.88500  0.45600  0.85920  Biso   1.000  H
  H102     1.0000 0.61500  0.54400  0.35920  Biso   1.000  H
  H103     1.0000 0.11500  0.95600  0.14080  Biso   1.000  H
  H104     1.0000 0.38500  0.04400  0.64080  Biso   1.000  H
  C121     1.0000 0.13960  0.37410  0.82640  Biso   1.000  C
  C122     1.0000 0.36040  0.62590  0.32640  Biso   1.000  C
  C123     1.0000 0.86040  0.87410  0.17360  Biso   1.000  C
  C124     1.0000 0.63960  0.12590  0.67360  Biso   1.000  C
  C125     1.0000 0.86040  0.62590  0.17360  Biso   1.000  C
  C126     1.0000 0.63960  0.37410  0.67360  Biso   1.000  C
  C127     1.0000 0.13960  0.12590  0.82640  Biso   1.000  C
  C128     1.0000 0.36040  0.87410  0.32640  Biso   1.000  C
  H105     1.0000 0.18160  0.37620  0.78790  Biso   1.000  H
  H106     1.0000 0.31840  0.62380  0.28790  Biso   1.000  H
  H107     1.0000 0.81840  0.87620  0.21210  Biso   1.000  H
  H108     1.0000 0.68160  0.12380  0.71210  Biso   1.000  H
  H109     1.0000 0.81840  0.62380  0.21210  Biso   1.000  H
  H110     1.0000 0.68160  0.37620  0.71210  Biso   1.000  H
  H111     1.0000 0.18160  0.12380  0.78790  Biso   1.000  H
  H112     1.0000 0.31840  0.87620  0.28790  Biso   1.000  H
  C129     1.0000 0.13450  0.41010  0.89770  Biso   1.000  C
  C130     1.0000 0.36550  0.58990  0.39770  Biso   1.000  C
  C131     1.0000 0.86550  0.91010  0.10230  Biso   1.000  C
  C132     1.0000 0.63450  0.08990  0.60230  Biso   1.000  C
  C133     1.0000 0.86550  0.58990  0.10230  Biso   1.000  C
  C134     1.0000 0.63450  0.41010  0.60230  Biso   1.000  C
  C135     1.0000 0.13450  0.08990  0.89770  Biso   1.000  C
  C136     1.0000 0.36550  0.91010  0.39770  Biso   1.000  C
  H113     1.0000 0.17130  0.43740  0.90610  Biso   1.000  H
  H114     1.0000 0.32870  0.56260  0.40610  Biso   1.000  H
  H115     1.0000 0.82870  0.93740  0.09390  Biso   1.000  H
  H116     1.0000 0.67130  0.06260  0.59390  Biso   1.000  H
  H117     1.0000 0.82870  0.56260  0.09390  Biso   1.000  H
  H118     1.0000 0.67130  0.43740  0.59390  Biso   1.000  H
  H119     1.0000 0.17130  0.06260  0.90610  Biso   1.000  H
  H120     1.0000 0.32870  0.93740  0.40610  Biso   1.000  H
  C137     1.0000 0.10410  0.48300  0.05280  Biso   1.000  C
  C138     1.0000 0.39590  0.51700  0.55280  Biso   1.000  C
  C139     1.0000 0.89590  0.98300  0.94720  Biso   1.000  C
  C140     1.0000 0.60410  0.01700  0.44720  Biso   1.000  C
  C141     1.0000 0.89590  0.51700  0.94720  Biso   1.000  C
  C142     1.0000 0.60410  0.48300  0.44720  Biso   1.000  C
  C143     1.0000 0.10410  0.01700  0.05280  Biso   1.000  C
  C144     1.0000 0.39590  0.98300  0.55280  Biso   1.000  C
  H121     1.0000 0.14760  0.49170  0.01930  Biso   1.000  H
  H122     1.0000 0.35240  0.50830  0.51930  Biso   1.000  H
  H123     1.0000 0.85240  0.99170  0.98070  Biso   1.000  H
  H124     1.0000 0.64760  0.00830  0.48070  Biso   1.000  H
  H125     1.0000 0.85240  0.50830  0.98070  Biso   1.000  H
  H126     1.0000 0.64760  0.49170  0.48070  Biso   1.000  H
  H127     1.0000 0.14760  0.00830  0.01930  Biso   1.000  H
  H128     1.0000 0.35240  0.99170  0.51930  Biso   1.000  H
  C145     1.0000 0.07240  0.40360  0.95580  Biso   1.000  C
  C146     1.0000 0.42760  0.59640  0.45580  Biso   1.000  C
  C147     1.0000 0.92760  0.90360  0.04420  Biso   1.000  C
  C148     1.0000 0.57240  0.09640  0.54420  Biso   1.000  C
  C149     1.0000 0.92760  0.59640  0.04420  Biso   1.000  C
  C150     1.0000 0.57240  0.40360  0.54420  Biso   1.000  C
  C151     1.0000 0.07240  0.09640  0.95580  Biso   1.000  C
  C152     1.0000 0.42760  0.90360  0.45580  Biso   1.000  C
  C153     1.0000 0.05880  0.43900  0.03140  Biso   1.000  C
  C154     1.0000 0.44120  0.56100  0.53140  Biso   1.000  C
  C155     1.0000 0.94120  0.93900  0.96860  Biso   1.000  C
  C156     1.0000 0.55880  0.06100  0.46860  Biso   1.000  C
  C157     1.0000 0.94120  0.56100  0.96860  Biso   1.000  C
  C158     1.0000 0.55880  0.43900  0.46860  Biso   1.000  C
  C159     1.0000 0.05880  0.06100  0.03140  Biso   1.000  C
  C160     1.0000 0.44120  0.93900  0.53140  Biso   1.000  C
  O133     1.0000 0.50350  0.30120  0.39460  Biso   1.000  O
  O134     1.0000 0.99650  0.69880  0.89460  Biso   1.000  O
  O135     1.0000 0.49650  0.80120  0.60540  Biso   1.000  O
  O136     1.0000 0.00350  0.19880  0.10540  Biso   1.000  O
  O137     1.0000 0.49650  0.69880  0.60540  Biso   1.000  O
  O138     1.0000 0.00350  0.30120  0.10540  Biso   1.000  O
  O139     1.0000 0.50350  0.19880  0.39460  Biso   1.000  O
  O140     1.0000 0.99650  0.80120  0.89460  Biso   1.000  O
  O141     1.0000 0.97320  0.30880  0.14930  Biso   1.000  O
  O142     1.0000 0.52680  0.69120  0.64930  Biso   1.000  O
  O143     1.0000 0.02680  0.80880  0.85070  Biso   1.000  O
  O144     1.0000 0.47320  0.19120  0.35070  Biso   1.000  O
  O145     1.0000 0.02680  0.69120  0.85070  Biso   1.000  O
  O146     1.0000 0.47320  0.30880  0.35070  Biso   1.000  O
  O147     1.0000 0.97320  0.19120  0.14930  Biso   1.000  O
  O148     1.0000 0.52680  0.80880  0.64930  Biso   1.000  O
  O149     1.0000 0.34190  0.25000  0.01730  Biso   1.000  O
  O150     1.0000 0.15810  0.75000  0.51730  Biso   1.000  O
  O151     1.0000 0.65810  0.75000  0.98270  Biso   1.000  O
  O152     1.0000 0.84190  0.25000  0.48270  Biso   1.000  O
  O153     1.0000 0.15200  0.25000  0.98910  Biso   1.000  O
  O154     1.0000 0.34800  0.75000  0.48910  Biso   1.000  O
  O155     1.0000 0.84800  0.75000  0.01090  Biso   1.000  O
  O156     1.0000 0.65200  0.25000  0.51090  Biso   1.000  O
  O157     1.0000 0.27110  0.25000  0.85810  Biso   1.000  O
  O158     1.0000 0.22890  0.75000  0.35810  Biso   1.000  O
  O159     1.0000 0.72890  0.75000  0.14190  Biso   1.000  O
  O160     1.0000 0.77110  0.25000  0.64190  Biso   1.000  O
  O161     1.0000 0.36300  0.25000  0.84100  Biso   1.000  O
  O162     1.0000 0.13700  0.75000  0.34100  Biso   1.000  O
  O163     1.0000 0.63700  0.75000  0.15900  Biso   1.000  O
  O164     1.0000 0.86300  0.25000  0.65900  Biso   1.000  O
