data_image0
_cell_length_a       8.283
_cell_length_b       9.477
_cell_length_c       12.271
_cell_angle_alpha    74.251
_cell_angle_beta     82.351
_cell_angle_gamma    70.475

_symmetry_space_group_name_H-M    "P 1"
_symmetry_int_tables_number       1

loop_
  _symmetry_equiv_pos_as_xyz
  'x, y, z'

loop_
  _atom_site_label
  _atom_site_occupancy
  _atom_site_fract_x
  _atom_site_fract_y
  _atom_site_fract_z
  _atom_site_thermal_displace_type
  _atom_site_B_iso_or_equiv
  _atom_site_type_symbol
  Cu1      1.0000 0.18679  0.03636  0.06271  Biso   1.000  Cu
  Cu2      1.0000 0.81321  0.96364  0.93729  Biso   1.000  Cu
  S1       1.0000 0.43840  0.95610  0.24120  Biso   1.000  S
  S2       1.0000 0.56160  0.04390  0.75880  Biso   1.000  S
  O1       1.0000 0.07690  0.23610  0.08830  Biso   1.000  O
  O2       1.0000 0.92310  0.76390  0.91170  Biso   1.000  O
  O3       1.0000 0.29020  0.83360  0.03200  Biso   1.000  O
  O4       1.0000 0.70980  0.16640  0.96800  Biso   1.000  O
  O5       1.0000 0.29310  0.59060  0.08970  Biso   1.000  O
  O6       1.0000 0.70690  0.40940  0.91030  Biso   1.000  O
  N1       1.0000 0.04050  0.93870  0.16790  Biso   1.000  N
  N2       1.0000 0.95950  0.06130  0.83210  Biso   1.000  N
  N3       1.0000 0.32240  0.12020  0.93210  Biso   1.000  N
  N4       1.0000 0.67760  0.87980  0.06790  Biso   1.000  N
  C1       1.0000 0.23460  0.72620  0.09450  Biso   1.000  C
  C2       1.0000 0.76540  0.27380  0.90550  Biso   1.000  C
  C3       1.0000 0.08960  0.77030  0.18320  Biso   1.000  C
  C4       1.0000 0.91040  0.22970  0.81680  Biso   1.000  C
  C5       1.0000 0.90100  0.00990  0.21700  Biso   1.000  C
  C6       1.0000 0.09900  0.99010  0.78300  Biso   1.000  C
  C7       1.0000 0.84590  0.17360  0.21320  Biso   1.000  C
  C8       1.0000 0.15410  0.82640  0.78680  Biso   1.000  C
  C9       1.0000 0.69330  0.22850  0.27560  Biso   1.000  C
  C10      1.0000 0.30670  0.77150  0.72440  Biso   1.000  C
  C11      1.0000 0.62880  0.38130  0.27910  Biso   1.000  C
  C12      1.0000 0.37120  0.61870  0.72090  Biso   1.000  C
  C13      1.0000 0.71540  0.48200  0.21730  Biso   1.000  C
  C14      1.0000 0.28460  0.51800  0.78270  Biso   1.000  C
  C15      1.0000 0.86590  0.43320  0.15410  Biso   1.000  C
  C16      1.0000 0.13410  0.56680  0.84590  Biso   1.000  C
  C17      1.0000 0.93510  0.27630  0.15000  Biso   1.000  C
  C18      1.0000 0.06490  0.72370  0.85000  Biso   1.000  C
  C19      1.0000 0.57980  0.91240  0.14030  Biso   1.000  C
  C20      1.0000 0.42020  0.08760  0.85970  Biso   1.000  C
  C21      1.0000 0.15570  0.68010  0.30120  Biso   1.000  C
  C22      1.0000 0.84430  0.31990  0.69880  Biso   1.000  C
  C23      1.0000 0.02090  0.70770  0.39560  Biso   1.000  C
  C24      1.0000 0.97910  0.29230  0.60440  Biso   1.000  C
  C25      1.0000 0.87560  0.66010  0.40400  Biso   1.000  C
  C26      1.0000 0.12440  0.33990  0.59600  Biso   1.000  C
  C27      1.0000 0.74510  0.69430  0.48560  Biso   1.000  C
  C28      1.0000 0.25490  0.30570  0.51440  Biso   1.000  C
  C29      1.0000 0.76040  0.77240  0.56220  Biso   1.000  C
  C30      1.0000 0.23960  0.22760  0.43780  Biso   1.000  C
  C31      1.0000 0.90290  0.81580  0.55650  Biso   1.000  C
  C32      1.0000 0.09710  0.18420  0.44350  Biso   1.000  C
  C33      1.0000 0.03300  0.78530  0.47370  Biso   1.000  C
  C34      1.0000 0.96700  0.21470  0.52630  Biso   1.000  C
  K1       1.0000 0.39610  0.31660  0.05940  Biso   1.000  K
  K2       1.0000 0.60390  0.68340  0.94060  Biso   1.000  K
