data_image0
_cell_length_a       12.484
_cell_length_b       11.573
_cell_length_c       9.645
_cell_angle_alpha    90
_cell_angle_beta     108.91
_cell_angle_gamma    90

_symmetry_space_group_name_H-M    "P 1"
_symmetry_int_tables_number       1

loop_
  _symmetry_equiv_pos_as_xyz
  'x, y, z'

loop_
  _atom_site_label
  _atom_site_occupancy
  _atom_site_fract_x
  _atom_site_fract_y
  _atom_site_fract_z
  _atom_site_thermal_displace_type
  _atom_site_B_iso_or_equiv
  _atom_site_type_symbol
  Cu1      1.0000 0.23642  0.08527  0.66313  Biso   1.000  Cu
  Cu2      1.0000 0.76358  0.58527  0.83687  Biso   1.000  Cu
  Cu3      1.0000 0.76358  0.91473  0.33687  Biso   1.000  Cu
  Cu4      1.0000 0.23642  0.41473  0.16313  Biso   1.000  Cu
  O1       1.0000 0.13370  0.00930  0.74460  Biso   1.000  O
  O2       1.0000 0.86630  0.50930  0.75540  Biso   1.000  O
  O3       1.0000 0.86630  0.99070  0.25540  Biso   1.000  O
  O4       1.0000 0.13370  0.49070  0.24460  Biso   1.000  O
  O5       1.0000 0.32790  0.16180  0.55460  Biso   1.000  O
  O6       1.0000 0.67210  0.66180  0.94540  Biso   1.000  O
  O7       1.0000 0.67210  0.83820  0.44540  Biso   1.000  O
  O8       1.0000 0.32790  0.33820  0.05460  Biso   1.000  O
  O9       1.0000 0.31920  0.21700  0.87370  Biso   1.000  O
  O10      1.0000 0.68080  0.71700  0.62630  Biso   1.000  O
  O11      1.0000 0.68080  0.78300  0.12630  Biso   1.000  O
  O12      1.0000 0.31920  0.28300  0.37370  Biso   1.000  O
  N1       1.0000 0.11560  0.17890  0.53260  Biso   1.000  N
  N2       1.0000 0.88440  0.67890  0.96740  Biso   1.000  N
  N3       1.0000 0.88440  0.82110  0.46740  Biso   1.000  N
  N4       1.0000 0.11560  0.32110  0.03260  Biso   1.000  N
  N5       1.0000 0.35870  0.97090  0.74520  Biso   1.000  N
  N6       1.0000 0.64130  0.47090  0.75480  Biso   1.000  N
  N7       1.0000 0.64130  0.02910  0.25480  Biso   1.000  N
  N8       1.0000 0.35870  0.52910  0.24520  Biso   1.000  N
  N9       1.0000 0.47590  0.84100  0.87250  Biso   1.000  N
  N10      1.0000 0.52410  0.34100  0.62750  Biso   1.000  N
  N11      1.0000 0.52410  0.15900  0.12750  Biso   1.000  N
  N12      1.0000 0.47590  0.65900  0.37250  Biso   1.000  N
  C1       1.0000 0.02730  0.03300  0.72110  Biso   1.000  C
  C2       1.0000 0.97270  0.53300  0.77890  Biso   1.000  C
  C3       1.0000 0.97270  0.96700  0.27890  Biso   1.000  C
  C4       1.0000 0.02730  0.46700  0.22110  Biso   1.000  C
  C5       1.0000 0.96280  0.11290  0.61390  Biso   1.000  C
  C6       1.0000 0.03720  0.61290  0.88610  Biso   1.000  C
  C7       1.0000 0.03720  0.88710  0.38610  Biso   1.000  C
  C8       1.0000 0.96280  0.38710  0.11390  Biso   1.000  C
  C9       1.0000 0.84880  0.13190  0.59760  Biso   1.000  C
  C10      1.0000 0.15120  0.63190  0.90240  Biso   1.000  C
  C11      1.0000 0.15120  0.86810  0.40240  Biso   1.000  C
  C12      1.0000 0.84880  0.36810  0.09760  Biso   1.000  C
  C13      1.0000 0.79780  0.07810  0.68580  Biso   1.000  C
  C14      1.0000 0.20220  0.57810  0.81420  Biso   1.000  C
  C15      1.0000 0.20220  0.92190  0.31420  Biso   1.000  C
  C16      1.0000 0.79780  0.42190  0.18580  Biso   1.000  C
  C17      1.0000 0.85960  0.00220  0.79080  Biso   1.000  C
  C18      1.0000 0.14040  0.50220  0.70920  Biso   1.000  C
  C19      1.0000 0.14040  0.99780  0.20920  Biso   1.000  C
  C20      1.0000 0.85960  0.49780  0.29080  Biso   1.000  C
  C21      1.0000 0.97130  0.97840  0.80780  Biso   1.000  C
  C22      1.0000 0.02870  0.47840  0.69220  Biso   1.000  C
  C23      1.0000 0.02870  0.02160  0.19220  Biso   1.000  C
  C24      1.0000 0.97130  0.52160  0.30780  Biso   1.000  C
  C25      1.0000 0.01000  0.17650  0.52000  Biso   1.000  C
  C26      1.0000 0.99000  0.67650  0.98000  Biso   1.000  C
  C27      1.0000 0.99000  0.82350  0.48000  Biso   1.000  C
  C28      1.0000 0.01000  0.32350  0.02000  Biso   1.000  C
  C29      1.0000 0.15190  0.24980  0.43150  Biso   1.000  C
  C30      1.0000 0.84810  0.74980  0.06850  Biso   1.000  C
  C31      1.0000 0.84810  0.75020  0.56850  Biso   1.000  C
  C32      1.0000 0.15190  0.25020  0.93150  Biso   1.000  C
  C33      1.0000 0.27540  0.23020  0.45270  Biso   1.000  C
  C34      1.0000 0.72460  0.73020  0.04730  Biso   1.000  C
  C35      1.0000 0.72460  0.76980  0.54730  Biso   1.000  C
  C36      1.0000 0.27540  0.26980  0.95270  Biso   1.000  C
  C37      1.0000 0.39060  0.91180  0.86960  Biso   1.000  C
  C38      1.0000 0.60940  0.41180  0.63040  Biso   1.000  C
  C39      1.0000 0.60940  0.08820  0.13040  Biso   1.000  C
  C40      1.0000 0.39060  0.58820  0.36960  Biso   1.000  C
  C41      1.0000 0.50010  0.85550  0.74530  Biso   1.000  C
  C42      1.0000 0.49990  0.35550  0.75470  Biso   1.000  C
  C43      1.0000 0.49990  0.14450  0.25470  Biso   1.000  C
  C44      1.0000 0.50010  0.64450  0.24530  Biso   1.000  C
  C45      1.0000 0.42980  0.93560  0.66790  Biso   1.000  C
  C46      1.0000 0.57020  0.43560  0.83210  Biso   1.000  C
  C47      1.0000 0.57020  0.06440  0.33210  Biso   1.000  C
  C48      1.0000 0.42980  0.56440  0.16790  Biso   1.000  C
  C49      1.0000 0.34290  0.92030  0.99180  Biso   1.000  C
  C50      1.0000 0.65710  0.42030  0.50820  Biso   1.000  C
  C51      1.0000 0.65710  0.07970  0.00820  Biso   1.000  C
  C52      1.0000 0.34290  0.57970  0.49180  Biso   1.000  C
  H1       1.0000 0.79900  0.19000  0.51300  Biso   1.000  H
  H2       1.0000 0.20100  0.69000  0.98700  Biso   1.000  H
  H3       1.0000 0.20100  0.81000  0.48700  Biso   1.000  H
  H4       1.0000 0.79900  0.31000  0.01300  Biso   1.000  H
  H5       1.0000 0.71000  0.09500  0.67500  Biso   1.000  H
  H6       1.0000 0.29000  0.59500  0.82500  Biso   1.000  H
  H7       1.0000 0.29000  0.90500  0.32500  Biso   1.000  H
  H8       1.0000 0.71000  0.40500  0.17500  Biso   1.000  H
  H9       1.0000 0.82000  0.96200  0.86000  Biso   1.000  H
  H10      1.0000 0.18000  0.46200  0.64000  Biso   1.000  H
  H11      1.0000 0.18000  0.03800  0.14000  Biso   1.000  H
  H12      1.0000 0.82000  0.53800  0.36000  Biso   1.000  H
  H13      1.0000 0.01700  0.91600  0.89000  Biso   1.000  H
  H14      1.0000 0.98300  0.41600  0.61000  Biso   1.000  H
  H15      1.0000 0.98300  0.08400  0.11000  Biso   1.000  H
  H16      1.0000 0.01700  0.58400  0.39000  Biso   1.000  H
  H17      1.0000 0.95200  0.22700  0.43300  Biso   1.000  H
  H18      1.0000 0.04800  0.72700  0.06700  Biso   1.000  H
  H19      1.0000 0.04800  0.77300  0.56700  Biso   1.000  H
  H20      1.0000 0.95200  0.27300  0.93300  Biso   1.000  H
  H21      1.0000 0.11100  0.22800  0.33600  Biso   1.000  H
  H22      1.0000 0.88900  0.72800  0.16400  Biso   1.000  H
  H23      1.0000 0.88900  0.77200  0.66400  Biso   1.000  H
  H24      1.0000 0.11100  0.27200  0.83600  Biso   1.000  H
  H25      1.0000 0.14700  0.33300  0.44800  Biso   1.000  H
  H26      1.0000 0.85300  0.83300  0.05200  Biso   1.000  H
  H27      1.0000 0.85300  0.66700  0.55200  Biso   1.000  H
  H28      1.0000 0.14700  0.16700  0.94800  Biso   1.000  H
  H29      1.0000 0.51800  0.78200  0.95900  Biso   1.000  H
  H30      1.0000 0.48200  0.28200  0.54100  Biso   1.000  H
  H31      1.0000 0.48200  0.21800  0.04100  Biso   1.000  H
  H32      1.0000 0.51800  0.71800  0.45900  Biso   1.000  H
  H33      1.0000 0.54800  0.81300  0.72000  Biso   1.000  H
  H34      1.0000 0.45200  0.31300  0.78000  Biso   1.000  H
  H35      1.0000 0.45200  0.18700  0.28000  Biso   1.000  H
  H36      1.0000 0.54800  0.68700  0.22000  Biso   1.000  H
  H37      1.0000 0.42800  0.96900  0.56100  Biso   1.000  H
  H38      1.0000 0.57200  0.46900  0.93900  Biso   1.000  H
  H39      1.0000 0.57200  0.03100  0.43900  Biso   1.000  H
  H40      1.0000 0.42800  0.53100  0.06100  Biso   1.000  H
  H41      1.0000 0.25200  0.89800  0.95200  Biso   1.000  H
  H42      1.0000 0.74800  0.39800  0.54800  Biso   1.000  H
  H43      1.0000 0.74800  0.10200  0.04800  Biso   1.000  H
  H44      1.0000 0.25200  0.60200  0.45200  Biso   1.000  H
  H45      1.0000 0.35500  0.01000  0.03700  Biso   1.000  H
  H46      1.0000 0.64500  0.51000  0.46300  Biso   1.000  H
  H47      1.0000 0.64500  0.99000  0.96300  Biso   1.000  H
  H48      1.0000 0.35500  0.49000  0.53700  Biso   1.000  H
  H49      1.0000 0.38900  0.85900  0.08100  Biso   1.000  H
  H50      1.0000 0.61100  0.35900  0.41900  Biso   1.000  H
  H51      1.0000 0.61100  0.14100  0.91900  Biso   1.000  H
  H52      1.0000 0.38900  0.64100  0.58100  Biso   1.000  H
