data_image0
_cell_length_a       8.2937
_cell_length_b       9.4832
_cell_length_c       11.8774
_cell_angle_alpha    74.953
_cell_angle_beta     83.537
_cell_angle_gamma    70.676

_symmetry_space_group_name_H-M    "P 1"
_symmetry_int_tables_number       1

loop_
  _symmetry_equiv_pos_as_xyz
  'x, y, z'

loop_
  _atom_site_label
  _atom_site_occupancy
  _atom_site_fract_x
  _atom_site_fract_y
  _atom_site_fract_z
  _atom_site_thermal_displace_type
  _atom_site_B_iso_or_equiv
  _atom_site_type_symbol
  Cu1      1.0000 0.18755  0.04237  0.06302  Biso   1.000  Cu
  Cu2      1.0000 0.81245  0.95763  0.93698  Biso   1.000  Cu
  K1       1.0000 0.60249  0.68112  0.93816  Biso   1.000  K
  K2       1.0000 0.39751  0.31888  0.06184  Biso   1.000  K
  S1       1.0000 0.56109  0.03765  0.75606  Biso   1.000  S
  S2       1.0000 0.43891  0.96235  0.24394  Biso   1.000  S
  O1       1.0000 0.29380  0.84070  0.02980  Biso   1.000  O
  O2       1.0000 0.70620  0.15930  0.97020  Biso   1.000  O
  O3       1.0000 0.30390  0.59570  0.08820  Biso   1.000  O
  O4       1.0000 0.69610  0.40430  0.91180  Biso   1.000  O
  O5       1.0000 0.07340  0.24190  0.08870  Biso   1.000  O
  O6       1.0000 0.92660  0.75810  0.91130  Biso   1.000  O
  N1       1.0000 0.31990  0.12820  0.92970  Biso   1.000  N
  N2       1.0000 0.68010  0.87180  0.07030  Biso   1.000  N
  N3       1.0000 0.04360  0.94210  0.16870  Biso   1.000  N
  N4       1.0000 0.95640  0.05790  0.83130  Biso   1.000  N
  C1       1.0000 0.42010  0.09000  0.85650  Biso   1.000  C
  C2       1.0000 0.57990  0.91000  0.14350  Biso   1.000  C
  C3       1.0000 0.24220  0.73030  0.09390  Biso   1.000  C
  C4       1.0000 0.75780  0.26970  0.90610  Biso   1.000  C
  C5       1.0000 0.09590  0.77480  0.18270  Biso   1.000  C
  C6       1.0000 0.90410  0.22520  0.81730  Biso   1.000  C
  H1       1.0000 0.99680  0.74580  0.16660  Biso   1.000  H
  H2       1.0000 0.00320  0.25420  0.83340  Biso   1.000  H
  C7       1.0000 0.90390  0.01250  0.21850  Biso   1.000  C
  C8       1.0000 0.09610  0.98750  0.78150  Biso   1.000  C
  H3       1.0000 0.83470  0.95290  0.26050  Biso   1.000  H
  H4       1.0000 0.16530  0.04710  0.73950  Biso   1.000  H
  C9       1.0000 0.84540  0.17540  0.21490  Biso   1.000  C
  C10      1.0000 0.15460  0.82460  0.78510  Biso   1.000  C
  C11      1.0000 0.93190  0.28000  0.15160  Biso   1.000  C
  C12      1.0000 0.06810  0.72000  0.84840  Biso   1.000  C
  C13      1.0000 0.85750  0.43620  0.15720  Biso   1.000  C
  C14      1.0000 0.14250  0.56380  0.84280  Biso   1.000  C
  H5       1.0000 0.91140  0.50940  0.11590  Biso   1.000  H
  H6       1.0000 0.08860  0.49060  0.88410  Biso   1.000  H
  C15      1.0000 0.70950  0.48390  0.22080  Biso   1.000  C
  C16      1.0000 0.29050  0.51610  0.77920  Biso   1.000  C
  H7       1.0000 0.66300  0.58940  0.22240  Biso   1.000  H
  H8       1.0000 0.33700  0.41060  0.77760  Biso   1.000  H
  C17      1.0000 0.62590  0.38020  0.28330  Biso   1.000  C
  C18      1.0000 0.37410  0.61980  0.71670  Biso   1.000  C
  H9       1.0000 0.52360  0.41430  0.32720  Biso   1.000  H
  H10      1.0000 0.47640  0.58570  0.67280  Biso   1.000  H
  C19      1.0000 0.69400  0.22870  0.28020  Biso   1.000  C
  C20      1.0000 0.30600  0.77130  0.71980  Biso   1.000  C
  H11      1.0000 0.63830  0.15760  0.32300  Biso   1.000  H
  H12      1.0000 0.36170  0.84240  0.67700  Biso   1.000  H
  C21      1.0000 0.16000  0.68480  0.30700  Biso   1.000  C
  C22      1.0000 0.84000  0.31520  0.69300  Biso   1.000  C
  H13      1.0000 0.20620  0.57370  0.30900  Biso   1.000  H
  H14      1.0000 0.79380  0.42630  0.69100  Biso   1.000  H
  H15      1.0000 0.25430  0.71760  0.32410  Biso   1.000  H
  H16      1.0000 0.74570  0.28240  0.67590  Biso   1.000  H
  C23      1.0000 0.02200  0.70920  0.39990  Biso   1.000  C
  C24      1.0000 0.97800  0.29080  0.60010  Biso   1.000  C
  C25      1.0000 0.02290  0.79110  0.48170  Biso   1.000  C
  C26      1.0000 0.97710  0.20890  0.51830  Biso   1.000  C
  H17      1.0000 0.11660  0.82750  0.48230  Biso   1.000  H
  H18      1.0000 0.88340  0.17250  0.51770  Biso   1.000  H
  C27      1.0000 0.88890  0.81980  0.56210  Biso   1.000  C
  C28      1.0000 0.11110  0.18020  0.43790  Biso   1.000  C
  H19      1.0000 0.89190  0.87460  0.61800  Biso   1.000  H
  H20      1.0000 0.10810  0.12540  0.38200  Biso   1.000  H
  C29      1.0000 0.75100  0.76920  0.56150  Biso   1.000  C
  C30      1.0000 0.24900  0.23080  0.43850  Biso   1.000  C
  H21      1.0000 0.65760  0.79180  0.61530  Biso   1.000  H
  H22      1.0000 0.34240  0.20820  0.38470  Biso   1.000  H
  C31      1.0000 0.74920  0.68520  0.48230  Biso   1.000  C
  C32      1.0000 0.25080  0.31480  0.51770  Biso   1.000  C
  H23      1.0000 0.65570  0.64830  0.48260  Biso   1.000  H
  H24      1.0000 0.34430  0.35170  0.51740  Biso   1.000  H
  C33      1.0000 0.88350  0.65540  0.40300  Biso   1.000  C
  C34      1.0000 0.11650  0.34460  0.59700  Biso   1.000  C
  H25      1.0000 0.88180  0.59710  0.34940  Biso   1.000  H
  H26      1.0000 0.11820  0.40290  0.65060  Biso   1.000  H
