data_image0
_cell_length_a       16.1959
_cell_length_b       19.5118
_cell_length_c       20.5819
_cell_angle_alpha    90
_cell_angle_beta     117.811
_cell_angle_gamma    90

_symmetry_space_group_name_H-M    "P 1"
_symmetry_int_tables_number       1

loop_
  _symmetry_equiv_pos_as_xyz
  'x, y, z'

loop_
  _atom_site_label
  _atom_site_occupancy
  _atom_site_fract_x
  _atom_site_fract_y
  _atom_site_fract_z
  _atom_site_thermal_displace_type
  _atom_site_B_iso_or_equiv
  _atom_site_type_symbol
  W1       1.0000 0.38779  0.36385  0.46360  Biso   1.000  W
  W2       1.0000 0.61221  0.86385  0.03640  Biso   1.000  W
  W3       1.0000 0.61221  0.63615  0.53640  Biso   1.000  W
  W4       1.0000 0.38779  0.13615  0.96360  Biso   1.000  W
  W5       1.0000 0.17366  0.39634  0.31543  Biso   1.000  W
  W6       1.0000 0.82634  0.89634  0.18457  Biso   1.000  W
  W7       1.0000 0.82634  0.60366  0.68457  Biso   1.000  W
  W8       1.0000 0.17366  0.10366  0.81543  Biso   1.000  W
  W9       1.0000 0.29252  0.24794  0.32193  Biso   1.000  W
  W10      1.0000 0.70748  0.74794  0.17807  Biso   1.000  W
  W11      1.0000 0.70748  0.75206  0.67807  Biso   1.000  W
  W12      1.0000 0.29252  0.25206  0.82193  Biso   1.000  W
  W13      1.0000 0.96984  0.29687  0.29013  Biso   1.000  W
  W14      1.0000 0.03016  0.79687  0.20987  Biso   1.000  W
  W15      1.0000 0.03016  0.70313  0.70987  Biso   1.000  W
  W16      1.0000 0.96984  0.20313  0.79013  Biso   1.000  W
  W17      1.0000 0.08542  0.14700  0.29741  Biso   1.000  W
  W18      1.0000 0.91458  0.64700  0.20259  Biso   1.000  W
  W19      1.0000 0.91458  0.85300  0.70259  Biso   1.000  W
  W20      1.0000 0.08542  0.35300  0.79741  Biso   1.000  W
  W21      1.0000 0.98961  0.17251  0.41356  Biso   1.000  W
  W22      1.0000 0.01039  0.67251  0.08644  Biso   1.000  W
  W23      1.0000 0.01039  0.82749  0.58644  Biso   1.000  W
  W24      1.0000 0.98961  0.32749  0.91356  Biso   1.000  W
  W25      1.0000 0.10702  0.30118  0.56700  Biso   1.000  W
  W26      1.0000 0.89298  0.80118  0.93300  Biso   1.000  W
  W27      1.0000 0.89298  0.69882  0.43300  Biso   1.000  W
  W28      1.0000 0.10702  0.19882  0.06700  Biso   1.000  W
  W29      1.0000 0.21974  0.13440  0.56833  Biso   1.000  W
  W30      1.0000 0.78026  0.63440  0.93167  Biso   1.000  W
  W31      1.0000 0.78026  0.86560  0.43167  Biso   1.000  W
  W32      1.0000 0.21974  0.36560  0.06833  Biso   1.000  W
  W33      1.0000 0.41267  0.22999  0.60062  Biso   1.000  W
  W34      1.0000 0.58733  0.72999  0.89938  Biso   1.000  W
  W35      1.0000 0.58733  0.77001  0.39938  Biso   1.000  W
  W36      1.0000 0.41267  0.27001  0.10062  Biso   1.000  W
  W37      1.0000 0.07686  0.42591  0.44475  Biso   1.000  W
  W38      1.0000 0.92314  0.92591  0.05525  Biso   1.000  W
  W39      1.0000 0.92314  0.57409  0.55525  Biso   1.000  W
  W40      1.0000 0.07686  0.07409  0.94475  Biso   1.000  W
  W41      1.0000 0.31957  0.11284  0.45614  Biso   1.000  W
  W42      1.0000 0.68043  0.61284  0.04386  Biso   1.000  W
  W43      1.0000 0.68043  0.88716  0.54386  Biso   1.000  W
  W44      1.0000 0.31957  0.38716  0.95614  Biso   1.000  W
  Cu1      1.0000 0.30677  0.49095  0.55619  Biso   1.000  Cu
  Cu2      1.0000 0.69323  0.99095  0.94381  Biso   1.000  Cu
  Cu3      1.0000 0.69323  0.50905  0.44381  Biso   1.000  Cu
  Cu4      1.0000 0.30677  0.00905  0.05619  Biso   1.000  Cu
  Cu5      1.0000 0.33651  0.13706  0.19370  Biso   1.000  Cu
  Cu6      1.0000 0.66349  0.63706  0.30630  Biso   1.000  Cu
  Cu7      1.0000 0.66349  0.86294  0.80630  Biso   1.000  Cu
  Cu8      1.0000 0.33651  0.36294  0.69370  Biso   1.000  Cu
  Cu9      1.0000 0.91839  0.22946  0.10272  Biso   1.000  Cu
  Cu10     1.0000 0.08161  0.72946  0.39728  Biso   1.000  Cu
  Cu11     1.0000 0.08161  0.77054  0.89728  Biso   1.000  Cu
  Cu12     1.0000 0.91839  0.27054  0.60272  Biso   1.000  Cu
  P1       1.0000 0.19128  0.26809  0.44433  Biso   1.000  P
  P2       1.0000 0.80872  0.76809  0.05567  Biso   1.000  P
  P3       1.0000 0.80872  0.73191  0.55567  Biso   1.000  P
  P4       1.0000 0.19128  0.23191  0.94433  Biso   1.000  P
  O1       1.0000 0.34360  0.40340  0.52850  Biso   1.000  O
  O2       1.0000 0.65640  0.90340  0.97150  Biso   1.000  O
  O3       1.0000 0.65640  0.59660  0.47150  Biso   1.000  O
  O4       1.0000 0.34360  0.09660  0.02850  Biso   1.000  O
  O5       1.0000 0.32710  0.54620  0.46600  Biso   1.000  O
  O6       1.0000 0.67290  0.04620  0.03400  Biso   1.000  O
  O7       1.0000 0.67290  0.45380  0.53400  Biso   1.000  O
  O8       1.0000 0.32710  0.95380  0.96600  Biso   1.000  O
  O9       1.0000 0.17960  0.46270  0.51550  Biso   1.000  O
  O10      1.0000 0.82040  0.96270  0.98450  Biso   1.000  O
  O11      1.0000 0.82040  0.53730  0.48450  Biso   1.000  O
  O12      1.0000 0.17960  0.03730  0.01550  Biso   1.000  O
  O13      1.0000 0.89560  0.12960  0.10410  Biso   1.000  O
  O14      1.0000 0.10440  0.62960  0.39590  Biso   1.000  O
  O15      1.0000 0.10440  0.87040  0.89590  Biso   1.000  O
  O16      1.0000 0.89560  0.37040  0.60410  Biso   1.000  O
  O17      1.0000 0.49060  0.40980  0.49170  Biso   1.000  O
  O18      1.0000 0.50940  0.90980  0.00830  Biso   1.000  O
  O19      1.0000 0.50940  0.59020  0.50830  Biso   1.000  O
  O20      1.0000 0.49060  0.09020  0.99170  Biso   1.000  O
  O21      1.0000 0.30150  0.41980  0.38950  Biso   1.000  O
  O22      1.0000 0.69850  0.91980  0.11050  Biso   1.000  O
  O23      1.0000 0.69850  0.58020  0.61050  Biso   1.000  O
  O24      1.0000 0.30150  0.08020  0.88950  Biso   1.000  O
  O25      1.0000 0.39300  0.30390  0.39080  Biso   1.000  O
  O26      1.0000 0.60700  0.80390  0.10920  Biso   1.000  O
  O27      1.0000 0.60700  0.69610  0.60920  Biso   1.000  O
  O28      1.0000 0.39300  0.19610  0.89080  Biso   1.000  O
  O29      1.0000 0.42470  0.28880  0.53000  Biso   1.000  O
  O30      1.0000 0.57530  0.78880  0.97000  Biso   1.000  O
  O31      1.0000 0.57530  0.71120  0.47000  Biso   1.000  O
  O32      1.0000 0.42470  0.21120  0.03000  Biso   1.000  O
  O33      1.0000 0.24110  0.30460  0.40640  Biso   1.000  O
  O34      1.0000 0.75890  0.80460  0.09360  Biso   1.000  O
  O35      1.0000 0.75890  0.69540  0.59360  Biso   1.000  O
  O36      1.0000 0.24110  0.19540  0.90640  Biso   1.000  O
  O37      1.0000 0.15060  0.46190  0.25600  Biso   1.000  O
  O38      1.0000 0.84940  0.96190  0.24400  Biso   1.000  O
  O39      1.0000 0.84940  0.53810  0.74400  Biso   1.000  O
  O40      1.0000 0.15060  0.03810  0.75600  Biso   1.000  O
  O41      1.0000 0.33660  0.22200  0.26410  Biso   1.000  O
  O42      1.0000 0.66340  0.72200  0.23590  Biso   1.000  O
  O43      1.0000 0.66340  0.77800  0.73590  Biso   1.000  O
  O44      1.0000 0.33660  0.27800  0.76410  Biso   1.000  O
  O45      1.0000 0.23240  0.33110  0.27880  Biso   1.000  O
  O46      1.0000 0.76760  0.83110  0.22120  Biso   1.000  O
  O47      1.0000 0.76760  0.66890  0.72120  Biso   1.000  O
  O48      1.0000 0.23240  0.16890  0.77880  Biso   1.000  O
  O49      1.0000 0.13460  0.43230  0.37950  Biso   1.000  O
  O50      1.0000 0.86540  0.93230  0.12050  Biso   1.000  O
  O51      1.0000 0.86540  0.56770  0.62050  Biso   1.000  O
  O52      1.0000 0.13460  0.06770  0.87950  Biso   1.000  O
  O53      1.0000 0.06640  0.34370  0.27400  Biso   1.000  O
  O54      1.0000 0.93360  0.84370  0.22600  Biso   1.000  O
  O55      1.0000 0.93360  0.65630  0.72600  Biso   1.000  O
  O56      1.0000 0.06640  0.15630  0.77400  Biso   1.000  O
  O57      1.0000 0.17710  0.20440  0.28560  Biso   1.000  O
  O58      1.0000 0.82290  0.70440  0.21440  Biso   1.000  O
  O59      1.0000 0.82290  0.79560  0.71440  Biso   1.000  O
  O60      1.0000 0.17710  0.29560  0.78560  Biso   1.000  O
  O61      1.0000 0.33840  0.17910  0.39530  Biso   1.000  O
  O62      1.0000 0.66160  0.67910  0.10470  Biso   1.000  O
  O63      1.0000 0.66160  0.82090  0.60470  Biso   1.000  O
  O64      1.0000 0.33840  0.32090  0.89530  Biso   1.000  O
  O65      1.0000 0.87020  0.32640  0.21890  Biso   1.000  O
  O66      1.0000 0.12980  0.82640  0.28110  Biso   1.000  O
  O67      1.0000 0.12980  0.67360  0.78110  Biso   1.000  O
  O68      1.0000 0.87020  0.17360  0.71890  Biso   1.000  O
  O69      1.0000 0.05890  0.08640  0.23000  Biso   1.000  O
  O70      1.0000 0.94110  0.58640  0.27000  Biso   1.000  O
  O71      1.0000 0.94110  0.91360  0.77000  Biso   1.000  O
  O72      1.0000 0.05890  0.41360  0.73000  Biso   1.000  O
  O73      1.0000 0.99440  0.21640  0.24220  Biso   1.000  O
  O74      1.0000 0.00560  0.71640  0.25780  Biso   1.000  O
  O75      1.0000 0.00560  0.78360  0.75780  Biso   1.000  O
  O76      1.0000 0.99440  0.28360  0.74220  Biso   1.000  O
  O77      1.0000 0.91860  0.23190  0.33180  Biso   1.000  O
  O78      1.0000 0.08140  0.73190  0.16820  Biso   1.000  O
  O79      1.0000 0.08140  0.76810  0.66820  Biso   1.000  O
  O80      1.0000 0.91860  0.26810  0.83180  Biso   1.000  O
  O81      1.0000 0.10110  0.23520  0.38440  Biso   1.000  O
  O82      1.0000 0.89890  0.73520  0.11560  Biso   1.000  O
  O83      1.0000 0.89890  0.76480  0.61560  Biso   1.000  O
  O84      1.0000 0.10110  0.26480  0.88440  Biso   1.000  O
  O85      1.0000 0.19360  0.10910  0.37860  Biso   1.000  O
  O86      1.0000 0.80640  0.60910  0.12140  Biso   1.000  O
  O87      1.0000 0.80640  0.89090  0.62140  Biso   1.000  O
  O88      1.0000 0.19360  0.39090  0.87860  Biso   1.000  O
  O89      1.0000 0.99390  0.35960  0.36490  Biso   1.000  O
  O90      1.0000 0.00610  0.85960  0.13510  Biso   1.000  O
  O91      1.0000 0.00610  0.64040  0.63510  Biso   1.000  O
  O92      1.0000 0.99390  0.14040  0.86490  Biso   1.000  O
  O93      1.0000 0.01280  0.11910  0.34110  Biso   1.000  O
  O94      1.0000 0.98720  0.61910  0.15890  Biso   1.000  O
  O95      1.0000 0.98720  0.88090  0.65890  Biso   1.000  O
  O96      1.0000 0.01280  0.38090  0.84110  Biso   1.000  O
  O97      1.0000 0.90080  0.12760  0.41710  Biso   1.000  O
  O98      1.0000 0.09920  0.62760  0.08290  Biso   1.000  O
  O99      1.0000 0.09920  0.87240  0.58290  Biso   1.000  O
  O100     1.0000 0.90080  0.37240  0.91710  Biso   1.000  O
  O101     1.0000 0.01580  0.24190  0.48070  Biso   1.000  O
  O102     1.0000 0.98420  0.74190  0.01930  Biso   1.000  O
  O103     1.0000 0.98420  0.75810  0.51930  Biso   1.000  O
  O104     1.0000 0.01580  0.25810  0.98070  Biso   1.000  O
  O105     1.0000 0.09970  0.12700  0.48430  Biso   1.000  O
  O106     1.0000 0.90030  0.62700  0.01570  Biso   1.000  O
  O107     1.0000 0.90030  0.87300  0.51570  Biso   1.000  O
  O108     1.0000 0.09970  0.37300  0.98430  Biso   1.000  O
  O109     1.0000 0.21080  0.07530  0.62550  Biso   1.000  O
  O110     1.0000 0.78920  0.57530  0.87450  Biso   1.000  O
  O111     1.0000 0.78920  0.92470  0.37450  Biso   1.000  O
  O112     1.0000 0.21080  0.42470  0.12550  Biso   1.000  O
  O113     1.0000 0.04330  0.28950  0.61560  Biso   1.000  O
  O114     1.0000 0.95670  0.78950  0.88440  Biso   1.000  O
  O115     1.0000 0.95670  0.71050  0.38440  Biso   1.000  O
  O116     1.0000 0.04330  0.21050  0.11560  Biso   1.000  O
  O117     1.0000 0.26940  0.08000  0.51900  Biso   1.000  O
  O118     1.0000 0.73060  0.58000  0.98100  Biso   1.000  O
  O119     1.0000 0.73060  0.92000  0.48100  Biso   1.000  O
  O120     1.0000 0.26940  0.42000  0.01900  Biso   1.000  O
  O121     1.0000 0.34670  0.16690  0.63030  Biso   1.000  O
  O122     1.0000 0.65330  0.66690  0.86970  Biso   1.000  O
  O123     1.0000 0.65330  0.83310  0.36970  Biso   1.000  O
  O124     1.0000 0.34670  0.33310  0.13030  Biso   1.000  O
  O125     1.0000 0.17440  0.21560  0.59080  Biso   1.000  O
  O126     1.0000 0.82560  0.71560  0.90920  Biso   1.000  O
  O127     1.0000 0.82560  0.78440  0.40920  Biso   1.000  O
  O128     1.0000 0.17440  0.28440  0.09080  Biso   1.000  O
  O129     1.0000 0.25570  0.21250  0.49440  Biso   1.000  O
  O130     1.0000 0.74430  0.71250  0.00560  Biso   1.000  O
  O131     1.0000 0.74430  0.78750  0.50560  Biso   1.000  O
  O132     1.0000 0.25570  0.28750  0.99440  Biso   1.000  O
  O133     1.0000 0.16620  0.31880  0.48930  Biso   1.000  O
  O134     1.0000 0.83380  0.81880  0.01070  Biso   1.000  O
  O135     1.0000 0.83380  0.68120  0.51070  Biso   1.000  O
  O136     1.0000 0.16620  0.18120  0.98930  Biso   1.000  O
  O137     1.0000 0.20470  0.34750  0.63170  Biso   1.000  O
  O138     1.0000 0.79530  0.84750  0.86830  Biso   1.000  O
  O139     1.0000 0.79530  0.65250  0.36830  Biso   1.000  O
  O140     1.0000 0.20470  0.15250  0.13170  Biso   1.000  O
  O141     1.0000 0.04060  0.37760  0.50740  Biso   1.000  O
  O142     1.0000 0.95940  0.87760  0.99260  Biso   1.000  O
  O143     1.0000 0.95940  0.62240  0.49260  Biso   1.000  O
  O144     1.0000 0.04060  0.12240  0.00740  Biso   1.000  O
  O145     1.0000 0.00150  0.49490  0.41710  Biso   1.000  O
  O146     1.0000 0.99850  0.99490  0.08290  Biso   1.000  O
  O147     1.0000 0.99850  0.50510  0.58290  Biso   1.000  O
  O148     1.0000 0.00150  0.00510  0.91710  Biso   1.000  O
  O149     1.0000 0.52510  0.22320  0.67030  Biso   1.000  O
  O150     1.0000 0.47490  0.72320  0.82970  Biso   1.000  O
  O151     1.0000 0.47490  0.77680  0.32970  Biso   1.000  O
  O152     1.0000 0.52510  0.27680  0.17030  Biso   1.000  O
  O153     1.0000 0.36880  0.30420  0.63010  Biso   1.000  O
  O154     1.0000 0.63120  0.80420  0.86990  Biso   1.000  O
  O155     1.0000 0.63120  0.69580  0.36990  Biso   1.000  O
  O156     1.0000 0.36880  0.19580  0.13010  Biso   1.000  O
  O157     1.0000 0.36850  0.04020  0.44390  Biso   1.000  O
  O158     1.0000 0.63150  0.54020  0.05610  Biso   1.000  O
  O159     1.0000 0.63150  0.95980  0.55610  Biso   1.000  O
  O160     1.0000 0.36850  0.45980  0.94390  Biso   1.000  O
  O161     1.0000 0.41720  0.15210  0.53880  Biso   1.000  O
  O162     1.0000 0.58280  0.65210  0.96120  Biso   1.000  O
  O163     1.0000 0.58280  0.84790  0.46120  Biso   1.000  O
  O164     1.0000 0.41720  0.34790  0.03880  Biso   1.000  O
  N1       1.0000 0.43530  0.51590  0.62930  Biso   1.000  N
  N2       1.0000 0.56470  0.01590  0.87070  Biso   1.000  N
  N3       1.0000 0.56470  0.48410  0.37070  Biso   1.000  N
  N4       1.0000 0.43530  0.98410  0.12930  Biso   1.000  N
  N5       1.0000 0.27950  0.57800  0.59240  Biso   1.000  N
  N6       1.0000 0.72050  0.07800  0.90760  Biso   1.000  N
  N7       1.0000 0.72050  0.42200  0.40760  Biso   1.000  N
  N8       1.0000 0.27950  0.92200  0.09240  Biso   1.000  N
  N9       1.0000 0.46740  0.10920  0.26140  Biso   1.000  N
  N10      1.0000 0.53260  0.60920  0.23860  Biso   1.000  N
  N11      1.0000 0.53260  0.89080  0.73860  Biso   1.000  N
  N12      1.0000 0.46740  0.39080  0.76140  Biso   1.000  N
  N13      1.0000 0.30800  0.05060  0.23240  Biso   1.000  N
  N14      1.0000 0.69200  0.55060  0.26760  Biso   1.000  N
  N15      1.0000 0.69200  0.94940  0.76760  Biso   1.000  N
  N16      1.0000 0.30800  0.44940  0.73240  Biso   1.000  N
  N17      1.0000 0.78390  0.25180  0.05980  Biso   1.000  N
  N18      1.0000 0.21610  0.75180  0.44020  Biso   1.000  N
  N19      1.0000 0.21610  0.74820  0.94020  Biso   1.000  N
  N20      1.0000 0.78390  0.24820  0.55980  Biso   1.000  N
  N21      1.0000 0.92520  0.33100  0.09330  Biso   1.000  N
  N22      1.0000 0.07480  0.83100  0.40670  Biso   1.000  N
  N23      1.0000 0.07480  0.66900  0.90670  Biso   1.000  N
  N24      1.0000 0.92520  0.16900  0.59330  Biso   1.000  N
  C1       1.0000 0.51580  0.48130  0.64590  Biso   1.000  C
  C2       1.0000 0.48420  0.98130  0.85410  Biso   1.000  C
  C3       1.0000 0.48420  0.51870  0.35410  Biso   1.000  C
  C4       1.0000 0.51580  0.01870  0.14590  Biso   1.000  C
  H1       1.0000 0.51290  0.43870  0.62460  Biso   1.000  H
  H2       1.0000 0.48710  0.93870  0.87540  Biso   1.000  H
  H3       1.0000 0.48710  0.56130  0.37540  Biso   1.000  H
  H4       1.0000 0.51290  0.06130  0.12460  Biso   1.000  H
  C5       1.0000 0.60060  0.50810  0.69310  Biso   1.000  C
  C6       1.0000 0.39940  0.00810  0.80690  Biso   1.000  C
  C7       1.0000 0.39940  0.49190  0.30690  Biso   1.000  C
  C8       1.0000 0.60060  0.99190  0.19310  Biso   1.000  C
  H5       1.0000 0.65420  0.48220  0.70590  Biso   1.000  H
  H6       1.0000 0.34580  0.98220  0.79410  Biso   1.000  H
  H7       1.0000 0.34580  0.51780  0.29410  Biso   1.000  H
  H8       1.0000 0.65420  0.01780  0.20590  Biso   1.000  H
  C9       1.0000 0.60870  0.57280  0.72240  Biso   1.000  C
  C10      1.0000 0.39130  0.07280  0.77760  Biso   1.000  C
  C11      1.0000 0.39130  0.42720  0.27760  Biso   1.000  C
  C12      1.0000 0.60870  0.92720  0.22240  Biso   1.000  C
  H9       1.0000 0.66680  0.59150  0.75310  Biso   1.000  H
  H10      1.0000 0.33320  0.09150  0.74690  Biso   1.000  H
  H11      1.0000 0.33320  0.40850  0.24690  Biso   1.000  H
  H12      1.0000 0.66680  0.90850  0.25310  Biso   1.000  H
  C13      1.0000 0.52860  0.60820  0.70470  Biso   1.000  C
  C14      1.0000 0.47140  0.10820  0.79530  Biso   1.000  C
  C15      1.0000 0.47140  0.39180  0.29530  Biso   1.000  C
  C16      1.0000 0.52860  0.89180  0.20470  Biso   1.000  C
  H13      1.0000 0.53150  0.65170  0.72420  Biso   1.000  H
  H14      1.0000 0.46850  0.15170  0.77580  Biso   1.000  H
  H15      1.0000 0.46850  0.34830  0.27580  Biso   1.000  H
  H16      1.0000 0.53150  0.84830  0.22420  Biso   1.000  H
  C17      1.0000 0.44610  0.58090  0.65970  Biso   1.000  C
  C18      1.0000 0.55390  0.08090  0.84030  Biso   1.000  C
  C19      1.0000 0.55390  0.41910  0.34030  Biso   1.000  C
  C20      1.0000 0.44610  0.91910  0.15970  Biso   1.000  C
  C21      1.0000 0.35240  0.61440  0.63810  Biso   1.000  C
  C22      1.0000 0.64760  0.11440  0.86190  Biso   1.000  C
  C23      1.0000 0.64760  0.38560  0.36190  Biso   1.000  C
  C24      1.0000 0.35240  0.88560  0.13810  Biso   1.000  C
  C25      1.0000 0.34040  0.67730  0.66230  Biso   1.000  C
  C26      1.0000 0.65960  0.17730  0.83770  Biso   1.000  C
  C27      1.0000 0.65960  0.32270  0.33770  Biso   1.000  C
  C28      1.0000 0.34040  0.82270  0.16230  Biso   1.000  C
  H17      1.0000 0.39170  0.70340  0.69350  Biso   1.000  H
  H18      1.0000 0.60830  0.20340  0.80650  Biso   1.000  H
  H19      1.0000 0.60830  0.29660  0.30650  Biso   1.000  H
  H20      1.0000 0.39170  0.79660  0.19350  Biso   1.000  H
  C29      1.0000 0.25180  0.70100  0.63990  Biso   1.000  C
  C30      1.0000 0.74820  0.20100  0.86010  Biso   1.000  C
  C31      1.0000 0.74820  0.29900  0.36010  Biso   1.000  C
  C32      1.0000 0.25180  0.79900  0.13990  Biso   1.000  C
  H21      1.0000 0.24320  0.74270  0.65780  Biso   1.000  H
  H22      1.0000 0.75680  0.24270  0.84220  Biso   1.000  H
  H23      1.0000 0.75680  0.25730  0.34220  Biso   1.000  H
  H24      1.0000 0.24320  0.75730  0.15780  Biso   1.000  H
  C33      1.0000 0.17680  0.66540  0.59240  Biso   1.000  C
  C34      1.0000 0.82320  0.16540  0.90760  Biso   1.000  C
  C35      1.0000 0.82320  0.33460  0.40760  Biso   1.000  C
  C36      1.0000 0.17680  0.83460  0.09240  Biso   1.000  C
  H25      1.0000 0.11680  0.68310  0.57450  Biso   1.000  H
  H26      1.0000 0.88320  0.18310  0.92550  Biso   1.000  H
  H27      1.0000 0.88320  0.31690  0.42550  Biso   1.000  H
  H28      1.0000 0.11680  0.81690  0.07450  Biso   1.000  H
  C37      1.0000 0.19220  0.60040  0.57080  Biso   1.000  C
  C38      1.0000 0.80780  0.10040  0.92920  Biso   1.000  C
  C39      1.0000 0.80780  0.39960  0.42920  Biso   1.000  C
  C40      1.0000 0.19220  0.89960  0.07080  Biso   1.000  C
  H29      1.0000 0.14170  0.57270  0.54130  Biso   1.000  H
  H30      1.0000 0.85830  0.07270  0.95870  Biso   1.000  H
  H31      1.0000 0.85830  0.42730  0.45870  Biso   1.000  H
  H32      1.0000 0.14170  0.92730  0.04130  Biso   1.000  H
  C41      1.0000 0.54740  0.14100  0.27470  Biso   1.000  C
  C42      1.0000 0.45260  0.64100  0.22530  Biso   1.000  C
  C43      1.0000 0.45260  0.85900  0.72530  Biso   1.000  C
  C44      1.0000 0.54740  0.35900  0.77470  Biso   1.000  C
  H33      1.0000 0.54240  0.18070  0.24810  Biso   1.000  H
  H34      1.0000 0.45760  0.68070  0.25190  Biso   1.000  H
  H35      1.0000 0.45760  0.81930  0.75190  Biso   1.000  H
  H36      1.0000 0.54240  0.31930  0.74810  Biso   1.000  H
  C45      1.0000 0.63490  0.12040  0.32330  Biso   1.000  C
  C46      1.0000 0.36510  0.62040  0.17670  Biso   1.000  C
  C47      1.0000 0.36510  0.87960  0.67670  Biso   1.000  C
  C48      1.0000 0.63490  0.37960  0.82330  Biso   1.000  C
  H37      1.0000 0.68760  0.14520  0.33070  Biso   1.000  H
  H38      1.0000 0.31240  0.64520  0.16930  Biso   1.000  H
  H39      1.0000 0.31240  0.85480  0.66930  Biso   1.000  H
  H40      1.0000 0.68760  0.35480  0.83070  Biso   1.000  H
  C49      1.0000 0.64110  0.06020  0.36130  Biso   1.000  C
  C50      1.0000 0.35890  0.56020  0.13870  Biso   1.000  C
  C51      1.0000 0.35890  0.93980  0.63870  Biso   1.000  C
  C52      1.0000 0.64110  0.43980  0.86130  Biso   1.000  C
  H41      1.0000 0.69950  0.04400  0.39500  Biso   1.000  H
  H42      1.0000 0.30050  0.54400  0.10500  Biso   1.000  H
  H43      1.0000 0.30050  0.95600  0.60500  Biso   1.000  H
  H44      1.0000 0.69950  0.45600  0.89500  Biso   1.000  H
  C53      1.0000 0.56430  0.02480  0.35050  Biso   1.000  C
  C54      1.0000 0.43570  0.52480  0.14950  Biso   1.000  C
  C55      1.0000 0.43570  0.97520  0.64950  Biso   1.000  C
  C56      1.0000 0.56430  0.47520  0.85050  Biso   1.000  C
  H45      1.0000 0.56930  0.98360  0.37480  Biso   1.000  H
  H46      1.0000 0.43070  0.48360  0.12520  Biso   1.000  H
  H47      1.0000 0.43070  0.01640  0.62520  Biso   1.000  H
  H48      1.0000 0.56930  0.51640  0.87480  Biso   1.000  H
  C57      1.0000 0.47550  0.05180  0.30100  Biso   1.000  C
  C58      1.0000 0.52450  0.55180  0.19900  Biso   1.000  C
  C59      1.0000 0.52450  0.94820  0.69900  Biso   1.000  C
  C60      1.0000 0.47550  0.44820  0.80100  Biso   1.000  C
  C61      1.0000 0.38500  0.01730  0.28210  Biso   1.000  C
  C62      1.0000 0.61500  0.51730  0.21790  Biso   1.000  C
  C63      1.0000 0.61500  0.98270  0.71790  Biso   1.000  C
  C64      1.0000 0.38500  0.48270  0.78210  Biso   1.000  C
  C65      1.0000 0.37740  0.95490  0.31270  Biso   1.000  C
  C66      1.0000 0.62260  0.45490  0.18730  Biso   1.000  C
  C67      1.0000 0.62260  0.04510  0.68730  Biso   1.000  C
  C68      1.0000 0.37740  0.54510  0.81270  Biso   1.000  C
  H49      1.0000 0.43040  0.93160  0.34610  Biso   1.000  H
  H50      1.0000 0.56960  0.43160  0.15390  Biso   1.000  H
  H51      1.0000 0.56960  0.06840  0.65390  Biso   1.000  H
  H52      1.0000 0.43040  0.56840  0.84610  Biso   1.000  H
  C69      1.0000 0.28790  0.92850  0.29140  Biso   1.000  C
  C70      1.0000 0.71210  0.42850  0.20860  Biso   1.000  C
  C71      1.0000 0.71210  0.07150  0.70860  Biso   1.000  C
  C72      1.0000 0.28790  0.57150  0.79140  Biso   1.000  C
  H53      1.0000 0.27980  0.88800  0.31150  Biso   1.000  H
  H54      1.0000 0.72020  0.38800  0.18850  Biso   1.000  H
  H55      1.0000 0.72020  0.11200  0.68850  Biso   1.000  H
  H56      1.0000 0.27980  0.61200  0.81150  Biso   1.000  H
  C73      1.0000 0.21230  0.96440  0.24000  Biso   1.000  C
  C74      1.0000 0.78770  0.46440  0.26000  Biso   1.000  C
  C75      1.0000 0.78770  0.03560  0.76000  Biso   1.000  C
  C76      1.0000 0.21230  0.53560  0.74000  Biso   1.000  C
  H57      1.0000 0.15260  0.94630  0.22270  Biso   1.000  H
  H58      1.0000 0.84740  0.44630  0.27730  Biso   1.000  H
  H59      1.0000 0.84740  0.05370  0.77730  Biso   1.000  H
  H60      1.0000 0.15260  0.55370  0.72270  Biso   1.000  H
  C77      1.0000 0.22360  0.02500  0.21450  Biso   1.000  C
  C78      1.0000 0.77640  0.52500  0.28550  Biso   1.000  C
  C79      1.0000 0.77640  0.97500  0.78550  Biso   1.000  C
  C80      1.0000 0.22360  0.47500  0.71450  Biso   1.000  C
  H61      1.0000 0.17100  0.05000  0.18330  Biso   1.000  H
  H62      1.0000 0.82900  0.55000  0.31670  Biso   1.000  H
  H63      1.0000 0.82900  0.95000  0.81670  Biso   1.000  H
  H64      1.0000 0.17100  0.45000  0.68330  Biso   1.000  H
  C81      1.0000 0.71628  0.20606  0.04060  Biso   1.000  C
  C82      1.0000 0.28372  0.70606  0.45940  Biso   1.000  C
  C83      1.0000 0.28372  0.79394  0.95940  Biso   1.000  C
  C84      1.0000 0.71628  0.29394  0.54060  Biso   1.000  C
  H65      1.0000 0.73140  0.15970  0.04680  Biso   1.000  H
  H66      1.0000 0.26860  0.65970  0.45320  Biso   1.000  H
  H67      1.0000 0.26860  0.84030  0.95320  Biso   1.000  H
  H68      1.0000 0.73140  0.34030  0.54680  Biso   1.000  H
  C85      1.0000 0.61352  0.22760  0.00840  Biso   1.000  C
  C86      1.0000 0.38648  0.72760  0.49160  Biso   1.000  C
  C87      1.0000 0.38648  0.77240  0.99160  Biso   1.000  C
  C88      1.0000 0.61352  0.27240  0.50840  Biso   1.000  C
  H69      1.0000 0.56510  0.19610  0.99430  Biso   1.000  H
  H70      1.0000 0.43490  0.69610  0.50570  Biso   1.000  H
  H71      1.0000 0.43490  0.80390  0.00570  Biso   1.000  H
  H72      1.0000 0.56510  0.30390  0.49430  Biso   1.000  H
  C89      1.0000 0.59930  0.29550  0.00210  Biso   1.000  C
  C90      1.0000 0.40070  0.79550  0.49790  Biso   1.000  C
  C91      1.0000 0.40070  0.70450  0.99790  Biso   1.000  C
  C92      1.0000 0.59930  0.20450  0.50210  Biso   1.000  C
  H73      1.0000 0.53860  0.31190  0.98360  Biso   1.000  H
  H74      1.0000 0.46140  0.81190  0.51640  Biso   1.000  H
  H75      1.0000 0.46140  0.68810  0.01640  Biso   1.000  H
  H76      1.0000 0.53860  0.18810  0.48360  Biso   1.000  H
  C93      1.0000 0.67140  0.34170  0.02190  Biso   1.000  C
  C94      1.0000 0.32860  0.84170  0.47810  Biso   1.000  C
  C95      1.0000 0.32860  0.65830  0.97810  Biso   1.000  C
  C96      1.0000 0.67140  0.15830  0.52190  Biso   1.000  C
  H77      1.0000 0.66020  0.38870  0.01660  Biso   1.000  H
  H78      1.0000 0.33980  0.88870  0.48340  Biso   1.000  H
  H79      1.0000 0.33980  0.61130  0.98340  Biso   1.000  H
  H80      1.0000 0.66020  0.11130  0.51660  Biso   1.000  H
  C97      1.0000 0.76060  0.31600  0.04990  Biso   1.000  C
  C98      1.0000 0.23940  0.81600  0.45010  Biso   1.000  C
  C99      1.0000 0.23940  0.68400  0.95010  Biso   1.000  C
  C100     1.0000 0.76060  0.18400  0.54990  Biso   1.000  C
  C101     1.0000 0.84300  0.36350  0.06910  Biso   1.000  C
  C102     1.0000 0.15700  0.86350  0.43090  Biso   1.000  C
  C103     1.0000 0.15700  0.63650  0.93090  Biso   1.000  C
  C104     1.0000 0.84300  0.13650  0.56910  Biso   1.000  C
  C105     1.0000 0.83700  0.43380  0.06160  Biso   1.000  C
  C106     1.0000 0.16300  0.93380  0.43840  Biso   1.000  C
  C107     1.0000 0.16300  0.56620  0.93840  Biso   1.000  C
  C108     1.0000 0.83700  0.06620  0.56160  Biso   1.000  C
  H81      1.0000 0.78060  0.45670  0.04650  Biso   1.000  H
  H82      1.0000 0.21940  0.95670  0.45350  Biso   1.000  H
  H83      1.0000 0.21940  0.54330  0.95350  Biso   1.000  H
  H84      1.0000 0.78060  0.04330  0.54650  Biso   1.000  H
  C109     1.0000 0.92020  0.46970  0.07760  Biso   1.000  C
  C110     1.0000 0.07980  0.96970  0.42240  Biso   1.000  C
  C111     1.0000 0.07980  0.53030  0.92240  Biso   1.000  C
  C112     1.0000 0.92020  0.03030  0.57760  Biso   1.000  C
  H85      1.0000 0.91840  0.51700  0.07210  Biso   1.000  H
  H86      1.0000 0.08160  0.01700  0.42790  Biso   1.000  H
  H87      1.0000 0.08160  0.48300  0.92790  Biso   1.000  H
  H88      1.0000 0.91840  0.98300  0.57210  Biso   1.000  H
  C113     1.0000 0.00350  0.43590  0.10100  Biso   1.000  C
  C114     1.0000 0.99650  0.93590  0.39900  Biso   1.000  C
  C115     1.0000 0.99650  0.56410  0.89900  Biso   1.000  C
  C116     1.0000 0.00350  0.06410  0.60100  Biso   1.000  C
  H89      1.0000 0.05800  0.45880  0.10990  Biso   1.000  H
  H90      1.0000 0.94200  0.95880  0.39010  Biso   1.000  H
  H91      1.0000 0.94200  0.54120  0.89010  Biso   1.000  H
  H92      1.0000 0.05800  0.04120  0.60990  Biso   1.000  H
  C117     1.0000 0.00210  0.36780  0.11060  Biso   1.000  C
  C118     1.0000 0.99790  0.86780  0.38940  Biso   1.000  C
  C119     1.0000 0.99790  0.63220  0.88940  Biso   1.000  C
  C120     1.0000 0.00210  0.13220  0.61060  Biso   1.000  C
  H93      1.0000 0.05890  0.34470  0.13070  Biso   1.000  H
  H94      1.0000 0.94110  0.84470  0.36930  Biso   1.000  H
  H95      1.0000 0.94110  0.65530  0.86930  Biso   1.000  H
  H96      1.0000 0.05890  0.15530  0.63070  Biso   1.000  H
  O165     1.0000 0.82350  0.10280  0.19370  Biso   1.000  O
  O166     1.0000 0.17650  0.60280  0.30630  Biso   1.000  O
  O167     1.0000 0.17650  0.89720  0.80630  Biso   1.000  O
  O168     1.0000 0.82350  0.39720  0.69370  Biso   1.000  O
