data_image0
_cell_length_a       19.23
_cell_length_b       21.211
_cell_length_c       16.851
_cell_angle_alpha    90
_cell_angle_beta     108.48
_cell_angle_gamma    90

_symmetry_space_group_name_H-M    "P 1"
_symmetry_int_tables_number       1

loop_
  _symmetry_equiv_pos_as_xyz
  'x, y, z'

loop_
  _atom_site_label
  _atom_site_occupancy
  _atom_site_fract_x
  _atom_site_fract_y
  _atom_site_fract_z
  _atom_site_thermal_displace_type
  _atom_site_B_iso_or_equiv
  _atom_site_type_symbol
  Cu1      1.0000 0.36290  0.13690  0.24680  Biso   1.000  Cu
  Cu2      1.0000 0.63710  0.63690  0.25320  Biso   1.000  Cu
  Cu3      1.0000 0.63710  0.86310  0.75320  Biso   1.000  Cu
  Cu4      1.0000 0.36290  0.36310  0.74680  Biso   1.000  Cu
  Cu5      1.0000 0.85380  0.11980  0.23610  Biso   1.000  Cu
  Cu6      1.0000 0.14620  0.61980  0.26390  Biso   1.000  Cu
  Cu7      1.0000 0.14620  0.88020  0.76390  Biso   1.000  Cu
  Cu8      1.0000 0.85380  0.38020  0.73610  Biso   1.000  Cu
  O1       1.0000 0.34180  0.22460  0.25920  Biso   1.000  O
  O2       1.0000 0.65820  0.72460  0.24080  Biso   1.000  O
  O3       1.0000 0.65820  0.77540  0.74080  Biso   1.000  O
  O4       1.0000 0.34180  0.27540  0.75920  Biso   1.000  O
  O5       1.0000 0.36110  0.14930  0.13230  Biso   1.000  O
  O6       1.0000 0.63890  0.64930  0.36770  Biso   1.000  O
  O7       1.0000 0.63890  0.85070  0.86770  Biso   1.000  O
  O8       1.0000 0.36110  0.35070  0.63230  Biso   1.000  O
  O9       1.0000 0.38600  0.04910  0.23390  Biso   1.000  O
  O10      1.0000 0.61400  0.54910  0.26610  Biso   1.000  O
  O11      1.0000 0.61400  0.95090  0.76610  Biso   1.000  O
  O12      1.0000 0.38600  0.45090  0.73390  Biso   1.000  O
  O13      1.0000 0.36550  0.12390  0.36230  Biso   1.000  O
  O14      1.0000 0.63450  0.62390  0.13770  Biso   1.000  O
  O15      1.0000 0.63450  0.87610  0.63770  Biso   1.000  O
  O16      1.0000 0.36550  0.37610  0.86230  Biso   1.000  O
  O17      1.0000 0.81950  0.20560  0.23850  Biso   1.000  O
  O18      1.0000 0.18050  0.70560  0.26150  Biso   1.000  O
  O19      1.0000 0.18050  0.79440  0.76150  Biso   1.000  O
  O20      1.0000 0.81950  0.29440  0.73850  Biso   1.000  O
  O21      1.0000 0.85490  0.12840  0.12090  Biso   1.000  O
  O22      1.0000 0.14510  0.62840  0.37910  Biso   1.000  O
  O23      1.0000 0.14510  0.87160  0.87910  Biso   1.000  O
  O24      1.0000 0.85490  0.37160  0.62090  Biso   1.000  O
  O25      1.0000 0.88840  0.03420  0.23250  Biso   1.000  O
  O26      1.0000 0.11160  0.53420  0.26750  Biso   1.000  O
  O27      1.0000 0.11160  0.96580  0.76750  Biso   1.000  O
  O28      1.0000 0.88840  0.46580  0.73250  Biso   1.000  O
  O29      1.0000 0.85490  0.11070  0.35140  Biso   1.000  O
  O30      1.0000 0.14510  0.61070  0.14860  Biso   1.000  O
  O31      1.0000 0.14510  0.88930  0.64860  Biso   1.000  O
  O32      1.0000 0.85490  0.38930  0.85140  Biso   1.000  O
  O33      1.0000 0.23320  0.11640  0.20240  Biso   1.000  O
  O34      1.0000 0.76680  0.61640  0.29760  Biso   1.000  O
  O35      1.0000 0.76680  0.88360  0.79760  Biso   1.000  O
  O36      1.0000 0.23320  0.38360  0.70240  Biso   1.000  O
  O37      1.0000 0.73460  0.07250  0.21020  Biso   1.000  O
  O38      1.0000 0.26540  0.57250  0.28980  Biso   1.000  O
  O39      1.0000 0.26540  0.92750  0.78980  Biso   1.000  O
  O40      1.0000 0.73460  0.42750  0.71020  Biso   1.000  O
  O41      1.0000 0.97390  0.16490  0.26390  Biso   1.000  O
  O42      1.0000 0.02610  0.66490  0.23610  Biso   1.000  O
  O43      1.0000 0.02610  0.83510  0.73610  Biso   1.000  O
  O44      1.0000 0.97390  0.33510  0.76390  Biso   1.000  O
  O45      1.0000 0.49660  0.14770  0.30350  Biso   1.000  O
  O46      1.0000 0.50340  0.64770  0.19650  Biso   1.000  O
  O47      1.0000 0.50340  0.85230  0.69650  Biso   1.000  O
  O48      1.0000 0.49660  0.35230  0.80350  Biso   1.000  O
  N1       1.0000 0.17740  0.08150  0.16740  Biso   1.000  N
  N2       1.0000 0.82260  0.58150  0.33260  Biso   1.000  N
  N3       1.0000 0.82260  0.91850  0.83260  Biso   1.000  N
  N4       1.0000 0.17740  0.41850  0.66740  Biso   1.000  N
  N5       1.0000 0.66740  0.07820  0.16920  Biso   1.000  N
  N6       1.0000 0.33260  0.57820  0.33080  Biso   1.000  N
  N7       1.0000 0.33260  0.92180  0.83080  Biso   1.000  N
  N8       1.0000 0.66740  0.42180  0.66920  Biso   1.000  N
  N9       1.0000 0.03930  0.17040  0.31000  Biso   1.000  N
  N10      1.0000 0.96070  0.67040  0.19000  Biso   1.000  N
  N11      1.0000 0.96070  0.82960  0.69000  Biso   1.000  N
  N12      1.0000 0.03930  0.32960  0.81000  Biso   1.000  N
  N13      1.0000 0.55690  0.17790  0.33350  Biso   1.000  N
  N14      1.0000 0.44310  0.67790  0.16650  Biso   1.000  N
  N15      1.0000 0.44310  0.82210  0.66650  Biso   1.000  N
  N16      1.0000 0.55690  0.32210  0.83350  Biso   1.000  N
  C1       1.0000 0.32790  0.26510  0.20220  Biso   1.000  C
  C2       1.0000 0.67210  0.76510  0.29780  Biso   1.000  C
  C3       1.0000 0.67210  0.73490  0.79780  Biso   1.000  C
  C4       1.0000 0.32790  0.23490  0.70220  Biso   1.000  C
  C5       1.0000 0.32640  0.25670  0.12010  Biso   1.000  C
  C6       1.0000 0.67360  0.75670  0.37990  Biso   1.000  C
  C7       1.0000 0.67360  0.74330  0.87990  Biso   1.000  C
  C8       1.0000 0.32640  0.24330  0.62010  Biso   1.000  C
  C9       1.0000 0.34370  0.19930  0.09320  Biso   1.000  C
  C10      1.0000 0.65630  0.69930  0.40680  Biso   1.000  C
  C11      1.0000 0.65630  0.80070  0.90680  Biso   1.000  C
  C12      1.0000 0.34370  0.30070  0.59320  Biso   1.000  C
  C13      1.0000 0.30630  0.32790  0.22470  Biso   1.000  C
  C14      1.0000 0.69370  0.82790  0.27530  Biso   1.000  C
  C15      1.0000 0.69370  0.67210  0.77530  Biso   1.000  C
  C16      1.0000 0.30630  0.17210  0.72470  Biso   1.000  C
  C17      1.0000 0.34300  0.19510  0.00250  Biso   1.000  C
  C18      1.0000 0.65700  0.69510  0.49750  Biso   1.000  C
  C19      1.0000 0.65700  0.80490  0.99750  Biso   1.000  C
  C20      1.0000 0.34300  0.30490  0.50250  Biso   1.000  C
  C21      1.0000 0.39900  0.00840  0.29120  Biso   1.000  C
  C22      1.0000 0.60100  0.50840  0.20880  Biso   1.000  C
  C23      1.0000 0.60100  0.99160  0.70880  Biso   1.000  C
  C24      1.0000 0.39900  0.49160  0.79120  Biso   1.000  C
  C25      1.0000 0.39940  0.01720  0.37240  Biso   1.000  C
  C26      1.0000 0.60060  0.51720  0.12760  Biso   1.000  C
  C27      1.0000 0.60060  0.98280  0.62760  Biso   1.000  C
  C28      1.0000 0.39940  0.48280  0.87240  Biso   1.000  C
  C29      1.0000 0.38150  0.07310  0.40110  Biso   1.000  C
  C30      1.0000 0.61850  0.57310  0.09890  Biso   1.000  C
  C31      1.0000 0.61850  0.92690  0.59890  Biso   1.000  C
  C32      1.0000 0.38150  0.42690  0.90110  Biso   1.000  C
  C33      1.0000 0.41160  0.94450  0.26200  Biso   1.000  C
  C34      1.0000 0.58840  0.44450  0.23800  Biso   1.000  C
  C35      1.0000 0.58840  0.05550  0.73800  Biso   1.000  C
  C36      1.0000 0.41160  0.55550  0.76200  Biso   1.000  C
  C37      1.0000 0.38380  0.07690  0.48860  Biso   1.000  C
  C38      1.0000 0.61620  0.57690  0.01140  Biso   1.000  C
  C39      1.0000 0.61620  0.92310  0.51140  Biso   1.000  C
  C40      1.0000 0.38380  0.42310  0.98860  Biso   1.000  C
  C41      1.0000 0.82000  0.24690  0.18680  Biso   1.000  C
  C42      1.0000 0.18000  0.74690  0.31320  Biso   1.000  C
  C43      1.0000 0.18000  0.75310  0.81320  Biso   1.000  C
  C44      1.0000 0.82000  0.25310  0.68680  Biso   1.000  C
  C45      1.0000 0.83700  0.23810  0.11280  Biso   1.000  C
  C46      1.0000 0.16300  0.73810  0.38720  Biso   1.000  C
  C47      1.0000 0.16300  0.76190  0.88720  Biso   1.000  C
  C48      1.0000 0.83700  0.26190  0.61280  Biso   1.000  C
  C49      1.0000 0.85290  0.17950  0.08440  Biso   1.000  C
  C50      1.0000 0.14710  0.67950  0.41560  Biso   1.000  C
  C51      1.0000 0.14710  0.82050  0.91560  Biso   1.000  C
  C52      1.0000 0.85290  0.32050  0.58440  Biso   1.000  C
  C53      1.0000 0.80390  0.31200  0.20680  Biso   1.000  C
  C54      1.0000 0.19610  0.81200  0.29320  Biso   1.000  C
  C55      1.0000 0.19610  0.68800  0.79320  Biso   1.000  C
  C56      1.0000 0.80390  0.18800  0.70680  Biso   1.000  C
  C57      1.0000 0.86360  0.17620  0.00180  Biso   1.000  C
  C58      1.0000 0.13640  0.67620  0.49820  Biso   1.000  C
  C59      1.0000 0.13640  0.82380  0.99820  Biso   1.000  C
  C60      1.0000 0.86360  0.32380  0.50180  Biso   1.000  C
  C61      1.0000 0.89350  0.99350  0.28810  Biso   1.000  C
  C62      1.0000 0.10650  0.49350  0.21190  Biso   1.000  C
  C63      1.0000 0.10650  0.00650  0.71190  Biso   1.000  C
  C64      1.0000 0.89350  0.50650  0.78810  Biso   1.000  C
  C65      1.0000 0.88210  0.00200  0.36380  Biso   1.000  C
  C66      1.0000 0.11790  0.50200  0.13620  Biso   1.000  C
  C67      1.0000 0.11790  0.99800  0.63620  Biso   1.000  C
  C68      1.0000 0.88210  0.49800  0.86380  Biso   1.000  C
  C69      1.0000 0.86280  0.06070  0.39060  Biso   1.000  C
  C70      1.0000 0.13720  0.56070  0.10940  Biso   1.000  C
  C71      1.0000 0.13720  0.93930  0.60940  Biso   1.000  C
  C72      1.0000 0.86280  0.43930  0.89060  Biso   1.000  C
  C73      1.0000 0.91700  0.92970  0.26750  Biso   1.000  C
  C74      1.0000 0.08300  0.42970  0.23250  Biso   1.000  C
  C75      1.0000 0.08300  0.07030  0.73250  Biso   1.000  C
  C76      1.0000 0.91700  0.57030  0.76750  Biso   1.000  C
  C77      1.0000 0.85880  0.06350  0.47330  Biso   1.000  C
  C78      1.0000 0.14120  0.56350  0.02670  Biso   1.000  C
  C79      1.0000 0.14120  0.93650  0.52670  Biso   1.000  C
  C80      1.0000 0.85880  0.43650  0.97330  Biso   1.000  C
  C81      1.0000 0.15770  0.06430  0.07710  Biso   1.000  C
  C82      1.0000 0.84230  0.56430  0.42290  Biso   1.000  C
  C83      1.0000 0.84230  0.93570  0.92290  Biso   1.000  C
  C84      1.0000 0.15770  0.43570  0.57710  Biso   1.000  C
  C85      1.0000 0.08670  0.02860  0.06610  Biso   1.000  C
  C86      1.0000 0.91330  0.52860  0.43390  Biso   1.000  C
  C87      1.0000 0.91330  0.97140  0.93390  Biso   1.000  C
  C88      1.0000 0.08670  0.47140  0.56610  Biso   1.000  C
  C89      1.0000 0.10010  0.99780  0.14900  Biso   1.000  C
  C90      1.0000 0.89990  0.49780  0.35100  Biso   1.000  C
  C91      1.0000 0.89990  0.00220  0.85100  Biso   1.000  C
  C92      1.0000 0.10010  0.50220  0.64900  Biso   1.000  C
  C93      1.0000 0.13980  0.04620  0.21700  Biso   1.000  C
  C94      1.0000 0.86020  0.54620  0.28300  Biso   1.000  C
  C95      1.0000 0.86020  0.95380  0.78300  Biso   1.000  C
  C96      1.0000 0.13980  0.45380  0.71700  Biso   1.000  C
  C97      1.0000 0.14510  0.12620  0.02610  Biso   1.000  C
  C98      1.0000 0.85490  0.62620  0.47390  Biso   1.000  C
  C99      1.0000 0.85490  0.87380  0.97390  Biso   1.000  C
  C100     1.0000 0.14510  0.37380  0.52610  Biso   1.000  C
  C101     1.0000 0.21830  0.02400  0.06610  Biso   1.000  C
  C102     1.0000 0.78170  0.52400  0.43390  Biso   1.000  C
  C103     1.0000 0.78170  0.97600  0.93390  Biso   1.000  C
  C104     1.0000 0.21830  0.47600  0.56610  Biso   1.000  C
  C105     1.0000 0.19690  0.01610  0.29580  Biso   1.000  C
  C106     1.0000 0.80310  0.51610  0.20420  Biso   1.000  C
  C107     1.0000 0.80310  0.98390  0.70420  Biso   1.000  C
  C108     1.0000 0.19690  0.48390  0.79580  Biso   1.000  C
  C109     1.0000 0.08190  0.08720  0.23880  Biso   1.000  C
  C110     1.0000 0.91810  0.58720  0.26120  Biso   1.000  C
  C111     1.0000 0.91810  0.91280  0.76120  Biso   1.000  C
  C112     1.0000 0.08190  0.41280  0.73880  Biso   1.000  C
  C113     1.0000 0.63450  0.05550  0.08400  Biso   1.000  C
  C114     1.0000 0.36550  0.55550  0.41600  Biso   1.000  C
  C115     1.0000 0.36550  0.94450  0.91600  Biso   1.000  C
  C116     1.0000 0.63450  0.44450  0.58400  Biso   1.000  C
  C117     1.0000 0.55750  0.05750  0.07700  Biso   1.000  C
  C118     1.0000 0.44250  0.55750  0.42300  Biso   1.000  C
  C119     1.0000 0.44250  0.94250  0.92300  Biso   1.000  C
  C120     1.0000 0.55750  0.44250  0.57700  Biso   1.000  C
  C121     1.0000 0.54610  0.10060  0.14090  Biso   1.000  C
  C122     1.0000 0.45390  0.60060  0.35910  Biso   1.000  C
  C123     1.0000 0.45390  0.89940  0.85910  Biso   1.000  C
  C124     1.0000 0.54610  0.39940  0.64090  Biso   1.000  C
  C125     1.0000 0.61600  0.09840  0.21420  Biso   1.000  C
  C126     1.0000 0.38400  0.59840  0.28580  Biso   1.000  C
  C127     1.0000 0.38400  0.90160  0.78580  Biso   1.000  C
  C128     1.0000 0.61600  0.40160  0.71420  Biso   1.000  C
  C129     1.0000 0.65710  0.09960  0.02640  Biso   1.000  C
  C130     1.0000 0.34290  0.59960  0.47360  Biso   1.000  C
  C131     1.0000 0.34290  0.90040  0.97360  Biso   1.000  C
  C132     1.0000 0.65710  0.40040  0.52640  Biso   1.000  C
  C133     1.0000 0.65960  0.98910  0.07330  Biso   1.000  C
  C134     1.0000 0.34040  0.48910  0.42670  Biso   1.000  C
  C135     1.0000 0.34040  0.01090  0.92670  Biso   1.000  C
  C136     1.0000 0.65960  0.51090  0.57330  Biso   1.000  C
  C137     1.0000 0.61410  0.04930  0.28070  Biso   1.000  C
  C138     1.0000 0.38590  0.54930  0.21930  Biso   1.000  C
  C139     1.0000 0.38590  0.95070  0.71930  Biso   1.000  C
  C140     1.0000 0.61410  0.45070  0.78070  Biso   1.000  C
  C141     1.0000 0.64460  0.16310  0.25360  Biso   1.000  C
  C142     1.0000 0.35540  0.66310  0.24640  Biso   1.000  C
  C143     1.0000 0.35540  0.83690  0.74640  Biso   1.000  C
  C144     1.0000 0.64460  0.33690  0.75360  Biso   1.000  C
  C145     1.0000 0.06120  0.20200  0.39150  Biso   1.000  C
  C146     1.0000 0.93880  0.70200  0.10850  Biso   1.000  C
  C147     1.0000 0.93880  0.79800  0.60850  Biso   1.000  C
  C148     1.0000 0.06120  0.29800  0.89150  Biso   1.000  C
  C149     1.0000 0.13970  0.21520  0.40310  Biso   1.000  C
  C150     1.0000 0.86030  0.71520  0.09690  Biso   1.000  C
  C151     1.0000 0.86030  0.78480  0.59690  Biso   1.000  C
  C152     1.0000 0.13970  0.28480  0.90310  Biso   1.000  C
  C153     1.0000 0.16180  0.16130  0.35450  Biso   1.000  C
  C154     1.0000 0.83820  0.66130  0.14550  Biso   1.000  C
  C155     1.0000 0.83820  0.83870  0.64550  Biso   1.000  C
  C156     1.0000 0.16180  0.33870  0.85450  Biso   1.000  C
  C157     1.0000 0.09840  0.15400  0.27760  Biso   1.000  C
  C158     1.0000 0.90160  0.65400  0.22240  Biso   1.000  C
  C159     1.0000 0.90160  0.84600  0.72240  Biso   1.000  C
  C160     1.0000 0.09840  0.34600  0.77760  Biso   1.000  C
  C161     1.0000 0.01300  0.26390  0.38000  Biso   1.000  C
  C162     1.0000 0.98700  0.76390  0.12000  Biso   1.000  C
  C163     1.0000 0.98700  0.73610  0.62000  Biso   1.000  C
  C164     1.0000 0.01300  0.23610  0.88000  Biso   1.000  C
  C165     1.0000 0.04630  0.15430  0.45390  Biso   1.000  C
  C166     1.0000 0.95370  0.65430  0.04610  Biso   1.000  C
  C167     1.0000 0.95370  0.84570  0.54610  Biso   1.000  C
  C168     1.0000 0.04630  0.34570  0.95390  Biso   1.000  C
  C169     1.0000 0.10080  0.20250  0.20890  Biso   1.000  C
  C170     1.0000 0.89920  0.70250  0.29110  Biso   1.000  C
  C171     1.0000 0.89920  0.79750  0.79110  Biso   1.000  C
  C172     1.0000 0.10080  0.29750  0.70890  Biso   1.000  C
  C173     1.0000 0.58430  0.19210  0.42610  Biso   1.000  C
  C174     1.0000 0.41570  0.69210  0.07390  Biso   1.000  C
  C175     1.0000 0.41570  0.80790  0.57390  Biso   1.000  C
  C176     1.0000 0.58430  0.30790  0.92610  Biso   1.000  C
  C177     1.0000 0.65820  0.22190  0.43070  Biso   1.000  C
  C178     1.0000 0.34180  0.72190  0.06930  Biso   1.000  C
  C179     1.0000 0.34180  0.77810  0.56930  Biso   1.000  C
  C180     1.0000 0.65820  0.27810  0.93070  Biso   1.000  C
  C181     1.0000 0.64480  0.25410  0.34960  Biso   1.000  C
  C182     1.0000 0.35520  0.75410  0.15040  Biso   1.000  C
  C183     1.0000 0.35520  0.74590  0.65040  Biso   1.000  C
  C184     1.0000 0.64480  0.24590  0.84960  Biso   1.000  C
  C185     1.0000 0.59440  0.21020  0.28490  Biso   1.000  C
  C186     1.0000 0.40560  0.71020  0.21510  Biso   1.000  C
  C187     1.0000 0.40560  0.78980  0.71510  Biso   1.000  C
  C188     1.0000 0.59440  0.28980  0.78490  Biso   1.000  C
  C189     1.0000 0.59400  0.12930  0.47740  Biso   1.000  C
  C190     1.0000 0.40600  0.62930  0.02260  Biso   1.000  C
  C191     1.0000 0.40600  0.87070  0.52260  Biso   1.000  C
  C192     1.0000 0.59400  0.37070  0.97740  Biso   1.000  C
  C193     1.0000 0.53040  0.23920  0.44590  Biso   1.000  C
  C194     1.0000 0.46960  0.73920  0.05410  Biso   1.000  C
  C195     1.0000 0.46960  0.76080  0.55410  Biso   1.000  C
  C196     1.0000 0.53040  0.26080  0.94590  Biso   1.000  C
  C197     1.0000 0.53670  0.24680  0.21200  Biso   1.000  C
  C198     1.0000 0.46330  0.74680  0.28800  Biso   1.000  C
  C199     1.0000 0.46330  0.75320  0.78800  Biso   1.000  C
  C200     1.0000 0.53670  0.25320  0.71200  Biso   1.000  C
  F1       1.0000 0.29200  0.36980  0.17490  Biso   1.000  F
  F2       1.0000 0.70800  0.86980  0.32510  Biso   1.000  F
  F3       1.0000 0.70800  0.63020  0.82510  Biso   1.000  F
  F4       1.0000 0.29200  0.13020  0.67490  Biso   1.000  F
  F5       1.0000 0.27710  0.33170  0.27560  Biso   1.000  F
  F6       1.0000 0.72290  0.83170  0.22440  Biso   1.000  F
  F7       1.0000 0.72290  0.66830  0.72440  Biso   1.000  F
  F8       1.0000 0.27710  0.16830  0.77560  Biso   1.000  F
  F9       1.0000 0.36890  0.35240  0.28280  Biso   1.000  F
  F10      1.0000 0.63110  0.85240  0.21720  Biso   1.000  F
  F11      1.0000 0.63110  0.64760  0.71720  Biso   1.000  F
  F12      1.0000 0.36890  0.14760  0.78280  Biso   1.000  F
  F13      1.0000 0.32800  0.24810  0.96110  Biso   1.000  F
  F14      1.0000 0.67200  0.74810  0.53890  Biso   1.000  F
  F15      1.0000 0.67200  0.75190  0.03890  Biso   1.000  F
  F16      1.0000 0.32800  0.25190  0.46110  Biso   1.000  F
  F17      1.0000 0.29050  0.15660  0.95910  Biso   1.000  F
  F18      1.0000 0.70950  0.65660  0.54090  Biso   1.000  F
  F19      1.0000 0.70950  0.84340  0.04090  Biso   1.000  F
  F20      1.0000 0.29050  0.34340  0.45910  Biso   1.000  F
  F21      1.0000 0.40230  0.17050  0.99550  Biso   1.000  F
  F22      1.0000 0.59770  0.67050  0.50450  Biso   1.000  F
  F23      1.0000 0.59770  0.82950  0.00450  Biso   1.000  F
  F24      1.0000 0.40230  0.32950  0.49550  Biso   1.000  F
  F25      1.0000 0.43170  0.90280  0.31820  Biso   1.000  F
  F26      1.0000 0.56830  0.40280  0.18180  Biso   1.000  F
  F27      1.0000 0.56830  0.09720  0.68180  Biso   1.000  F
  F28      1.0000 0.43170  0.59720  0.81820  Biso   1.000  F
  F29      1.0000 0.35590  0.91990  0.20880  Biso   1.000  F
  F30      1.0000 0.64410  0.41990  0.29120  Biso   1.000  F
  F31      1.0000 0.64410  0.08010  0.79120  Biso   1.000  F
  F32      1.0000 0.35590  0.58010  0.70880  Biso   1.000  F
  F33      1.0000 0.45290  0.94170  0.22270  Biso   1.000  F
  F34      1.0000 0.54710  0.44170  0.27730  Biso   1.000  F
  F35      1.0000 0.54710  0.05830  0.77730  Biso   1.000  F
  F36      1.0000 0.45290  0.55830  0.72270  Biso   1.000  F
  F37      1.0000 0.31910  0.09150  0.49600  Biso   1.000  F
  F38      1.0000 0.68090  0.59150  0.00400  Biso   1.000  F
  F39      1.0000 0.68090  0.90850  0.50400  Biso   1.000  F
  F40      1.0000 0.31910  0.40850  0.99600  Biso   1.000  F
  F41      1.0000 0.42160  0.12520  0.53110  Biso   1.000  F
  F42      1.0000 0.57840  0.62520  0.96890  Biso   1.000  F
  F43      1.0000 0.57840  0.87480  0.46890  Biso   1.000  F
  F44      1.0000 0.42160  0.37480  0.03110  Biso   1.000  F
  F45      1.0000 0.41270  0.03140  0.53540  Biso   1.000  F
  F46      1.0000 0.58730  0.53140  0.96460  Biso   1.000  F
  F47      1.0000 0.58730  0.96860  0.46460  Biso   1.000  F
  F48      1.0000 0.41270  0.46860  0.03540  Biso   1.000  F
  F49      1.0000 0.80490  0.35450  0.16000  Biso   1.000  F
  F50      1.0000 0.19510  0.85450  0.34000  Biso   1.000  F
  F51      1.0000 0.19510  0.64550  0.84000  Biso   1.000  F
  F52      1.0000 0.80490  0.14550  0.66000  Biso   1.000  F
  F53      1.0000 0.82580  0.32720  0.27940  Biso   1.000  F
  F54      1.0000 0.17420  0.82720  0.22060  Biso   1.000  F
  F55      1.0000 0.17420  0.67280  0.72060  Biso   1.000  F
  F56      1.0000 0.82580  0.17280  0.77940  Biso   1.000  F
  F57      1.0000 0.73080  0.31340  0.19760  Biso   1.000  F
  F58      1.0000 0.26920  0.81340  0.30240  Biso   1.000  F
  F59      1.0000 0.26920  0.68660  0.80240  Biso   1.000  F
  F60      1.0000 0.73080  0.18660  0.69760  Biso   1.000  F
  F61      1.0000 0.86010  0.22770  0.96240  Biso   1.000  F
  F62      1.0000 0.13990  0.72770  0.53760  Biso   1.000  F
  F63      1.0000 0.13990  0.77230  0.03760  Biso   1.000  F
  F64      1.0000 0.86010  0.27230  0.46240  Biso   1.000  F
  F65      1.0000 0.81110  0.14230  0.94860  Biso   1.000  F
  F66      1.0000 0.18890  0.64230  0.55140  Biso   1.000  F
  F67      1.0000 0.18890  0.85770  0.05140  Biso   1.000  F
  F68      1.0000 0.81110  0.35770  0.44860  Biso   1.000  F
  F69      1.0000 0.92020  0.14460  0.00280  Biso   1.000  F
  F70      1.0000 0.07980  0.64460  0.49720  Biso   1.000  F
  F71      1.0000 0.07980  0.85540  0.99720  Biso   1.000  F
  F72      1.0000 0.92020  0.35540  0.50280  Biso   1.000  F
  F73      1.0000 0.97650  0.92890  0.25500  Biso   1.000  F
  F74      1.0000 0.02350  0.42890  0.24500  Biso   1.000  F
  F75      1.0000 0.02350  0.07110  0.74500  Biso   1.000  F
  F76      1.0000 0.97650  0.57110  0.75500  Biso   1.000  F
  F77      1.0000 0.91830  0.88560  0.31850  Biso   1.000  F
  F78      1.0000 0.08170  0.38560  0.18150  Biso   1.000  F
  F79      1.0000 0.08170  0.11440  0.68150  Biso   1.000  F
  F80      1.0000 0.91830  0.61440  0.81850  Biso   1.000  F
  F81      1.0000 0.87200  0.90900  0.19740  Biso   1.000  F
  F82      1.0000 0.12800  0.40900  0.30260  Biso   1.000  F
  F83      1.0000 0.12800  0.09100  0.80260  Biso   1.000  F
  F84      1.0000 0.87200  0.59100  0.69740  Biso   1.000  F
  F85      1.0000 0.79570  0.08100  0.47380  Biso   1.000  F
  F86      1.0000 0.20430  0.58100  0.02620  Biso   1.000  F
  F87      1.0000 0.20430  0.91900  0.52620  Biso   1.000  F
  F88      1.0000 0.79570  0.41900  0.97380  Biso   1.000  F
  F89      1.0000 0.87310  0.02040  0.51950  Biso   1.000  F
  F90      1.0000 0.12690  0.52040  0.98050  Biso   1.000  F
  F91      1.0000 0.12690  0.97960  0.48050  Biso   1.000  F
  F92      1.0000 0.87310  0.47960  0.01950  Biso   1.000  F
  F93      1.0000 0.89310  0.10690  0.52030  Biso   1.000  F
  F94      1.0000 0.10690  0.60690  0.97970  Biso   1.000  F
  F95      1.0000 0.10690  0.89310  0.47970  Biso   1.000  F
  F96      1.0000 0.89310  0.39310  0.02030  Biso   1.000  F
  H1       1.0000 0.31320  0.29100  0.08190  Biso   1.000  H
  H2       1.0000 0.68680  0.79100  0.41810  Biso   1.000  H
  H3       1.0000 0.68680  0.70900  0.91810  Biso   1.000  H
  H4       1.0000 0.31320  0.20900  0.58190  Biso   1.000  H
  H5       1.0000 0.41280  0.98270  0.41020  Biso   1.000  H
  H6       1.0000 0.58720  0.48270  0.08980  Biso   1.000  H
  H7       1.0000 0.58720  0.01730  0.58980  Biso   1.000  H
  H8       1.0000 0.41280  0.51730  0.91020  Biso   1.000  H
  H9       1.0000 0.83790  0.27410  0.07980  Biso   1.000  H
  H10      1.0000 0.16210  0.77410  0.42020  Biso   1.000  H
  H11      1.0000 0.16210  0.72590  0.92020  Biso   1.000  H
  H12      1.0000 0.83790  0.22590  0.57980  Biso   1.000  H
  H13      1.0000 0.88730  0.96670  0.39990  Biso   1.000  H
  H14      1.0000 0.11270  0.46670  0.10010  Biso   1.000  H
  H15      1.0000 0.11270  0.03330  0.60010  Biso   1.000  H
  H16      1.0000 0.88730  0.53330  0.89990  Biso   1.000  H
  H17      1.0000 0.07280  0.05330  0.01650  Biso   1.000  H
  H18      1.0000 0.92720  0.55330  0.48350  Biso   1.000  H
  H19      1.0000 0.92720  0.94670  0.98350  Biso   1.000  H
  H20      1.0000 0.07280  0.44670  0.51650  Biso   1.000  H
  H21      1.0000 0.12960  0.96170  0.15230  Biso   1.000  H
  H22      1.0000 0.87040  0.46170  0.34770  Biso   1.000  H
  H23      1.0000 0.87040  0.03830  0.84770  Biso   1.000  H
  H24      1.0000 0.12960  0.53830  0.65230  Biso   1.000  H
  H25      1.0000 0.05460  0.98630  0.15550  Biso   1.000  H
  H26      1.0000 0.94540  0.48630  0.34450  Biso   1.000  H
  H27      1.0000 0.94540  0.01370  0.84450  Biso   1.000  H
  H28      1.0000 0.05460  0.51370  0.65550  Biso   1.000  H
  H29      1.0000 0.06580  0.06310  0.27700  Biso   1.000  H
  H30      1.0000 0.93420  0.56310  0.22300  Biso   1.000  H
  H31      1.0000 0.93420  0.93690  0.72300  Biso   1.000  H
  H32      1.0000 0.06580  0.43690  0.77700  Biso   1.000  H
  H33      1.0000 0.04290  0.09240  0.18800  Biso   1.000  H
  H34      1.0000 0.95710  0.59240  0.31200  Biso   1.000  H
  H35      1.0000 0.95710  0.90760  0.81200  Biso   1.000  H
  H36      1.0000 0.04290  0.40760  0.68800  Biso   1.000  H
  H37      1.0000 0.54190  0.01660  0.08440  Biso   1.000  H
  H38      1.0000 0.45810  0.51660  0.41560  Biso   1.000  H
  H39      1.0000 0.45810  0.98340  0.91560  Biso   1.000  H
  H40      1.0000 0.54190  0.48340  0.58440  Biso   1.000  H
  H41      1.0000 0.53100  0.07280  0.02280  Biso   1.000  H
  H42      1.0000 0.46900  0.57280  0.47720  Biso   1.000  H
  H43      1.0000 0.46900  0.92720  0.97720  Biso   1.000  H
  H44      1.0000 0.53100  0.42720  0.52280  Biso   1.000  H
  H45      1.0000 0.50600  0.08580  0.15740  Biso   1.000  H
  H46      1.0000 0.49400  0.58580  0.34260  Biso   1.000  H
  H47      1.0000 0.49400  0.91420  0.84260  Biso   1.000  H
  H48      1.0000 0.50600  0.41420  0.65740  Biso   1.000  H
  H49      1.0000 0.53660  0.14190  0.11960  Biso   1.000  H
  H50      1.0000 0.46340  0.64190  0.38040  Biso   1.000  H
  H51      1.0000 0.46340  0.85810  0.88040  Biso   1.000  H
  H52      1.0000 0.53660  0.35810  0.61960  Biso   1.000  H
  H53      1.0000 0.65930  0.18550  0.21270  Biso   1.000  H
  H54      1.0000 0.34070  0.68550  0.28730  Biso   1.000  H
  H55      1.0000 0.34070  0.81450  0.78730  Biso   1.000  H
  H56      1.0000 0.65930  0.31450  0.71270  Biso   1.000  H
  H57      1.0000 0.68610  0.15470  0.30070  Biso   1.000  H
  H58      1.0000 0.31390  0.65470  0.19930  Biso   1.000  H
  H59      1.0000 0.31390  0.84530  0.69930  Biso   1.000  H
  H60      1.0000 0.68610  0.34530  0.80070  Biso   1.000  H
  H61      1.0000 0.16740  0.21300  0.46120  Biso   1.000  H
  H62      1.0000 0.83260  0.71300  0.03880  Biso   1.000  H
  H63      1.0000 0.83260  0.78700  0.53880  Biso   1.000  H
  H64      1.0000 0.16740  0.28700  0.96120  Biso   1.000  H
  H65      1.0000 0.14560  0.25500  0.38170  Biso   1.000  H
  H66      1.0000 0.85440  0.75500  0.11830  Biso   1.000  H
  H67      1.0000 0.85440  0.74500  0.61830  Biso   1.000  H
  H68      1.0000 0.14560  0.24500  0.88170  Biso   1.000  H
  H69      1.0000 0.17070  0.12380  0.38590  Biso   1.000  H
  H70      1.0000 0.82930  0.62380  0.11410  Biso   1.000  H
  H71      1.0000 0.82930  0.87620  0.61410  Biso   1.000  H
  H72      1.0000 0.17070  0.37620  0.88590  Biso   1.000  H
  H73      1.0000 0.20420  0.17320  0.34060  Biso   1.000  H
  H74      1.0000 0.79580  0.67320  0.15940  Biso   1.000  H
  H75      1.0000 0.79580  0.82680  0.65940  Biso   1.000  H
  H76      1.0000 0.20420  0.32680  0.84060  Biso   1.000  H
  H77      1.0000 0.69470  0.19050  0.43810  Biso   1.000  H
  H78      1.0000 0.30530  0.69050  0.06190  Biso   1.000  H
  H79      1.0000 0.30530  0.80950  0.56190  Biso   1.000  H
  H80      1.0000 0.69470  0.30950  0.93810  Biso   1.000  H
  H81      1.0000 0.67290  0.25150  0.47520  Biso   1.000  H
  H82      1.0000 0.32710  0.75150  0.02480  Biso   1.000  H
  H83      1.0000 0.32710  0.74850  0.52480  Biso   1.000  H
  H84      1.0000 0.67290  0.24850  0.97520  Biso   1.000  H
  H85      1.0000 0.68970  0.26000  0.33820  Biso   1.000  H
  H86      1.0000 0.31030  0.76000  0.16180  Biso   1.000  H
  H87      1.0000 0.31030  0.74000  0.66180  Biso   1.000  H
  H88      1.0000 0.68970  0.24000  0.83820  Biso   1.000  H
  H89      1.0000 0.62190  0.29360  0.34990  Biso   1.000  H
  H90      1.0000 0.37810  0.79360  0.15010  Biso   1.000  H
  H91      1.0000 0.37810  0.70640  0.65010  Biso   1.000  H
  H92      1.0000 0.62190  0.20640  0.84990  Biso   1.000  H
