data_image0
_cell_length_a       7.521
_cell_length_b       9.699
_cell_length_c       15.381
_cell_angle_alpha    90
_cell_angle_beta     93.511
_cell_angle_gamma    90

_symmetry_space_group_name_H-M    "P 1"
_symmetry_int_tables_number       1

loop_
  _symmetry_equiv_pos_as_xyz
  'x, y, z'

loop_
  _atom_site_label
  _atom_site_occupancy
  _atom_site_fract_x
  _atom_site_fract_y
  _atom_site_fract_z
  _atom_site_thermal_displace_type
  _atom_site_B_iso_or_equiv
  _atom_site_type_symbol
  Cu1      1.0000 0.15405  0.24780  0.18493  Biso   1.000  Cu
  Cu2      1.0000 0.84595  0.74780  0.31507  Biso   1.000  Cu
  Cu3      1.0000 0.84595  0.75220  0.81507  Biso   1.000  Cu
  Cu4      1.0000 0.15405  0.25220  0.68493  Biso   1.000  Cu
  S1       1.0000 0.41403  0.24940  0.28241  Biso   1.000  S
  S2       1.0000 0.58597  0.74940  0.21759  Biso   1.000  S
  S3       1.0000 0.58597  0.75060  0.71759  Biso   1.000  S
  S4       1.0000 0.41403  0.25060  0.78241  Biso   1.000  S
  O1       1.0000 0.96089  0.63453  0.20016  Biso   1.000  O
  O2       1.0000 0.03911  0.13453  0.29984  Biso   1.000  O
  O3       1.0000 0.03911  0.36547  0.79984  Biso   1.000  O
  O4       1.0000 0.96089  0.86547  0.70016  Biso   1.000  O
  O5       1.0000 0.19930  0.06928  0.12723  Biso   1.000  O
  O6       1.0000 0.80070  0.56928  0.37277  Biso   1.000  O
  O7       1.0000 0.80070  0.93072  0.87277  Biso   1.000  O
  O8       1.0000 0.19930  0.43072  0.62723  Biso   1.000  O
  O9       1.0000 0.36590  0.20039  0.06057  Biso   1.000  O
  O10      1.0000 0.63410  0.70039  0.43943  Biso   1.000  O
  O11      1.0000 0.63410  0.79961  0.93943  Biso   1.000  O
  O12      1.0000 0.36590  0.29961  0.56057  Biso   1.000  O
  N1       1.0000 0.96183  0.30775  0.09445  Biso   1.000  N
  N2       1.0000 0.03817  0.80775  0.40555  Biso   1.000  N
  N3       1.0000 0.03817  0.69225  0.90555  Biso   1.000  N
  N4       1.0000 0.96183  0.19225  0.59445  Biso   1.000  N
  N5       1.0000 0.11736  0.43229  0.22766  Biso   1.000  N
  N6       1.0000 0.88264  0.93229  0.27234  Biso   1.000  N
  N7       1.0000 0.88264  0.56771  0.77234  Biso   1.000  N
  N8       1.0000 0.11736  0.06771  0.72766  Biso   1.000  N
  N9       1.0000 0.30410  0.08188  0.07128  Biso   1.000  N
  N10      1.0000 0.69590  0.58188  0.42872  Biso   1.000  N
  N11      1.0000 0.69590  0.91812  0.92872  Biso   1.000  N
  N12      1.0000 0.30410  0.41812  0.57128  Biso   1.000  N
  C1       1.0000 0.89290  0.23773  0.02541  Biso   1.000  C
  C2       1.0000 0.10710  0.73773  0.47459  Biso   1.000  C
  C3       1.0000 0.10710  0.76227  0.97459  Biso   1.000  C
  C4       1.0000 0.89290  0.26227  0.52541  Biso   1.000  C
  H1       1.0000 0.93016  0.14535  0.01703  Biso   1.000  H
  H2       1.0000 0.06984  0.64535  0.48297  Biso   1.000  H
  H3       1.0000 0.06984  0.85465  0.98297  Biso   1.000  H
  H4       1.0000 0.93016  0.35465  0.51703  Biso   1.000  H
  C5       1.0000 0.76860  0.29550  0.96560  Biso   1.000  C
  C6       1.0000 0.23140  0.79550  0.53440  Biso   1.000  C
  C7       1.0000 0.23140  0.70450  0.03440  Biso   1.000  C
  C8       1.0000 0.76860  0.20450  0.46560  Biso   1.000  C
  H5       1.0000 0.72103  0.24349  0.91727  Biso   1.000  H
  H6       1.0000 0.27897  0.74349  0.58273  Biso   1.000  H
  H7       1.0000 0.27897  0.75651  0.08273  Biso   1.000  H
  H8       1.0000 0.72103  0.25651  0.41727  Biso   1.000  H
  C9       1.0000 0.71570  0.43010  0.97784  Biso   1.000  C
  C10      1.0000 0.28430  0.93010  0.52216  Biso   1.000  C
  C11      1.0000 0.28430  0.56990  0.02216  Biso   1.000  C
  C12      1.0000 0.71570  0.06990  0.47784  Biso   1.000  C
  H9       1.0000 0.63120  0.47214  0.93771  Biso   1.000  H
  H10      1.0000 0.36880  0.97214  0.56229  Biso   1.000  H
  H11      1.0000 0.36880  0.52786  0.06229  Biso   1.000  H
  H12      1.0000 0.63120  0.02786  0.43771  Biso   1.000  H
  C13      1.0000 0.78710  0.50387  0.04943  Biso   1.000  C
  C14      1.0000 0.21290  0.00387  0.45057  Biso   1.000  C
  C15      1.0000 0.21290  0.49613  0.95057  Biso   1.000  C
  C16      1.0000 0.78710  0.99613  0.54943  Biso   1.000  C
  H13      1.0000 0.75194  0.59645  0.05899  Biso   1.000  H
  H14      1.0000 0.24806  0.09645  0.44101  Biso   1.000  H
  H15      1.0000 0.24806  0.40355  0.94101  Biso   1.000  H
  H16      1.0000 0.75194  0.90355  0.55899  Biso   1.000  H
  C17      1.0000 0.91060  0.43927  0.10653  Biso   1.000  C
  C18      1.0000 0.08940  0.93927  0.39347  Biso   1.000  C
  C19      1.0000 0.08940  0.56073  0.89347  Biso   1.000  C
  C20      1.0000 0.91060  0.06073  0.60653  Biso   1.000  C
  C21      1.0000 0.99990  0.51128  0.18443  Biso   1.000  C
  C22      1.0000 0.00010  0.01128  0.31557  Biso   1.000  C
  C23      1.0000 0.00010  0.48872  0.81557  Biso   1.000  C
  C24      1.0000 0.99990  0.98872  0.68443  Biso   1.000  C
  C25      1.0000 0.22310  0.49137  0.30095  Biso   1.000  C
  C26      1.0000 0.77690  0.99137  0.19905  Biso   1.000  C
  C27      1.0000 0.77690  0.50863  0.69905  Biso   1.000  C
  C28      1.0000 0.22310  0.00863  0.80095  Biso   1.000  C
  H17      1.0000 0.14476  0.54307  0.33882  Biso   1.000  H
  H18      1.0000 0.85524  0.04307  0.16118  Biso   1.000  H
  H19      1.0000 0.85524  0.45693  0.66118  Biso   1.000  H
  H20      1.0000 0.14476  0.95693  0.83882  Biso   1.000  H
  H21      1.0000 0.31184  0.55635  0.27934  Biso   1.000  H
  H22      1.0000 0.68816  0.05635  0.22066  Biso   1.000  H
  H23      1.0000 0.68816  0.44365  0.72066  Biso   1.000  H
  H24      1.0000 0.31184  0.94365  0.77934  Biso   1.000  H
  C29      1.0000 0.31790  0.37669  0.35290  Biso   1.000  C
  C30      1.0000 0.68210  0.87669  0.14710  Biso   1.000  C
  C31      1.0000 0.68210  0.62331  0.64710  Biso   1.000  C
  C32      1.0000 0.31790  0.12331  0.85290  Biso   1.000  C
  H25      1.0000 0.23212  0.33054  0.38961  Biso   1.000  H
  H26      1.0000 0.76788  0.83054  0.11039  Biso   1.000  H
  H27      1.0000 0.76788  0.66946  0.61039  Biso   1.000  H
  H28      1.0000 0.23212  0.16946  0.88961  Biso   1.000  H
  H29      1.0000 0.41362  0.41710  0.39198  Biso   1.000  H
  H30      1.0000 0.58638  0.91710  0.10802  Biso   1.000  H
  H31      1.0000 0.58638  0.58290  0.60802  Biso   1.000  H
  H32      1.0000 0.41362  0.08290  0.89198  Biso   1.000  H
  C33      1.0000 0.57500  0.35147  0.22746  Biso   1.000  C
  C34      1.0000 0.42500  0.85147  0.27254  Biso   1.000  C
  C35      1.0000 0.42500  0.64853  0.77254  Biso   1.000  C
  C36      1.0000 0.57500  0.14853  0.72746  Biso   1.000  C
  H33      1.0000 0.62151  0.29737  0.18005  Biso   1.000  H
  H34      1.0000 0.37849  0.79737  0.31995  Biso   1.000  H
  H35      1.0000 0.37849  0.70263  0.81995  Biso   1.000  H
  H36      1.0000 0.62151  0.20263  0.68005  Biso   1.000  H
  H37      1.0000 0.67332  0.37723  0.26907  Biso   1.000  H
  H38      1.0000 0.32668  0.87723  0.23093  Biso   1.000  H
  H39      1.0000 0.32668  0.62277  0.73093  Biso   1.000  H
  H40      1.0000 0.67332  0.12277  0.76907  Biso   1.000  H
  H41      1.0000 0.51734  0.43500  0.20355  Biso   1.000  H
  H42      1.0000 0.48266  0.93500  0.29645  Biso   1.000  H
  H43      1.0000 0.48266  0.56500  0.79645  Biso   1.000  H
  H44      1.0000 0.51734  0.06500  0.70355  Biso   1.000  H
