data_image0
_cell_length_a       5.9027
_cell_length_b       16.4411
_cell_length_c       15.7542
_cell_angle_alpha    90
_cell_angle_beta     98.344
_cell_angle_gamma    90

_symmetry_space_group_name_H-M    "P 1"
_symmetry_int_tables_number       1

loop_
  _symmetry_equiv_pos_as_xyz
  'x, y, z'

loop_
  _atom_site_label
  _atom_site_occupancy
  _atom_site_fract_x
  _atom_site_fract_y
  _atom_site_fract_z
  _atom_site_thermal_displace_type
  _atom_site_B_iso_or_equiv
  _atom_site_type_symbol
  C1       1.0000 0.30730  0.20742  0.66983  Biso   1.000  C
  C2       1.0000 0.19270  0.70742  0.83017  Biso   1.000  C
  C3       1.0000 0.69270  0.79258  0.33017  Biso   1.000  C
  C4       1.0000 0.80730  0.29258  0.16983  Biso   1.000  C
  H1       1.0000 0.16930  0.23530  0.64930  Biso   1.000  H
  H2       1.0000 0.33070  0.73530  0.85070  Biso   1.000  H
  H3       1.0000 0.83070  0.76470  0.35070  Biso   1.000  H
  H4       1.0000 0.66930  0.26470  0.14930  Biso   1.000  H
  C5       1.0000 0.38470  0.20796  0.75667  Biso   1.000  C
  C6       1.0000 0.11530  0.70796  0.74333  Biso   1.000  C
  C7       1.0000 0.61530  0.79204  0.24333  Biso   1.000  C
  C8       1.0000 0.88470  0.29204  0.25667  Biso   1.000  C
  H5       1.0000 0.30180  0.23560  0.79530  Biso   1.000  H
  H6       1.0000 0.19820  0.73560  0.70470  Biso   1.000  H
  H7       1.0000 0.69820  0.76440  0.20470  Biso   1.000  H
  H8       1.0000 0.80180  0.26440  0.29530  Biso   1.000  H
  C9       1.0000 0.58680  0.16717  0.78638  Biso   1.000  C
  C10      1.0000 0.91320  0.66717  0.71362  Biso   1.000  C
  C11      1.0000 0.41320  0.83283  0.21362  Biso   1.000  C
  C12      1.0000 0.08680  0.33283  0.28638  Biso   1.000  C
  H9       1.0000 0.64510  0.16680  0.84580  Biso   1.000  H
  H10      1.0000 0.85490  0.66680  0.65420  Biso   1.000  H
  H11      1.0000 0.35490  0.83320  0.15420  Biso   1.000  H
  H12      1.0000 0.14510  0.33320  0.34580  Biso   1.000  H
  C13      1.0000 0.70170  0.12718  0.72844  Biso   1.000  C
  C14      1.0000 0.79830  0.62718  0.77156  Biso   1.000  C
  C15      1.0000 0.29830  0.87282  0.27156  Biso   1.000  C
  C16      1.0000 0.20170  0.37282  0.22844  Biso   1.000  C
  H13      1.0000 0.84030  0.09900  0.74750  Biso   1.000  H
  H14      1.0000 0.65970  0.59900  0.75250  Biso   1.000  H
  H15      1.0000 0.15970  0.90100  0.25250  Biso   1.000  H
  H16      1.0000 0.34030  0.40100  0.24750  Biso   1.000  H
  C17      1.0000 0.61260  0.12866  0.64207  Biso   1.000  C
  C18      1.0000 0.88740  0.62866  0.85793  Biso   1.000  C
  C19      1.0000 0.38740  0.87134  0.35793  Biso   1.000  C
  C20      1.0000 0.11260  0.37134  0.14207  Biso   1.000  C
  C21      1.0000 0.72740  0.08542  0.57542  Biso   1.000  C
  C22      1.0000 0.77260  0.58542  0.92458  Biso   1.000  C
  C23      1.0000 0.27260  0.91458  0.42458  Biso   1.000  C
  C24      1.0000 0.22740  0.41458  0.07542  Biso   1.000  C
  H17      1.0000 0.88590  0.10570  0.57740  Biso   1.000  H
  H18      1.0000 0.61410  0.60570  0.92260  Biso   1.000  H
  H19      1.0000 0.11410  0.89430  0.42260  Biso   1.000  H
  H20      1.0000 0.38590  0.39430  0.07740  Biso   1.000  H
  H21      1.0000 0.73430  0.02630  0.58770  Biso   1.000  H
  H22      1.0000 0.76570  0.52630  0.91230  Biso   1.000  H
  H23      1.0000 0.26570  0.97370  0.41230  Biso   1.000  H
  H24      1.0000 0.23430  0.47370  0.08770  Biso   1.000  H
  C25      1.0000 0.68010  0.07081  0.42420  Biso   1.000  C
  C26      1.0000 0.81990  0.57081  0.07580  Biso   1.000  C
  C27      1.0000 0.31990  0.92919  0.57580  Biso   1.000  C
  C28      1.0000 0.18010  0.42919  0.92420  Biso   1.000  C
  H25      1.0000 0.81800  0.04040  0.43590  Biso   1.000  H
  H26      1.0000 0.68200  0.54040  0.06410  Biso   1.000  H
  H27      1.0000 0.18200  0.95960  0.56410  Biso   1.000  H
  H28      1.0000 0.31800  0.45960  0.93590  Biso   1.000  H
  C29      1.0000 0.58590  0.07958  0.33648  Biso   1.000  C
  C30      1.0000 0.91410  0.57958  0.16352  Biso   1.000  C
  C31      1.0000 0.41410  0.92042  0.66352  Biso   1.000  C
  C32      1.0000 0.08590  0.42042  0.83648  Biso   1.000  C
  C33      1.0000 0.37650  0.11971  0.31038  Biso   1.000  C
  C34      1.0000 0.12350  0.61971  0.18962  Biso   1.000  C
  C35      1.0000 0.62350  0.88029  0.68962  Biso   1.000  C
  C36      1.0000 0.87650  0.38029  0.81038  Biso   1.000  C
  C37      1.0000 0.26360  0.12646  0.21850  Biso   1.000  C
  C38      1.0000 0.23640  0.62646  0.28150  Biso   1.000  C
  C39      1.0000 0.73640  0.87354  0.78150  Biso   1.000  C
  C40      1.0000 0.76360  0.37354  0.71850  Biso   1.000  C
  H29      1.0000 0.10280  0.14200  0.21710  Biso   1.000  H
  H30      1.0000 0.39720  0.64200  0.28290  Biso   1.000  H
  H31      1.0000 0.89720  0.85800  0.78290  Biso   1.000  H
  H32      1.0000 0.60280  0.35800  0.71710  Biso   1.000  H
  H33      1.0000 0.27200  0.07390  0.18980  Biso   1.000  H
  H34      1.0000 0.22800  0.57390  0.31020  Biso   1.000  H
  H35      1.0000 0.72800  0.92610  0.81020  Biso   1.000  H
  H36      1.0000 0.77200  0.42610  0.68980  Biso   1.000  H
  H37      1.0000 0.34250  0.16790  0.18890  Biso   1.000  H
  H38      1.0000 0.15750  0.66790  0.31110  Biso   1.000  H
  H39      1.0000 0.65750  0.83210  0.81110  Biso   1.000  H
  H40      1.0000 0.84250  0.33210  0.68890  Biso   1.000  H
  C41      1.0000 0.71820  0.03666  0.27789  Biso   1.000  C
  C42      1.0000 0.78180  0.53666  0.22211  Biso   1.000  C
  C43      1.0000 0.28180  0.96334  0.72211  Biso   1.000  C
  C44      1.0000 0.21820  0.46334  0.77789  Biso   1.000  C
  C45      1.0000 0.76280  0.01071  0.13231  Biso   1.000  C
  C46      1.0000 0.73720  0.51071  0.36769  Biso   1.000  C
  C47      1.0000 0.23720  0.98929  0.86769  Biso   1.000  C
  C48      1.0000 0.26280  0.48929  0.63231  Biso   1.000  C
  H41      1.0000 0.68170  0.95800  0.12400  Biso   1.000  H
  H42      1.0000 0.81830  0.45800  0.37600  Biso   1.000  H
  H43      1.0000 0.31830  0.04200  0.87600  Biso   1.000  H
  H44      1.0000 0.18170  0.54200  0.62400  Biso   1.000  H
  H45      1.0000 0.92760  0.00010  0.15100  Biso   1.000  H
  H46      1.0000 0.57240  0.50010  0.34900  Biso   1.000  H
  H47      1.0000 0.07240  0.99990  0.84900  Biso   1.000  H
  H48      1.0000 0.42760  0.49990  0.65100  Biso   1.000  H
  C49      1.0000 0.72880  0.05943  0.05064  Biso   1.000  C
  C50      1.0000 0.77120  0.55943  0.44936  Biso   1.000  C
  C51      1.0000 0.27120  0.94057  0.94936  Biso   1.000  C
  C52      1.0000 0.22880  0.44057  0.55064  Biso   1.000  C
  H49      1.0000 0.56590  0.07220  0.03500  Biso   1.000  H
  H50      1.0000 0.93410  0.57220  0.46500  Biso   1.000  H
  H51      1.0000 0.43410  0.92780  0.96500  Biso   1.000  H
  H52      1.0000 0.06590  0.42780  0.53500  Biso   1.000  H
  H53      1.0000 0.78170  0.02780  0.00460  Biso   1.000  H
  H54      1.0000 0.71830  0.52780  0.49540  Biso   1.000  H
  H55      1.0000 0.21830  0.97220  0.99540  Biso   1.000  H
  H56      1.0000 0.28170  0.47220  0.50460  Biso   1.000  H
  H57      1.0000 0.81660  0.11010  0.05920  Biso   1.000  H
  H58      1.0000 0.68340  0.61010  0.44080  Biso   1.000  H
  H59      1.0000 0.18340  0.88990  0.94080  Biso   1.000  H
  H60      1.0000 0.31660  0.38990  0.55920  Biso   1.000  H
  C53      1.0000 0.87980  0.26357  0.47809  Biso   1.000  C
  C54      1.0000 0.62020  0.76357  0.02191  Biso   1.000  C
  C55      1.0000 0.12020  0.73643  0.52191  Biso   1.000  C
  C56      1.0000 0.37980  0.23643  0.97809  Biso   1.000  C
  N1       1.0000 0.41930  0.16895  0.61302  Biso   1.000  N
  N2       1.0000 0.08070  0.66895  0.88698  Biso   1.000  N
  N3       1.0000 0.58070  0.83105  0.38698  Biso   1.000  N
  N4       1.0000 0.91930  0.33105  0.11302  Biso   1.000  N
  N5       1.0000 0.59850  0.09969  0.48986  Biso   1.000  N
  N6       1.0000 0.90150  0.59969  0.01014  Biso   1.000  N
  N7       1.0000 0.40150  0.90031  0.51014  Biso   1.000  N
  N8       1.0000 0.09850  0.40031  0.98986  Biso   1.000  N
  N9       1.0000 0.05580  0.23074  0.48410  Biso   1.000  N
  N10      1.0000 0.44420  0.73074  0.01590  Biso   1.000  N
  N11      1.0000 0.94420  0.76926  0.51590  Biso   1.000  N
  N12      1.0000 0.55580  0.26926  0.98410  Biso   1.000  N
  O1       1.0000 0.26230  0.15358  0.36332  Biso   1.000  O
  O2       1.0000 0.23770  0.65358  0.13668  Biso   1.000  O
  O3       1.0000 0.73770  0.84642  0.63668  Biso   1.000  O
  O4       1.0000 0.76230  0.34642  0.86332  Biso   1.000  O
  O5       1.0000 0.86210  0.98496  0.30123  Biso   1.000  O
  O6       1.0000 0.63790  0.48496  0.19877  Biso   1.000  O
  O7       1.0000 0.13790  0.01504  0.69877  Biso   1.000  O
  O8       1.0000 0.36210  0.51504  0.80123  Biso   1.000  O
  O9       1.0000 0.66860  0.05971  0.19562  Biso   1.000  O
  O10      1.0000 0.83140  0.55971  0.30438  Biso   1.000  O
  O11      1.0000 0.33140  0.94029  0.80438  Biso   1.000  O
  O12      1.0000 0.16860  0.44029  0.69562  Biso   1.000  O
  S1       1.0000 0.63400  0.30997  0.47018  Biso   1.000  S
  S2       1.0000 0.86600  0.80997  0.02982  Biso   1.000  S
  S3       1.0000 0.36600  0.69003  0.52982  Biso   1.000  S
  S4       1.0000 0.13400  0.19003  0.97018  Biso   1.000  S
  Cu1      1.0000 0.33946  0.17064  0.48527  Biso   1.000  Cu
  Cu2      1.0000 0.16054  0.67064  0.01473  Biso   1.000  Cu
  Cu3      1.0000 0.66054  0.82936  0.51473  Biso   1.000  Cu
  Cu4      1.0000 0.83946  0.32936  0.98527  Biso   1.000  Cu
