data_image0
_cell_length_a       9.0597
_cell_length_b       14.5372
_cell_length_c       11.8354
_cell_angle_alpha    90
_cell_angle_beta     95.232
_cell_angle_gamma    90

_symmetry_space_group_name_H-M    "P 1"
_symmetry_int_tables_number       1

loop_
  _symmetry_equiv_pos_as_xyz
  'x, y, z'

loop_
  _atom_site_label
  _atom_site_occupancy
  _atom_site_fract_x
  _atom_site_fract_y
  _atom_site_fract_z
  _atom_site_thermal_displace_type
  _atom_site_B_iso_or_equiv
  _atom_site_type_symbol
  C1       1.0000 0.22230  0.88173  0.50565  Biso   1.000  C
  C2       1.0000 0.77770  0.38173  0.99435  Biso   1.000  C
  C3       1.0000 0.77770  0.11827  0.49435  Biso   1.000  C
  C4       1.0000 0.22230  0.61827  0.00565  Biso   1.000  C
  H1       1.0000 0.17590  0.83520  0.54620  Biso   1.000  H
  H2       1.0000 0.82410  0.33520  0.95380  Biso   1.000  H
  H3       1.0000 0.82410  0.16480  0.45380  Biso   1.000  H
  H4       1.0000 0.17590  0.66480  0.04620  Biso   1.000  H
  C5       1.0000 0.30640  0.85629  0.41928  Biso   1.000  C
  C6       1.0000 0.69360  0.35629  0.08072  Biso   1.000  C
  C7       1.0000 0.69360  0.14371  0.58072  Biso   1.000  C
  C8       1.0000 0.30640  0.64371  0.91928  Biso   1.000  C
  H5       1.0000 0.31690  0.79330  0.40030  Biso   1.000  H
  H6       1.0000 0.68310  0.29330  0.09970  Biso   1.000  H
  H7       1.0000 0.68310  0.20670  0.59970  Biso   1.000  H
  H8       1.0000 0.31690  0.70670  0.90030  Biso   1.000  H
  C9       1.0000 0.37510  0.92392  0.36071  Biso   1.000  C
  C10      1.0000 0.62490  0.42392  0.13929  Biso   1.000  C
  C11      1.0000 0.62490  0.07608  0.63929  Biso   1.000  C
  C12      1.0000 0.37510  0.57608  0.86071  Biso   1.000  C
  H9       1.0000 0.43530  0.90790  0.30210  Biso   1.000  H
  H10      1.0000 0.56470  0.40790  0.19790  Biso   1.000  H
  H11      1.0000 0.56470  0.09210  0.69790  Biso   1.000  H
  H12      1.0000 0.43530  0.59210  0.80210  Biso   1.000  H
  C13      1.0000 0.35490  0.01496  0.38867  Biso   1.000  C
  C14      1.0000 0.64510  0.51496  0.11133  Biso   1.000  C
  C15      1.0000 0.64510  0.98504  0.61133  Biso   1.000  C
  C16      1.0000 0.35490  0.48504  0.88867  Biso   1.000  C
  H13      1.0000 0.39960  0.06250  0.34850  Biso   1.000  H
  H14      1.0000 0.60040  0.56250  0.15150  Biso   1.000  H
  H15      1.0000 0.60040  0.93750  0.65150  Biso   1.000  H
  H16      1.0000 0.39960  0.43750  0.84850  Biso   1.000  H
  C17      1.0000 0.26831  0.03638  0.47615  Biso   1.000  C
  C18      1.0000 0.73169  0.53638  0.02385  Biso   1.000  C
  C19      1.0000 0.73169  0.96362  0.52385  Biso   1.000  C
  C20      1.0000 0.26831  0.46362  0.97615  Biso   1.000  C
  C21      1.0000 0.24580  0.13376  0.51319  Biso   1.000  C
  C22      1.0000 0.75420  0.63376  0.98681  Biso   1.000  C
  C23      1.0000 0.75420  0.86624  0.48681  Biso   1.000  C
  C24      1.0000 0.24580  0.36624  0.01319  Biso   1.000  C
  H17      1.0000 0.34270  0.16160  0.53940  Biso   1.000  H
  H18      1.0000 0.65730  0.66160  0.96060  Biso   1.000  H
  H19      1.0000 0.65730  0.83840  0.46060  Biso   1.000  H
  H20      1.0000 0.34270  0.33840  0.03940  Biso   1.000  H
  H21      1.0000 0.20110  0.17040  0.44830  Biso   1.000  H
  H22      1.0000 0.79890  0.67040  0.05170  Biso   1.000  H
  H23      1.0000 0.79890  0.82960  0.55170  Biso   1.000  H
  H24      1.0000 0.20110  0.32960  0.94830  Biso   1.000  H
  C25      1.0000 0.10692  0.21495  0.63979  Biso   1.000  C
  C26      1.0000 0.89308  0.71495  0.86021  Biso   1.000  C
  C27      1.0000 0.89308  0.78505  0.36021  Biso   1.000  C
  C28      1.0000 0.10692  0.28505  0.13979  Biso   1.000  C
  H25      1.0000 0.13360  0.26770  0.59890  Biso   1.000  H
  H26      1.0000 0.86640  0.76770  0.90110  Biso   1.000  H
  H27      1.0000 0.86640  0.73230  0.40110  Biso   1.000  H
  H28      1.0000 0.13360  0.23230  0.09890  Biso   1.000  H
  C29      1.0000 0.02427  0.22889  0.73457  Biso   1.000  C
  C30      1.0000 0.97573  0.72889  0.76543  Biso   1.000  C
  C31      1.0000 0.97573  0.77111  0.26543  Biso   1.000  C
  C32      1.0000 0.02427  0.27111  0.23457  Biso   1.000  C
  C33      1.0000 0.98429  0.15647  0.80684  Biso   1.000  C
  C34      1.0000 0.01571  0.65647  0.69316  Biso   1.000  C
  C35      1.0000 0.01571  0.84353  0.19316  Biso   1.000  C
  C36      1.0000 0.98429  0.34353  0.30684  Biso   1.000  C
  C37      1.0000 0.87370  0.11427  0.97572  Biso   1.000  C
  C38      1.0000 0.12630  0.61427  0.52428  Biso   1.000  C
  C39      1.0000 0.12630  0.88573  0.02428  Biso   1.000  C
  C40      1.0000 0.87370  0.38573  0.47572  Biso   1.000  C
  H29      1.0000 0.84990  0.14480  0.04660  Biso   1.000  H
  H30      1.0000 0.15010  0.64480  0.45340  Biso   1.000  H
  H31      1.0000 0.15010  0.85520  0.95340  Biso   1.000  H
  H32      1.0000 0.84990  0.35520  0.54660  Biso   1.000  H
  H33      1.0000 0.95930  0.07300  0.99470  Biso   1.000  H
  H34      1.0000 0.04070  0.57300  0.50530  Biso   1.000  H
  H35      1.0000 0.04070  0.92700  0.00530  Biso   1.000  H
  H36      1.0000 0.95930  0.42700  0.49470  Biso   1.000  H
  C41      1.0000 0.74340  0.05809  0.92980  Biso   1.000  C
  C42      1.0000 0.25660  0.55809  0.57020  Biso   1.000  C
  C43      1.0000 0.25660  0.94191  0.07020  Biso   1.000  C
  C44      1.0000 0.74340  0.44191  0.42980  Biso   1.000  C
  H37      1.0000 0.65900  0.09880  0.90900  Biso   1.000  H
  H38      1.0000 0.34100  0.59880  0.59100  Biso   1.000  H
  H39      1.0000 0.34100  0.90120  0.09100  Biso   1.000  H
  H40      1.0000 0.65900  0.40120  0.40900  Biso   1.000  H
  H41      1.0000 0.71720  0.01440  0.98780  Biso   1.000  H
  H42      1.0000 0.28280  0.51440  0.51220  Biso   1.000  H
  H43      1.0000 0.28280  0.98560  0.01220  Biso   1.000  H
  H44      1.0000 0.71720  0.48560  0.48780  Biso   1.000  H
  H45      1.0000 0.76870  0.02430  0.86250  Biso   1.000  H
  H46      1.0000 0.23130  0.52430  0.63750  Biso   1.000  H
  H47      1.0000 0.23130  0.97570  0.13750  Biso   1.000  H
  H48      1.0000 0.76870  0.47570  0.36250  Biso   1.000  H
  C45      1.0000 0.98914  0.32031  0.76321  Biso   1.000  C
  C46      1.0000 0.01086  0.82031  0.73679  Biso   1.000  C
  C47      1.0000 0.01086  0.67969  0.23679  Biso   1.000  C
  C48      1.0000 0.98914  0.17969  0.26321  Biso   1.000  C
  N1       1.0000 0.20400  0.97038  0.53438  Biso   1.000  N
  N2       1.0000 0.79600  0.47038  0.96562  Biso   1.000  N
  N3       1.0000 0.79600  0.02962  0.46562  Biso   1.000  N
  N4       1.0000 0.20400  0.52962  0.03438  Biso   1.000  N
  N5       1.0000 0.14849  0.13545  0.60520  Biso   1.000  N
  N6       1.0000 0.85151  0.63545  0.89480  Biso   1.000  N
  N7       1.0000 0.85151  0.86455  0.39480  Biso   1.000  N
  N8       1.0000 0.14849  0.36455  0.10520  Biso   1.000  N
  N9       1.0000 0.96260  0.39448  0.78672  Biso   1.000  N
  N10      1.0000 0.03740  0.89448  0.71328  Biso   1.000  N
  N11      1.0000 0.03740  0.60552  0.21328  Biso   1.000  N
  N12      1.0000 0.96260  0.10552  0.28672  Biso   1.000  N
  O1       1.0000 0.00961  0.07317  0.79296  Biso   1.000  O
  O2       1.0000 0.99039  0.57317  0.70704  Biso   1.000  O
  O3       1.0000 0.99039  0.92683  0.20704  Biso   1.000  O
  O4       1.0000 0.00961  0.42683  0.29296  Biso   1.000  O
  O5       1.0000 0.91516  0.18428  0.89553  Biso   1.000  O
  O6       1.0000 0.08484  0.68428  0.60447  Biso   1.000  O
  O7       1.0000 0.08484  0.81572  0.10447  Biso   1.000  O
  O8       1.0000 0.91516  0.31572  0.39553  Biso   1.000  O
  O9       1.0000 0.32650  0.01037  0.77808  Biso   1.000  O
  O10      1.0000 0.67350  0.51037  0.72192  Biso   1.000  O
  O11      1.0000 0.67350  0.98963  0.22192  Biso   1.000  O
  O12      1.0000 0.32650  0.48963  0.27808  Biso   1.000  O
  Cu1      1.0000 0.11390  0.01643  0.67140  Biso   1.000  Cu
  Cu2      1.0000 0.88610  0.51643  0.82860  Biso   1.000  Cu
  Cu3      1.0000 0.88610  0.98357  0.32860  Biso   1.000  Cu
  Cu4      1.0000 0.11390  0.48357  0.17140  Biso   1.000  Cu
  H49      1.0000 0.33600  0.04300  0.82800  Biso   1.000  H
  H50      1.0000 0.66400  0.54300  0.67200  Biso   1.000  H
  H51      1.0000 0.66400  0.95700  0.17200  Biso   1.000  H
  H52      1.0000 0.33600  0.45700  0.32800  Biso   1.000  H
  H53      1.0000 0.35800  0.96800  0.80700  Biso   1.000  H
  H54      1.0000 0.64200  0.46800  0.69300  Biso   1.000  H
  H55      1.0000 0.64200  0.03200  0.19300  Biso   1.000  H
  H56      1.0000 0.35800  0.53200  0.30700  Biso   1.000  H
  N13      1.0000 0.50770  0.30291  0.72245  Biso   1.000  N
  N14      1.0000 0.49230  0.80291  0.77755  Biso   1.000  N
  N15      1.0000 0.49230  0.69709  0.27755  Biso   1.000  N
  N16      1.0000 0.50770  0.19709  0.22245  Biso   1.000  N
  O13      1.0000 0.60470  0.29394  0.79882  Biso   1.000  O
  O14      1.0000 0.39530  0.79394  0.70118  Biso   1.000  O
  O15      1.0000 0.39530  0.70606  0.20118  Biso   1.000  O
  O16      1.0000 0.60470  0.20606  0.29882  Biso   1.000  O
  O17      1.0000 0.53063  0.34958  0.63563  Biso   1.000  O
  O18      1.0000 0.46937  0.84958  0.86437  Biso   1.000  O
  O19      1.0000 0.46937  0.65042  0.36437  Biso   1.000  O
  O20      1.0000 0.53063  0.15042  0.13563  Biso   1.000  O
  O21      1.0000 0.38883  0.26507  0.72914  Biso   1.000  O
  O22      1.0000 0.61117  0.76507  0.77086  Biso   1.000  O
  O23      1.0000 0.61117  0.73493  0.27086  Biso   1.000  O
  O24      1.0000 0.38883  0.23493  0.22914  Biso   1.000  O
  O25      1.0000 0.34250  0.15612  0.92617  Biso   1.000  O
  O26      1.0000 0.65750  0.65612  0.57383  Biso   1.000  O
  O27      1.0000 0.65750  0.84388  0.07383  Biso   1.000  O
  O28      1.0000 0.34250  0.34388  0.42617  Biso   1.000  O
  H57      1.0000 0.39100  0.16000  0.98500  Biso   1.000  H
  H58      1.0000 0.60900  0.66000  0.51500  Biso   1.000  H
  H59      1.0000 0.60900  0.84000  0.01500  Biso   1.000  H
  H60      1.0000 0.39100  0.34000  0.48500  Biso   1.000  H
  H61      1.0000 0.37600  0.19000  0.88300  Biso   1.000  H
  H62      1.0000 0.62400  0.69000  0.61700  Biso   1.000  H
  H63      1.0000 0.62400  0.81000  0.11700  Biso   1.000  H
  H64      1.0000 0.37600  0.31000  0.38300  Biso   1.000  H
