data_image0
_cell_length_a       6.8193
_cell_length_b       11.6812
_cell_length_c       28.7206
_cell_angle_alpha    90
_cell_angle_beta     95.047
_cell_angle_gamma    90

_symmetry_space_group_name_H-M    "P 1"
_symmetry_int_tables_number       1

loop_
  _symmetry_equiv_pos_as_xyz
  'x, y, z'

loop_
  _atom_site_label
  _atom_site_occupancy
  _atom_site_fract_x
  _atom_site_fract_y
  _atom_site_fract_z
  _atom_site_thermal_displace_type
  _atom_site_B_iso_or_equiv
  _atom_site_type_symbol
  C1       1.0000 0.78260  0.45940  0.23176  Biso   1.000  C
  C2       1.0000 0.21740  0.95940  0.26824  Biso   1.000  C
  C3       1.0000 0.21740  0.54060  0.76824  Biso   1.000  C
  C4       1.0000 0.78260  0.04060  0.73176  Biso   1.000  C
  H1       1.0000 0.74720  0.49000  0.26050  Biso   1.000  H
  H2       1.0000 0.25280  0.99000  0.23950  Biso   1.000  H
  H3       1.0000 0.25280  0.51000  0.73950  Biso   1.000  H
  H4       1.0000 0.74720  0.01000  0.76050  Biso   1.000  H
  C5       1.0000 0.81860  0.53410  0.19605  Biso   1.000  C
  C6       1.0000 0.18140  0.03410  0.30395  Biso   1.000  C
  C7       1.0000 0.18140  0.46590  0.80395  Biso   1.000  C
  C8       1.0000 0.81860  0.96590  0.69605  Biso   1.000  C
  H5       1.0000 0.80860  0.61450  0.20010  Biso   1.000  H
  H6       1.0000 0.19140  0.11450  0.29990  Biso   1.000  H
  H7       1.0000 0.19140  0.38550  0.79990  Biso   1.000  H
  H8       1.0000 0.80860  0.88550  0.70010  Biso   1.000  H
  C9       1.0000 0.86960  0.48870  0.15426  Biso   1.000  C
  C10      1.0000 0.13040  0.98870  0.34574  Biso   1.000  C
  C11      1.0000 0.13040  0.51130  0.84574  Biso   1.000  C
  C12      1.0000 0.86960  0.01130  0.65426  Biso   1.000  C
  H9       1.0000 0.89480  0.53790  0.12910  Biso   1.000  H
  H10      1.0000 0.10520  0.03790  0.37090  Biso   1.000  H
  H11      1.0000 0.10520  0.46210  0.87090  Biso   1.000  H
  H12      1.0000 0.89480  0.96210  0.62910  Biso   1.000  H
  C13      1.0000 0.88350  0.37080  0.14931  Biso   1.000  C
  C14      1.0000 0.11650  0.87080  0.35069  Biso   1.000  C
  C15      1.0000 0.11650  0.62920  0.85069  Biso   1.000  C
  C16      1.0000 0.88350  0.12920  0.64931  Biso   1.000  C
  H13      1.0000 0.91930  0.33820  0.12100  Biso   1.000  H
  H14      1.0000 0.08070  0.83820  0.37900  Biso   1.000  H
  H15      1.0000 0.08070  0.66180  0.87900  Biso   1.000  H
  H16      1.0000 0.91930  0.16180  0.62100  Biso   1.000  H
  C17      1.0000 0.84430  0.30190  0.18642  Biso   1.000  C
  C18      1.0000 0.15570  0.80190  0.31358  Biso   1.000  C
  C19      1.0000 0.15570  0.69810  0.81358  Biso   1.000  C
  C20      1.0000 0.84430  0.19810  0.68642  Biso   1.000  C
  C21      1.0000 0.85650  0.17330  0.18391  Biso   1.000  C
  C22      1.0000 0.14350  0.67330  0.31609  Biso   1.000  C
  C23      1.0000 0.14350  0.82670  0.81609  Biso   1.000  C
  C24      1.0000 0.85650  0.32670  0.68391  Biso   1.000  C
  H17      1.0000 0.77370  0.14530  0.15620  Biso   1.000  H
  H18      1.0000 0.22630  0.64530  0.34380  Biso   1.000  H
  H19      1.0000 0.22630  0.85470  0.84380  Biso   1.000  H
  H20      1.0000 0.77370  0.35470  0.65620  Biso   1.000  H
  H21      1.0000 0.99410  0.14980  0.18080  Biso   1.000  H
  H22      1.0000 0.00590  0.64980  0.31920  Biso   1.000  H
  H23      1.0000 0.00590  0.85020  0.81920  Biso   1.000  H
  H24      1.0000 0.99410  0.35020  0.68080  Biso   1.000  H
  C25      1.0000 0.75850  0.01330  0.22741  Biso   1.000  C
  C26      1.0000 0.24150  0.51330  0.27259  Biso   1.000  C
  C27      1.0000 0.24150  0.98670  0.77259  Biso   1.000  C
  C28      1.0000 0.75850  0.48670  0.72741  Biso   1.000  C
  H25      1.0000 0.77700  0.97080  0.19990  Biso   1.000  H
  H26      1.0000 0.22300  0.47080  0.30010  Biso   1.000  H
  H27      1.0000 0.22300  0.02920  0.80010  Biso   1.000  H
  H28      1.0000 0.77700  0.52920  0.69990  Biso   1.000  H
  C29      1.0000 0.70070  0.95260  0.26617  Biso   1.000  C
  C30      1.0000 0.29930  0.45260  0.23383  Biso   1.000  C
  C31      1.0000 0.29930  0.04740  0.73383  Biso   1.000  C
  C32      1.0000 0.70070  0.54740  0.76617  Biso   1.000  C
  C33      1.0000 0.67560  0.00450  0.31000  Biso   1.000  C
  C34      1.0000 0.32440  0.50450  0.19000  Biso   1.000  C
  C35      1.0000 0.32440  0.99550  0.69000  Biso   1.000  C
  C36      1.0000 0.67560  0.49550  0.81000  Biso   1.000  C
  C37      1.0000 0.62510  0.98040  0.39006  Biso   1.000  C
  C38      1.0000 0.37490  0.48040  0.10994  Biso   1.000  C
  C39      1.0000 0.37490  0.01960  0.60994  Biso   1.000  C
  C40      1.0000 0.62510  0.51960  0.89006  Biso   1.000  C
  H29      1.0000 0.51130  0.03310  0.39000  Biso   1.000  H
  H30      1.0000 0.48870  0.53310  0.11000  Biso   1.000  H
  H31      1.0000 0.48870  0.96690  0.61000  Biso   1.000  H
  H32      1.0000 0.51130  0.46690  0.89000  Biso   1.000  H
  H33      1.0000 0.74660  0.02370  0.39980  Biso   1.000  H
  H34      1.0000 0.25340  0.52370  0.10020  Biso   1.000  H
  H35      1.0000 0.25340  0.97630  0.60020  Biso   1.000  H
  H36      1.0000 0.74660  0.47630  0.89980  Biso   1.000  H
  C41      1.0000 0.60110  0.88180  0.42278  Biso   1.000  C
  C42      1.0000 0.39890  0.38180  0.07722  Biso   1.000  C
  C43      1.0000 0.39890  0.11820  0.57722  Biso   1.000  C
  C44      1.0000 0.60110  0.61820  0.92278  Biso   1.000  C
  H37      1.0000 0.46970  0.84840  0.41630  Biso   1.000  H
  H38      1.0000 0.53030  0.34840  0.08370  Biso   1.000  H
  H39      1.0000 0.53030  0.15160  0.58370  Biso   1.000  H
  H40      1.0000 0.46970  0.65160  0.91630  Biso   1.000  H
  H41      1.0000 0.61680  0.90920  0.45510  Biso   1.000  H
  H42      1.0000 0.38320  0.40920  0.04490  Biso   1.000  H
  H43      1.0000 0.38320  0.09080  0.54490  Biso   1.000  H
  H44      1.0000 0.61680  0.59080  0.95510  Biso   1.000  H
  H45      1.0000 0.70110  0.82360  0.41830  Biso   1.000  H
  H46      1.0000 0.29890  0.32360  0.08170  Biso   1.000  H
  H47      1.0000 0.29890  0.17640  0.58170  Biso   1.000  H
  H48      1.0000 0.70110  0.67640  0.91830  Biso   1.000  H
  C45      1.0000 0.66990  0.83300  0.26157  Biso   1.000  C
  C46      1.0000 0.33010  0.33300  0.23843  Biso   1.000  C
  C47      1.0000 0.33010  0.16700  0.73843  Biso   1.000  C
  C48      1.0000 0.66990  0.66700  0.76157  Biso   1.000  C
  C49      1.0000 0.87260  0.34390  0.34988  Biso   1.000  C
  C50      1.0000 0.12740  0.84390  0.15012  Biso   1.000  C
  C51      1.0000 0.12740  0.65610  0.65012  Biso   1.000  C
  C52      1.0000 0.87260  0.15610  0.84988  Biso   1.000  C
  C53      1.0000 0.87850  0.40460  0.39617  Biso   1.000  C
  C54      1.0000 0.12150  0.90460  0.10383  Biso   1.000  C
  C55      1.0000 0.12150  0.59540  0.60383  Biso   1.000  C
  C56      1.0000 0.87850  0.09540  0.89617  Biso   1.000  C
  H49      1.0000 0.87150  0.34820  0.42120  Biso   1.000  H
  H50      1.0000 0.12850  0.84820  0.07880  Biso   1.000  H
  H51      1.0000 0.12850  0.65180  0.57880  Biso   1.000  H
  H52      1.0000 0.87150  0.15180  0.92120  Biso   1.000  H
  H53      1.0000 0.76640  0.45710  0.39610  Biso   1.000  H
  H54      1.0000 0.23360  0.95710  0.10390  Biso   1.000  H
  H55      1.0000 0.23360  0.54290  0.60390  Biso   1.000  H
  H56      1.0000 0.76640  0.04290  0.89610  Biso   1.000  H
  H57      1.0000 0.00150  0.44800  0.40130  Biso   1.000  H
  H58      1.0000 0.99850  0.94800  0.09870  Biso   1.000  H
  H59      1.0000 0.99850  0.55200  0.59870  Biso   1.000  H
  H60      1.0000 0.00150  0.05200  0.90130  Biso   1.000  H
  Cu1      1.0000 0.73852  0.22988  0.27465  Biso   1.000  Cu
  Cu2      1.0000 0.26148  0.72988  0.22535  Biso   1.000  Cu
  Cu3      1.0000 0.26148  0.77012  0.72535  Biso   1.000  Cu
  Cu4      1.0000 0.73852  0.27012  0.77465  Biso   1.000  Cu
  N1       1.0000 0.79600  0.34590  0.22720  Biso   1.000  N
  N2       1.0000 0.20400  0.84590  0.27280  Biso   1.000  N
  N3       1.0000 0.20400  0.65410  0.77280  Biso   1.000  N
  N4       1.0000 0.79600  0.15410  0.72720  Biso   1.000  N
  N5       1.0000 0.78870  0.12340  0.22620  Biso   1.000  N
  N6       1.0000 0.21130  0.62340  0.27380  Biso   1.000  N
  N7       1.0000 0.21130  0.87660  0.77380  Biso   1.000  N
  N8       1.0000 0.78870  0.37660  0.72620  Biso   1.000  N
  N9       1.0000 0.64050  0.73630  0.25752  Biso   1.000  N
  N10      1.0000 0.35950  0.23630  0.24248  Biso   1.000  N
  N11      1.0000 0.35950  0.26370  0.74248  Biso   1.000  N
  N12      1.0000 0.64050  0.76370  0.75752  Biso   1.000  N
  O1       1.0000 0.68980  0.10872  0.31890  Biso   1.000  O
  O2       1.0000 0.31020  0.60872  0.18110  Biso   1.000  O
  O3       1.0000 0.31020  0.89128  0.68110  Biso   1.000  O
  O4       1.0000 0.68980  0.39128  0.81890  Biso   1.000  O
  O5       1.0000 0.63650  0.93150  0.34373  Biso   1.000  O
  O6       1.0000 0.36350  0.43150  0.15627  Biso   1.000  O
  O7       1.0000 0.36350  0.06850  0.65627  Biso   1.000  O
  O8       1.0000 0.63650  0.56850  0.84373  Biso   1.000  O
  O9       1.0000 0.70500  0.33740  0.32583  Biso   1.000  O
  O10      1.0000 0.29500  0.83740  0.17417  Biso   1.000  O
  O11      1.0000 0.29500  0.66260  0.67417  Biso   1.000  O
  O12      1.0000 0.70500  0.16260  0.82583  Biso   1.000  O
  O13      1.0000 0.02550  0.30290  0.33590  Biso   1.000  O
  O14      1.0000 0.97450  0.80290  0.16410  Biso   1.000  O
  O15      1.0000 0.97450  0.69710  0.66410  Biso   1.000  O
  O16      1.0000 0.02550  0.19710  0.83590  Biso   1.000  O
  O17      1.0000 0.03980  0.68200  0.44369  Biso   1.000  O
  O18      1.0000 0.96020  0.18200  0.05631  Biso   1.000  O
  O19      1.0000 0.96020  0.31800  0.55631  Biso   1.000  O
  O20      1.0000 0.03980  0.81800  0.94369  Biso   1.000  O
  O21      1.0000 0.86450  0.56190  0.04413  Biso   1.000  O
  O22      1.0000 0.13550  0.06190  0.45587  Biso   1.000  O
  O23      1.0000 0.13550  0.43810  0.95587  Biso   1.000  O
  O24      1.0000 0.86450  0.93810  0.54413  Biso   1.000  O
  O25      1.0000 0.69650  0.61090  0.48372  Biso   1.000  O
  O26      1.0000 0.30350  0.11090  0.01628  Biso   1.000  O
  O27      1.0000 0.30350  0.38910  0.51628  Biso   1.000  O
  O28      1.0000 0.69650  0.88910  0.98372  Biso   1.000  O
  O29      1.0000 0.44000  0.21470  0.46072  Biso   1.000  O
  O30      1.0000 0.56000  0.71470  0.03928  Biso   1.000  O
  O31      1.0000 0.56000  0.78530  0.53928  Biso   1.000  O
  O32      1.0000 0.44000  0.28530  0.96072  Biso   1.000  O
  O33      1.0000 0.35290  0.53190  0.43516  Biso   1.000  O
  O34      1.0000 0.64710  0.03190  0.06484  Biso   1.000  O
  O35      1.0000 0.64710  0.46810  0.56484  Biso   1.000  O
  O36      1.0000 0.35290  0.96810  0.93516  Biso   1.000  O
  O37      1.0000 0.81270  0.14750  0.49814  Biso   1.000  O
  O38      1.0000 0.18730  0.64750  0.00186  Biso   1.000  O
  O39      1.0000 0.18730  0.85250  0.50186  Biso   1.000  O
  O40      1.0000 0.81270  0.35250  0.99814  Biso   1.000  O
  O41      1.0000 0.38660  0.34070  0.37907  Biso   1.000  O
  O42      1.0000 0.61340  0.84070  0.12093  Biso   1.000  O
  O43      1.0000 0.61340  0.65930  0.62093  Biso   1.000  O
  O44      1.0000 0.38660  0.15930  0.87907  Biso   1.000  O
