data_image0
_cell_length_a       12.684
_cell_length_b       12.99
_cell_length_c       18.303
_cell_angle_alpha    93.45
_cell_angle_beta     98.56
_cell_angle_gamma    93.18

_symmetry_space_group_name_H-M    "P 1"
_symmetry_int_tables_number       1

loop_
  _symmetry_equiv_pos_as_xyz
  'x, y, z'

loop_
  _atom_site_label
  _atom_site_occupancy
  _atom_site_fract_x
  _atom_site_fract_y
  _atom_site_fract_z
  _atom_site_thermal_displace_type
  _atom_site_B_iso_or_equiv
  _atom_site_type_symbol
  C1       1.0000 0.60350  0.81630  0.35460  Biso   1.000  C
  H1       1.0000 0.62850  0.79760  0.40440  Biso   1.000  H
  H2       1.0000 0.61810  0.89010  0.35280  Biso   1.000  H
  C2       1.0000 0.40150  0.65300  0.48900  Biso   1.000  C
  C3       1.0000 0.81350  0.89480  0.31110  Biso   1.000  C
  H3       1.0000 0.88820  0.90880  0.33180  Biso   1.000  H
  H4       1.0000 0.77160  0.93740  0.33960  Biso   1.000  H
  C4       1.0000 0.35620  0.88570  0.65330  Biso   1.000  C
  H5       1.0000 0.41010  0.94120  0.67080  Biso   1.000  H
  H6       1.0000 0.32340  0.90030  0.60400  Biso   1.000  H
  C5       1.0000 0.06080  0.90470  0.98740  Biso   1.000  C
  H7       1.0000 0.12350  0.94720  0.01060  Biso   1.000  H
  H8       1.0000 0.03830  0.92960  0.93900  Biso   1.000  H
  C6       1.0000 0.79610  0.92350  0.23060  Biso   1.000  C
  H9       1.0000 0.83650  0.87950  0.20190  Biso   1.000  H
  H10      1.0000 0.72100  0.91090  0.21030  Biso   1.000  H
  C7       1.0000 0.27270  0.88840  0.70260  Biso   1.000  C
  H11      1.0000 0.22560  0.94270  0.68880  Biso   1.000  H
  H12      1.0000 0.23020  0.82320  0.69560  Biso   1.000  H
  C8       1.0000 0.97790  0.91740  0.03090  Biso   1.000  C
  H13      1.0000 0.94530  0.98170  0.02010  Biso   1.000  H
  H14      1.0000 0.92330  0.86150  0.01690  Biso   1.000  H
  C9       1.0000 0.82870  0.03120  0.22350  Biso   1.000  C
  C10      1.0000 0.31450  0.90500  0.77340  Biso   1.000  C
  C11      1.0000 0.01380  0.91880  0.10820  Biso   1.000  C
  C12      1.0000 0.73550  0.90760  0.86570  Biso   1.000  C
  C13      1.0000 0.88870  0.15840  0.62330  Biso   1.000  C
  H15      1.0000 0.90190  0.23150  0.61740  Biso   1.000  H
  H16      1.0000 0.91750  0.14560  0.67380  Biso   1.000  H
  C14      1.0000 0.76940  0.13300  0.61150  Biso   1.000  C
  H17      1.0000 0.73410  0.19480  0.62330  Biso   1.000  H
  H18      1.0000 0.74570  0.11210  0.55960  Biso   1.000  H
  C15      1.0000 0.73660  0.04960  0.65700  Biso   1.000  C
  C16      1.0000 0.21240  0.36440  0.83890  Biso   1.000  C
  N1       1.0000 0.39890  0.77600  0.32190  Biso   1.000  N
  N2       1.0000 0.46500  0.61330  0.46130  Biso   1.000  N
  N3       1.0000 0.16700  0.69500  0.76180  Biso   1.000  N
  N4       1.0000 0.85410  0.11420  0.21490  Biso   1.000  N
  N5       1.0000 0.35260  0.92240  0.84150  Biso   1.000  N
  N6       1.0000 0.94600  0.09920  0.57270  Biso   1.000  N
  H19      1.0000 0.91850  0.11220  0.52550  Biso   1.000  H
  N7       1.0000 0.82830  0.89900  0.87700  Biso   1.000  N
  N8       1.0000 0.53060  0.93660  0.20390  Biso   1.000  N
  N9       1.0000 0.07330  0.98630  0.37830  Biso   1.000  N
  N10      1.0000 0.71290  0.98610  0.69410  Biso   1.000  N
  N11      1.0000 0.03080  0.91970  0.16910  Biso   1.000  N
  O1       1.0000 0.44590  0.66770  0.13310  Biso   1.000  O
  C17      1.0000 0.12290  0.16540  0.56090  Biso   1.000  C
  H20      1.0000 0.09300  0.22270  0.53510  Biso   1.000  H
  H21      1.0000 0.12140  0.11030  0.52250  Biso   1.000  H
  C18      1.0000 0.06070  0.14100  0.58690  Biso   1.000  C
  H22      1.0000 0.05720  0.19950  0.62170  Biso   1.000  H
  H23      1.0000 0.09350  0.08890  0.61710  Biso   1.000  H
  C19      1.0000 0.92650  0.98920  0.58070  Biso   1.000  C
  H24      1.0000 0.96530  0.97160  0.62750  Biso   1.000  H
  H25      1.0000 0.85100  0.97410  0.58150  Biso   1.000  H
  N12      1.0000 0.09020  0.78840  0.56890  Biso   1.000  N
  C20      1.0000 0.02970  0.84880  0.56590  Biso   1.000  C
  C21      1.0000 0.95430  0.93550  0.53000  Biso   1.000  C
  H26      1.0000 0.99350  0.97830  0.50020  Biso   1.000  H
  H27      1.0000 0.89200  0.90230  0.49850  Biso   1.000  H
  H28      1.0000 0.24600  0.11100  0.20700  Biso   1.000  H
  H29      1.0000 0.69800  0.37900  0.33200  Biso   1.000  H
  C22      1.0000 0.15710  0.64320  0.12680  Biso   1.000  C
  C23      1.0000 0.81760  0.64540  0.47110  Biso   1.000  C
  C24      1.0000 0.46950  0.62250  0.79350  Biso   1.000  C
  C25      1.0000 0.19960  0.62010  0.20570  Biso   1.000  C
  H30      1.0000 0.27340  0.64980  0.21630  Biso   1.000  H
  C26      1.0000 0.83680  0.61350  0.55130  Biso   1.000  C
  H31      1.0000 0.89450  0.65840  0.58050  Biso   1.000  H
  C27      1.0000 0.49580  0.59290  0.87300  Biso   1.000  C
  H32      1.0000 0.55570  0.63780  0.89960  Biso   1.000  H
  C28      1.0000 0.13860  0.67490  0.26020  Biso   1.000  C
  H33      1.0000 0.15220  0.74880  0.25800  Biso   1.000  H
  H34      1.0000 0.16770  0.65770  0.30970  Biso   1.000  H
  C29      1.0000 0.73330  0.61780  0.58820  Biso   1.000  C
  H35      1.0000 0.68100  0.56530  0.56270  Biso   1.000  H
  H36      1.0000 0.75060  0.59970  0.63900  Biso   1.000  H
  C30      1.0000 0.39660  0.60110  0.91280  Biso   1.000  C
  H37      1.0000 0.33970  0.55400  0.88640  Biso   1.000  H
  H38      1.0000 0.41440  0.57780  0.96220  Biso   1.000  H
  C31      1.0000 0.01880  0.65160  0.24950  Biso   1.000  C
  H39      1.0000 0.99040  0.65500  0.19750  Biso   1.000  H
  H40      1.0000 0.00400  0.58160  0.26270  Biso   1.000  H
  C32      1.0000 0.68150  0.72060  0.58860  Biso   1.000  C
  H41      1.0000 0.73230  0.77480  0.61350  Biso   1.000  H
  H42      1.0000 0.65920  0.73860  0.53820  Biso   1.000  H
  C33      1.0000 0.35520  0.70580  0.91930  Biso   1.000  C
  H43      1.0000 0.33970  0.73190  0.87050  Biso   1.000  H
  H44      1.0000 0.40880  0.75290  0.94920  Biso   1.000  H
  C34      1.0000 0.96190  0.72550  0.29530  Biso   1.000  C
  H45      1.0000 0.98220  0.71510  0.34740  Biso   1.000  H
  H46      1.0000 0.98410  0.79600  0.28730  Biso   1.000  H
  C35      1.0000 0.58550  0.71100  0.62870  Biso   1.000  C
  H47      1.0000 0.54340  0.64760  0.61040  Biso   1.000  H
  H48      1.0000 0.61010  0.70650  0.68110  Biso   1.000  H
  C36      1.0000 0.25360  0.70010  0.95500  Biso   1.000  C
  H49      1.0000 0.20670  0.64210  0.93150  Biso   1.000  H
  H50      1.0000 0.27220  0.68820  0.00700  Biso   1.000  H
  C37      1.0000 0.84250  0.70970  0.27540  Biso   1.000  C
  H51      1.0000 0.82310  0.71760  0.22280  Biso   1.000  H
  H52      1.0000 0.82090  0.63930  0.28440  Biso   1.000  H
  C38      1.0000 0.51540  0.80100  0.61880  Biso   1.000  C
  H53      1.0000 0.55370  0.86260  0.64440  Biso   1.000  H
  H54      1.0000 0.50070  0.81290  0.56650  Biso   1.000  H
  C39      1.0000 0.19700  0.79440  0.94820  Biso   1.000  C
  H55      1.0000 0.18410  0.80960  0.89650  Biso   1.000  H
  H56      1.0000 0.24160  0.85140  0.97540  Biso   1.000  H
  C40      1.0000 0.66280  0.75770  0.29940  Biso   1.000  C
  H57      1.0000 0.64750  0.68390  0.30110  Biso   1.000  H
  H58      1.0000 0.63740  0.77640  0.24970  Biso   1.000  H
  C41      1.0000 0.33730  0.69790  0.60800  Biso   1.000  C
  H59      1.0000 0.26950  0.70170  0.62620  Biso   1.000  H
  H60      1.0000 0.36550  0.63240  0.62090  Biso   1.000  H
  C42      1.0000 0.00900  0.71190  0.93820  Biso   1.000  C
  H61      1.0000 0.94510  0.72070  0.96060  Biso   1.000  H
  H62      1.0000 0.03080  0.64270  0.94710  Biso   1.000  H
  C43      1.0000 0.31710  0.69950  0.52370  Biso   1.000  C
  H63      1.0000 0.24920  0.66210  0.50470  Biso   1.000  H
  H64      1.0000 0.31220  0.77040  0.51040  Biso   1.000  H
  C44      1.0000 0.97990  0.71840  0.85590  Biso   1.000  C
  H65      1.0000 0.96650  0.78940  0.84580  Biso   1.000  H
  H66      1.0000 0.91440  0.67620  0.83870  Biso   1.000  H
  C45      1.0000 0.48820  0.79010  0.33570  Biso   1.000  C
  C46      1.0000 0.07610  0.67880  0.80810  Biso   1.000  C
  C47      1.0000 0.31420  0.47350  0.22320  Biso   1.000  C
  H67      1.0000 0.35240  0.49990  0.18530  Biso   1.000  H
  H68      1.0000 0.31230  0.39870  0.21790  Biso   1.000  H
  C48      1.0000 0.98330  0.49330  0.55450  Biso   1.000  C
  H69      1.0000 0.00990  0.53290  0.51710  Biso   1.000  H
  H70      1.0000 0.99500  0.42120  0.54360  Biso   1.000  H
  C49      1.0000 0.64020  0.47150  0.87710  Biso   1.000  C
  H71      1.0000 0.66670  0.50930  0.83870  Biso   1.000  H
  H72      1.0000 0.65290  0.39920  0.86820  Biso   1.000  H
  C50      1.0000 0.37620  0.51090  0.29980  Biso   1.000  C
  H73      1.0000 0.36650  0.58360  0.30990  Biso   1.000  H
  H74      1.0000 0.34860  0.47290  0.33770  Biso   1.000  H
  C51      1.0000 0.04680  0.52950  0.63060  Biso   1.000  C
  H75      1.0000 0.04780  0.60410  0.63870  Biso   1.000  H
  H76      1.0000 0.01520  0.49830  0.66970  Biso   1.000  H
  C52      1.0000 0.70260  0.51270  0.95390  Biso   1.000  C
  H77      1.0000 0.69610  0.58650  0.96130  Biso   1.000  H
  H78      1.0000 0.67320  0.47910  0.99300  Biso   1.000  H
  C53      1.0000 0.49020  0.49530  0.30220  Biso   1.000  C
  C54      1.0000 0.15440  0.49670  0.62960  Biso   1.000  C
  C55      1.0000 0.81230  0.49190  0.95660  Biso   1.000  C
  C56      1.0000 0.13560  0.21980  0.09780  Biso   1.000  C
  C57      1.0000 0.83050  0.22610  0.42930  Biso   1.000  C
  C58      1.0000 0.46260  0.20200  0.74770  Biso   1.000  C
  C59      1.0000 0.07050  0.24290  0.02460  Biso   1.000  C
  H79      1.0000 0.09390  0.20230  0.98380  Biso   1.000  H
  C60      1.0000 0.76660  0.24870  0.35430  Biso   1.000  C
  H80      1.0000 0.79850  0.21700  0.31350  Biso   1.000  H
  C61      1.0000 0.40860  0.23170  0.67250  Biso   1.000  C
  H81      1.0000 0.44560  0.20030  0.63420  Biso   1.000  H
  C62      1.0000 0.95200  0.21410  0.02760  Biso   1.000  C
  H82      1.0000 0.94690  0.15210  0.05410  Biso   1.000  H
  H83      1.0000 0.92370  0.26930  0.05540  Biso   1.000  H
  C63      1.0000 0.65080  0.20020  0.35320  Biso   1.000  C
  H84      1.0000 0.65540  0.12870  0.36520  Biso   1.000  H
  H85      1.0000 0.61980  0.23610  0.39210  Biso   1.000  H
  C64      1.0000 0.29160  0.19300  0.65620  Biso   1.000  C
  H86      1.0000 0.25210  0.23290  0.68800  Biso   1.000  H
  H87      1.0000 0.28550  0.12160  0.66850  Biso   1.000  H
  C65      1.0000 0.88300  0.19560  0.95160  Biso   1.000  C
  H88      1.0000 0.91300  0.14380  0.92180  Biso   1.000  H
  H89      1.0000 0.88140  0.25910  0.92620  Biso   1.000  H
  C66      1.0000 0.57490  0.20300  0.28060  Biso   1.000  C
  H90      1.0000 0.57240  0.27330  0.26550  Biso   1.000  H
  H91      1.0000 0.59930  0.16030  0.24200  Biso   1.000  H
  C67      1.0000 0.23990  0.19970  0.57570  Biso   1.000  C
  H92      1.0000 0.24860  0.27060  0.56260  Biso   1.000  H
  H93      1.0000 0.27740  0.15730  0.54390  Biso   1.000  H
  C68      1.0000 0.76890  0.15870  0.96130  Biso   1.000  C
  H94      1.0000 0.77070  0.09330  0.98430  Biso   1.000  H
  H95      1.0000 0.74130  0.20860  0.99400  Biso   1.000  H
  C69      1.0000 0.46470  0.16240  0.29290  Biso   1.000  C
  H96      1.0000 0.46980  0.09370  0.31070  Biso   1.000  H
  H97      1.0000 0.44150  0.20660  0.33130  Biso   1.000  H
  C70      1.0000 0.69500  0.14550  0.88790  Biso   1.000  C
  H98      1.0000 0.68400  0.21310  0.86940  Biso   1.000  H
  H99      1.0000 0.72950  0.10600  0.85260  Biso   1.000  H
  C71      1.0000 0.38240  0.15740  0.22570  Biso   1.000  C
  H100     1.0000 0.40870  0.11980  0.18540  Biso   1.000  H
  H101     1.0000 0.37060  0.22700  0.21130  Biso   1.000  H
  C72      1.0000 0.58250  0.98660  0.91210  Biso   1.000  C
  H102     1.0000 0.50930  0.96580  0.91670  Biso   1.000  H
  H103     1.0000 0.62670  0.98040  0.95950  Biso   1.000  H
  C73      1.0000 0.27860  0.99200  0.25030  Biso   1.000  C
  H104     1.0000 0.20670  0.96500  0.25350  Biso   1.000  H
  H105     1.0000 0.32270  0.98360  0.29740  Biso   1.000  H
  C74      1.0000 0.62260  0.91320  0.84900  Biso   1.000  C
  H106     1.0000 0.58760  0.84450  0.84710  Biso   1.000  H
  H107     1.0000 0.60430  0.94090  0.80110  Biso   1.000  H
  C75      1.0000 0.32160  0.92800  0.18940  Biso   1.000  C
  H108     1.0000 0.29590  0.85630  0.19010  Biso   1.000  H
  H109     1.0000 0.29290  0.95190  0.14170  Biso   1.000  H
  C76      1.0000 0.43960  0.93330  0.19660  Biso   1.000  C
  C77      1.0000 0.53240  0.16010  0.94560  Biso   1.000  C
  H110     1.0000 0.56370  0.15030  0.99620  Biso   1.000  H
  H111     1.0000 0.54560  0.23240  0.93710  Biso   1.000  H
  C78      1.0000 0.22860  0.16480  0.29510  Biso   1.000  C
  H112     1.0000 0.23610  0.23770  0.28670  Biso   1.000  H
  H113     1.0000 0.26810  0.15510  0.34360  Biso   1.000  H
  C79      1.0000 0.41500  0.13610  0.93740  Biso   1.000  C
  H114     1.0000 0.38060  0.20030  0.94330  Biso   1.000  H
  H115     1.0000 0.39020  0.10660  0.88740  Biso   1.000  H
  C80      1.0000 0.10880  0.13340  0.29510  Biso   1.000  C
  H116     1.0000 0.07410  0.19350  0.31140  Biso   1.000  H
  H117     1.0000 0.07590  0.11280  0.24460  Biso   1.000  H
  C81      1.0000 0.38170  0.06700  0.98820  Biso   1.000  C
  C82      1.0000 0.08910  0.05060  0.34130  Biso   1.000  C
  C83      1.0000 0.16910  0.37940  0.96620  Biso   1.000  C
  H118     1.0000 0.23240  0.34310  0.98220  Biso   1.000  H
  H119     1.0000 0.18910  0.45290  0.97140  Biso   1.000  H
  C84      1.0000 0.84390  0.39970  0.30190  Biso   1.000  C
  H120     1.0000 0.91110  0.36820  0.31480  Biso   1.000  H
  H121     1.0000 0.85730  0.47400  0.31100  Biso   1.000  H
  C85      1.0000 0.50520  0.38190  0.62750  Biso   1.000  C
  H122     1.0000 0.57040  0.34810  0.64280  Biso   1.000  H
  H123     1.0000 0.52040  0.45580  0.63780  Biso   1.000  H
  C86      1.0000 0.12680  0.34650  0.88350  Biso   1.000  C
  H124     1.0000 0.10260  0.27390  0.87830  Biso   1.000  H
  H125     1.0000 0.06670  0.38620  0.86610  Biso   1.000  H
  C87      1.0000 0.80260  0.37410  0.21950  Biso   1.000  C
  H126     1.0000 0.78010  0.30120  0.21070  Biso   1.000  H
  H127     1.0000 0.74160  0.41380  0.20400  Biso   1.000  H
  C88      1.0000 0.46940  0.35820  0.54380  Biso   1.000  C
  H128     1.0000 0.44670  0.28550  0.53380  Biso   1.000  H
  H129     1.0000 0.40950  0.39850  0.52690  Biso   1.000  H
  C89      1.0000 0.88840  0.39950  0.17760  Biso   1.000  C
  C90      1.0000 0.55860  0.38390  0.50440  Biso   1.000  C
  N13      1.0000 0.20460  0.50580  0.21050  Biso   1.000  N
  H130     1.0000 0.17080  0.48620  0.24840  Biso   1.000  H
  N14      1.0000 0.86630  0.50500  0.55050  Biso   1.000  N
  H131     1.0000 0.84160  0.47320  0.58820  Biso   1.000  H
  N15      1.0000 0.52370  0.48230  0.87250  Biso   1.000  N
  H132     1.0000 0.49890  0.45140  0.91050  Biso   1.000  H
  N16      1.0000 0.78180  0.78230  0.31720  Biso   1.000  N
  H133     1.0000 0.80010  0.77050  0.36580  Biso   1.000  H
  N17      1.0000 0.41330  0.78410  0.64700  Biso   1.000  N
  H134     1.0000 0.43100  0.76580  0.69420  Biso   1.000  H
  N18      1.0000 0.09340  0.78600  0.97670  Biso   1.000  N
  H135     1.0000 0.10910  0.76460  0.02330  Biso   1.000  H
  N19      1.0000 0.57810  0.48110  0.29970  Biso   1.000  N
  N20      1.0000 0.23680  0.46900  0.62350  Biso   1.000  N
  N21      1.0000 0.89970  0.47280  0.95700  Biso   1.000  N
  N22      1.0000 0.08660  0.35590  0.01430  Biso   1.000  N
  H136     1.0000 0.02340  0.37890  0.99320  Biso   1.000  H
  N23      1.0000 0.76750  0.36280  0.34980  Biso   1.000  N
  N24      1.0000 0.42200  0.34590  0.67060  Biso   1.000  N
  H137     1.0000 0.35860  0.36830  0.64930  Biso   1.000  H
  N25      1.0000 0.58960  0.09290  0.89200  Biso   1.000  N
  H138     1.0000 0.55030  0.09380  0.84620  Biso   1.000  H
  N26      1.0000 0.27660  0.10480  0.23800  Biso   1.000  N
  N27      1.0000 0.35390  0.01800  0.03110  Biso   1.000  N
  N28      1.0000 0.28220  0.37960  0.80720  Biso   1.000  N
  N29      1.0000 0.95920  0.42040  0.14820  Biso   1.000  N
  N30      1.0000 0.63320  0.40320  0.47750  Biso   1.000  N
  O2       1.0000 0.12590  0.56750  0.07870  Biso   1.000  O
  O3       1.0000 0.79690  0.57330  0.41970  Biso   1.000  O
  O4       1.0000 0.44660  0.55030  0.74260  Biso   1.000  O
  O5       1.0000 0.15350  0.73530  0.11370  Biso   1.000  O
  O6       1.0000 0.82140  0.73900  0.46110  Biso   1.000  O
  O7       1.0000 0.46980  0.71640  0.78320  Biso   1.000  O
  O8       1.0000 0.16700  0.29530  0.14610  Biso   1.000  O
  O9       1.0000 0.84740  0.29850  0.48100  Biso   1.000  O
  O10      1.0000 0.49250  0.27270  0.79930  Biso   1.000  O
  O11      1.0000 0.15130  0.12770  0.10750  Biso   1.000  O
  O12      1.0000 0.85920  0.13580  0.43690  Biso   1.000  O
  O13      1.0000 0.47520  0.10750  0.75630  Biso   1.000  O
  Cu1      1.0000 0.13007  0.43092  0.11534  Biso   1.000  Cu
  Cu2      1.0000 0.80061  0.43187  0.45245  Biso   1.000  Cu
  Cu3      1.0000 0.45393  0.41067  0.77460  Biso   1.000  Cu
  Cl1      1.0000 0.51780  0.37470  0.07570  Biso   1.000  Cl
  Cl2      1.0000 0.48000  0.37080  0.06960  Biso   1.000  Cl
  O14      1.0000 0.45600  0.37410  0.99800  Biso   1.000  O
  O15      1.0000 0.43730  0.31810  0.10940  Biso   1.000  O
  O16      1.0000 0.52490  0.47690  0.10440  Biso   1.000  O
  O17      1.0000 0.60700  0.33010  0.07630  Biso   1.000  O
  Cl3      1.0000 0.70540  0.79320  0.05157  Biso   1.000  Cl
  Cl4      1.0000 0.74150  0.78600  0.00100  Biso   1.000  Cl
  O18      1.0000 0.73800  0.90400  0.05990  Biso   1.000  O
  O19      1.0000 0.63590  0.76990  0.98560  Biso   1.000  O
  O20      1.0000 0.65780  0.76110  0.11250  Biso   1.000  O
  O21      1.0000 0.80180  0.73820  0.05610  Biso   1.000  O
  Cl5      1.0000 0.14691  0.40462  0.40156  Biso   1.000  Cl
  O22      1.0000 0.25220  0.36650  0.42180  Biso   1.000  O
  O23      1.0000 0.07180  0.34280  0.43410  Biso   1.000  O
  O24      1.0000 0.14690  0.51040  0.42340  Biso   1.000  O
  O25      1.0000 0.12020  0.38950  0.32160  Biso   1.000  O
  Cl6      1.0000 0.83150  0.39740  0.73580  Biso   1.000  Cl
  Cl7      1.0000 0.82030  0.38180  0.74750  Biso   1.000  Cl
  O26      1.0000 0.78600  0.38240  0.66200  Biso   1.000  O
  O27      1.0000 0.93450  0.37110  0.74440  Biso   1.000  O
  O28      1.0000 0.77110  0.32570  0.77700  Biso   1.000  O
  O29      1.0000 0.81740  0.49920  0.76600  Biso   1.000  O
  Cl8      1.0000 0.48530  0.03354  0.49151  Biso   1.000  Cl
  O30      1.0000 0.57550  0.99760  0.46500  Biso   1.000  O
  O31      1.0000 0.49730  0.04830  0.56700  Biso   1.000  O
  O32      1.0000 0.44000  0.11950  0.46150  Biso   1.000  O
  O33      1.0000 0.39760  0.94580  0.48350  Biso   1.000  O
  O34      1.0000 0.13080  0.07900  0.88410  Biso   1.000  O
  O35      1.0000 0.07830  0.93940  0.79590  Biso   1.000  O
  O36      1.0000 0.98590  0.09250  0.79360  Biso   1.000  O
  O37      1.0000 0.15110  0.09330  0.76130  Biso   1.000  O
  Cl9      1.0000 0.09660  0.04922  0.81175  Biso   1.000  Cl
