data_image0
_cell_length_a       12.9059
_cell_length_b       18.9389
_cell_length_c       7.6909
_cell_angle_alpha    90
_cell_angle_beta     115.017
_cell_angle_gamma    90

_symmetry_space_group_name_H-M    "P 1"
_symmetry_int_tables_number       1

loop_
  _symmetry_equiv_pos_as_xyz
  'x, y, z'

loop_
  _atom_site_label
  _atom_site_occupancy
  _atom_site_fract_x
  _atom_site_fract_y
  _atom_site_fract_z
  _atom_site_thermal_displace_type
  _atom_site_B_iso_or_equiv
  _atom_site_type_symbol
  C1       1.0000 0.98990  0.14630  0.26130  Biso   1.000  C
  C2       1.0000 0.98990  0.85370  0.76130  Biso   1.000  C
  C3       1.0000 0.48990  0.64630  0.26130  Biso   1.000  C
  C4       1.0000 0.48990  0.35370  0.76130  Biso   1.000  C
  H1       1.0000 0.94370  0.11220  0.17130  Biso   1.000  H
  H2       1.0000 0.94370  0.88780  0.67130  Biso   1.000  H
  H3       1.0000 0.44370  0.61220  0.17130  Biso   1.000  H
  H4       1.0000 0.44370  0.38780  0.67130  Biso   1.000  H
  C5       1.0000 0.96430  0.21729  0.22370  Biso   1.000  C
  C6       1.0000 0.96430  0.78271  0.72370  Biso   1.000  C
  C7       1.0000 0.46430  0.71729  0.22370  Biso   1.000  C
  C8       1.0000 0.46430  0.28271  0.72370  Biso   1.000  C
  H5       1.0000 0.90140  0.23180  0.10960  Biso   1.000  H
  H6       1.0000 0.90140  0.76820  0.60960  Biso   1.000  H
  H7       1.0000 0.40140  0.73180  0.10960  Biso   1.000  H
  H8       1.0000 0.40140  0.26820  0.60960  Biso   1.000  H
  C9       1.0000 0.03180  0.26661  0.35480  Biso   1.000  C
  C10      1.0000 0.03180  0.73339  0.85480  Biso   1.000  C
  C11      1.0000 0.53180  0.76661  0.35480  Biso   1.000  C
  C12      1.0000 0.53180  0.23339  0.85480  Biso   1.000  C
  H9       1.0000 0.01530  0.31550  0.33250  Biso   1.000  H
  H10      1.0000 0.01530  0.68450  0.83250  Biso   1.000  H
  H11      1.0000 0.51530  0.81550  0.33250  Biso   1.000  H
  H12      1.0000 0.51530  0.18450  0.83250  Biso   1.000  H
  C13      1.0000 0.12320  0.24427  0.51840  Biso   1.000  C
  C14      1.0000 0.12320  0.75573  0.01840  Biso   1.000  C
  C15      1.0000 0.62320  0.74427  0.51840  Biso   1.000  C
  C16      1.0000 0.62320  0.25573  0.01840  Biso   1.000  C
  H13      1.0000 0.17140  0.27750  0.60890  Biso   1.000  H
  H14      1.0000 0.17140  0.72250  0.10890  Biso   1.000  H
  H15      1.0000 0.67140  0.77750  0.60890  Biso   1.000  H
  H16      1.0000 0.67140  0.22250  0.10890  Biso   1.000  H
  C17      1.0000 0.14390  0.17223  0.54880  Biso   1.000  C
  C18      1.0000 0.14390  0.82777  0.04880  Biso   1.000  C
  C19      1.0000 0.64390  0.67223  0.54880  Biso   1.000  C
  C20      1.0000 0.64390  0.32777  0.04880  Biso   1.000  C
  C21      1.0000 0.23680  0.14462  0.72810  Biso   1.000  C
  C22      1.0000 0.23680  0.85538  0.22810  Biso   1.000  C
  C23      1.0000 0.73680  0.64462  0.72810  Biso   1.000  C
  C24      1.0000 0.73680  0.35538  0.22810  Biso   1.000  C
  H17      1.0000 0.30820  0.17110  0.75640  Biso   1.000  H
  H18      1.0000 0.30820  0.82890  0.25640  Biso   1.000  H
  H19      1.0000 0.80820  0.67110  0.75640  Biso   1.000  H
  H20      1.0000 0.80820  0.32890  0.25640  Biso   1.000  H
  H21      1.0000 0.21580  0.15130  0.83680  Biso   1.000  H
  H22      1.0000 0.21580  0.84870  0.33680  Biso   1.000  H
  H23      1.0000 0.71580  0.65130  0.83680  Biso   1.000  H
  H24      1.0000 0.71580  0.34870  0.33680  Biso   1.000  H
  C25      1.0000 0.34820  0.04173  0.82950  Biso   1.000  C
  C26      1.0000 0.34820  0.95827  0.32950  Biso   1.000  C
  C27      1.0000 0.84820  0.54173  0.82950  Biso   1.000  C
  C28      1.0000 0.84820  0.45827  0.32950  Biso   1.000  C
  H25      1.0000 0.40290  0.07310  0.91710  Biso   1.000  H
  H26      1.0000 0.40290  0.92690  0.41710  Biso   1.000  H
  H27      1.0000 0.90290  0.57310  0.91710  Biso   1.000  H
  H28      1.0000 0.90290  0.42690  0.41710  Biso   1.000  H
  C29      1.0000 0.37780  0.96809  0.84840  Biso   1.000  C
  C30      1.0000 0.37780  0.03191  0.34840  Biso   1.000  C
  C31      1.0000 0.87780  0.46809  0.84840  Biso   1.000  C
  C32      1.0000 0.87780  0.53191  0.34840  Biso   1.000  C
  C33      1.0000 0.30120  0.91769  0.72660  Biso   1.000  C
  C34      1.0000 0.30120  0.08231  0.22660  Biso   1.000  C
  C35      1.0000 0.80120  0.41769  0.72660  Biso   1.000  C
  C36      1.0000 0.80120  0.58231  0.22660  Biso   1.000  C
  C37      1.0000 0.32730  0.83987  0.73160  Biso   1.000  C
  C38      1.0000 0.32730  0.16013  0.23160  Biso   1.000  C
  C39      1.0000 0.82730  0.33987  0.73160  Biso   1.000  C
  C40      1.0000 0.82730  0.66013  0.23160  Biso   1.000  C
  C41      1.0000 0.23550  0.79350  0.68920  Biso   1.000  C
  C42      1.0000 0.23550  0.20650  0.18920  Biso   1.000  C
  C43      1.0000 0.73550  0.29350  0.68920  Biso   1.000  C
  C44      1.0000 0.73550  0.70650  0.18920  Biso   1.000  C
  H29      1.0000 0.16230  0.81170  0.66670  Biso   1.000  H
  H30      1.0000 0.16230  0.18830  0.16670  Biso   1.000  H
  H31      1.0000 0.66230  0.31170  0.66670  Biso   1.000  H
  H32      1.0000 0.66230  0.68830  0.16670  Biso   1.000  H
  C45      1.0000 0.25030  0.72098  0.67970  Biso   1.000  C
  C46      1.0000 0.25030  0.27902  0.17970  Biso   1.000  C
  C47      1.0000 0.75030  0.22098  0.67970  Biso   1.000  C
  C48      1.0000 0.75030  0.77902  0.17970  Biso   1.000  C
  H33      1.0000 0.18760  0.68990  0.65280  Biso   1.000  H
  H34      1.0000 0.18760  0.31010  0.15280  Biso   1.000  H
  H35      1.0000 0.68760  0.18990  0.65280  Biso   1.000  H
  H36      1.0000 0.68760  0.81010  0.15280  Biso   1.000  H
  C49      1.0000 0.35610  0.69424  0.70950  Biso   1.000  C
  C50      1.0000 0.35610  0.30576  0.20950  Biso   1.000  C
  C51      1.0000 0.85610  0.19424  0.70950  Biso   1.000  C
  C52      1.0000 0.85610  0.80576  0.20950  Biso   1.000  C
  H37      1.0000 0.36660  0.64480  0.70450  Biso   1.000  H
  H38      1.0000 0.36660  0.35520  0.20450  Biso   1.000  H
  H39      1.0000 0.86660  0.14480  0.70450  Biso   1.000  H
  H40      1.0000 0.86660  0.85520  0.20450  Biso   1.000  H
  C53      1.0000 0.44650  0.73984  0.74670  Biso   1.000  C
  C54      1.0000 0.44650  0.26016  0.24670  Biso   1.000  C
  C55      1.0000 0.94650  0.23984  0.74670  Biso   1.000  C
  C56      1.0000 0.94650  0.76016  0.24670  Biso   1.000  C
  H41      1.0000 0.51890  0.72140  0.76520  Biso   1.000  H
  H42      1.0000 0.51890  0.27860  0.26520  Biso   1.000  H
  H43      1.0000 0.01890  0.22140  0.76520  Biso   1.000  H
  H44      1.0000 0.01890  0.77860  0.26520  Biso   1.000  H
  C57      1.0000 0.43320  0.81243  0.75740  Biso   1.000  C
  C58      1.0000 0.43320  0.18757  0.25740  Biso   1.000  C
  C59      1.0000 0.93320  0.31243  0.75740  Biso   1.000  C
  C60      1.0000 0.93320  0.68757  0.25740  Biso   1.000  C
  H45      1.0000 0.49600  0.84320  0.78220  Biso   1.000  H
  H46      1.0000 0.49600  0.15680  0.28220  Biso   1.000  H
  H47      1.0000 0.99600  0.34320  0.78220  Biso   1.000  H
  H48      1.0000 0.99600  0.65680  0.28220  Biso   1.000  H
  C61      1.0000 0.48530  0.94925  0.01260  Biso   1.000  C
  C62      1.0000 0.48530  0.05075  0.51260  Biso   1.000  C
  C63      1.0000 0.98530  0.44925  0.01260  Biso   1.000  C
  C64      1.0000 0.98530  0.55075  0.51260  Biso   1.000  C
  C65      1.0000 0.66980  0.99177  0.22600  Biso   1.000  C
  C66      1.0000 0.66980  0.00823  0.72600  Biso   1.000  C
  C67      1.0000 0.16980  0.49177  0.22600  Biso   1.000  C
  C68      1.0000 0.16980  0.50823  0.72600  Biso   1.000  C
  H49      1.0000 0.71620  0.95810  0.19050  Biso   1.000  H
  H50      1.0000 0.71620  0.04190  0.69050  Biso   1.000  H
  H51      1.0000 0.21620  0.45810  0.19050  Biso   1.000  H
  H52      1.0000 0.21620  0.54190  0.69050  Biso   1.000  H
  H53      1.0000 0.65790  0.97180  0.33520  Biso   1.000  H
  H54      1.0000 0.65790  0.02820  0.83520  Biso   1.000  H
  H55      1.0000 0.15790  0.47180  0.33520  Biso   1.000  H
  H56      1.0000 0.15790  0.52820  0.83520  Biso   1.000  H
  C69      1.0000 0.72970  0.06190  0.28060  Biso   1.000  C
  C70      1.0000 0.72970  0.93810  0.78060  Biso   1.000  C
  C71      1.0000 0.22970  0.56190  0.28060  Biso   1.000  C
  C72      1.0000 0.22970  0.43810  0.78060  Biso   1.000  C
  H57      1.0000 0.73590  0.08270  0.16870  Biso   1.000  H
  H58      1.0000 0.73590  0.91730  0.66870  Biso   1.000  H
  H59      1.0000 0.23590  0.58270  0.16870  Biso   1.000  H
  H60      1.0000 0.23590  0.41730  0.66870  Biso   1.000  H
  H61      1.0000 0.80640  0.05510  0.38350  Biso   1.000  H
  H62      1.0000 0.80640  0.94490  0.88350  Biso   1.000  H
  H63      1.0000 0.30640  0.55510  0.38350  Biso   1.000  H
  H64      1.0000 0.30640  0.44490  0.88350  Biso   1.000  H
  H65      1.0000 0.68590  0.09360  0.32500  Biso   1.000  H
  H66      1.0000 0.68590  0.90640  0.82500  Biso   1.000  H
  H67      1.0000 0.18590  0.59360  0.32500  Biso   1.000  H
  H68      1.0000 0.18590  0.40640  0.82500  Biso   1.000  H
  Cl1      1.0000 0.00423  0.97358  0.22668  Biso   1.000  Cl
  Cl2      1.0000 0.00423  0.02642  0.72668  Biso   1.000  Cl
  Cl3      1.0000 0.50423  0.47358  0.22668  Biso   1.000  Cl
  Cl4      1.0000 0.50423  0.52642  0.72668  Biso   1.000  Cl
  Cu1      1.0000 0.12938  0.02330  0.50171  Biso   1.000  Cu
  Cu2      1.0000 0.12938  0.97670  0.00171  Biso   1.000  Cu
  Cu3      1.0000 0.62938  0.52330  0.50171  Biso   1.000  Cu
  Cu4      1.0000 0.62938  0.47670  0.00171  Biso   1.000  Cu
  N1       1.0000 0.07860  0.12427  0.42220  Biso   1.000  N
  N2       1.0000 0.07860  0.87573  0.92220  Biso   1.000  N
  N3       1.0000 0.57860  0.62427  0.42220  Biso   1.000  N
  N4       1.0000 0.57860  0.37573  0.92220  Biso   1.000  N
  N5       1.0000 0.25530  0.06956  0.70640  Biso   1.000  N
  N6       1.0000 0.25530  0.93044  0.20640  Biso   1.000  N
  N7       1.0000 0.75530  0.56956  0.70640  Biso   1.000  N
  N8       1.0000 0.75530  0.43044  0.20640  Biso   1.000  N
  O1       1.0000 0.20319  0.93290  0.59570  Biso   1.000  O
  O2       1.0000 0.20319  0.06710  0.09570  Biso   1.000  O
  O3       1.0000 0.70319  0.43290  0.59570  Biso   1.000  O
  O4       1.0000 0.70319  0.56710  0.09570  Biso   1.000  O
  O5       1.0000 0.50770  0.89406  0.09810  Biso   1.000  O
  O6       1.0000 0.50770  0.10594  0.59810  Biso   1.000  O
  O7       1.0000 0.00770  0.39406  0.09810  Biso   1.000  O
  O8       1.0000 0.00770  0.60594  0.59810  Biso   1.000  O
  O9       1.0000 0.56110  0.00385  0.06470  Biso   1.000  O
  O10      1.0000 0.56110  0.99615  0.56470  Biso   1.000  O
  O11      1.0000 0.06110  0.50385  0.06470  Biso   1.000  O
  O12      1.0000 0.06110  0.49615  0.56470  Biso   1.000  O
