data_image0
_cell_length_a       23.9912
_cell_length_b       16.722
_cell_length_c       21.1676
_cell_angle_alpha    90
_cell_angle_beta     93.6518
_cell_angle_gamma    90

_symmetry_space_group_name_H-M    "P 1"
_symmetry_int_tables_number       1

loop_
  _symmetry_equiv_pos_as_xyz
  'x, y, z'

loop_
  _atom_site_label
  _atom_site_occupancy
  _atom_site_fract_x
  _atom_site_fract_y
  _atom_site_fract_z
  _atom_site_thermal_displace_type
  _atom_site_B_iso_or_equiv
  _atom_site_type_symbol
  Cu1      1.0000 0.24437  0.18252  0.46618  Biso   1.000  Cu
  Cu2      1.0000 0.75563  0.18252  0.03382  Biso   1.000  Cu
  Cu3      1.0000 0.74437  0.68252  0.46618  Biso   1.000  Cu
  Cu4      1.0000 0.25563  0.68252  0.03382  Biso   1.000  Cu
  Cu5      1.0000 0.75563  0.81748  0.53382  Biso   1.000  Cu
  Cu6      1.0000 0.24437  0.81748  0.96618  Biso   1.000  Cu
  Cu7      1.0000 0.25563  0.31748  0.53382  Biso   1.000  Cu
  Cu8      1.0000 0.74437  0.31748  0.96618  Biso   1.000  Cu
  Cu9      1.0000 0.75000  0.25000  0.50000  Biso   1.000  Cu
  Cu10     1.0000 0.25000  0.25000  0.00000  Biso   1.000  Cu
  Cu11     1.0000 0.25000  0.75000  0.50000  Biso   1.000  Cu
  Cu12     1.0000 0.75000  0.75000  0.00000  Biso   1.000  Cu
  O1       1.0000 0.33524  0.28762  0.53521  Biso   1.000  O
  O2       1.0000 0.66476  0.28762  0.96479  Biso   1.000  O
  O3       1.0000 0.83524  0.78762  0.53521  Biso   1.000  O
  O4       1.0000 0.16476  0.78762  0.96479  Biso   1.000  O
  O5       1.0000 0.66476  0.71238  0.46479  Biso   1.000  O
  O6       1.0000 0.33524  0.71238  0.03521  Biso   1.000  O
  O7       1.0000 0.16476  0.21238  0.46479  Biso   1.000  O
  O8       1.0000 0.83524  0.21238  0.03521  Biso   1.000  O
  O9       1.0000 0.26370  0.37018  0.45182  Biso   1.000  O
  O10      1.0000 0.73630  0.37018  0.04818  Biso   1.000  O
  O11      1.0000 0.76370  0.87018  0.45182  Biso   1.000  O
  O12      1.0000 0.23630  0.87018  0.04818  Biso   1.000  O
  O13      1.0000 0.73630  0.62982  0.54818  Biso   1.000  O
  O14      1.0000 0.26370  0.62982  0.95182  Biso   1.000  O
  O15      1.0000 0.23630  0.12982  0.54818  Biso   1.000  O
  O16      1.0000 0.76370  0.12982  0.95182  Biso   1.000  O
  O17      1.0000 0.32572  0.17488  0.47938  Biso   1.000  O
  O18      1.0000 0.67428  0.17488  0.02062  Biso   1.000  O
  O19      1.0000 0.82572  0.67488  0.47938  Biso   1.000  O
  O20      1.0000 0.17428  0.67488  0.02062  Biso   1.000  O
  O21      1.0000 0.67428  0.82512  0.52062  Biso   1.000  O
  O22      1.0000 0.32572  0.82512  0.97938  Biso   1.000  O
  O23      1.0000 0.17428  0.32512  0.52062  Biso   1.000  O
  O24      1.0000 0.82572  0.32512  0.97938  Biso   1.000  O
  N1       1.0000 0.28650  0.49968  0.17174  Biso   1.000  N
  N2       1.0000 0.71350  0.49968  0.32826  Biso   1.000  N
  N3       1.0000 0.78650  0.99968  0.17174  Biso   1.000  N
  N4       1.0000 0.21350  0.99968  0.32826  Biso   1.000  N
  N5       1.0000 0.71350  0.50032  0.82826  Biso   1.000  N
  N6       1.0000 0.28650  0.50032  0.67174  Biso   1.000  N
  N7       1.0000 0.21350  0.00032  0.82826  Biso   1.000  N
  N8       1.0000 0.78650  0.00032  0.67174  Biso   1.000  N
  O25      1.0000 0.25417  0.25780  0.39654  Biso   1.000  O
  O26      1.0000 0.74583  0.25780  0.10346  Biso   1.000  O
  O27      1.0000 0.75417  0.75780  0.39654  Biso   1.000  O
  O28      1.0000 0.24583  0.75780  0.10346  Biso   1.000  O
  O29      1.0000 0.74583  0.74220  0.60346  Biso   1.000  O
  O30      1.0000 0.25417  0.74220  0.89654  Biso   1.000  O
  O31      1.0000 0.24583  0.24220  0.60346  Biso   1.000  O
  O32      1.0000 0.75417  0.24220  0.89654  Biso   1.000  O
  O33      1.0000 0.77598  0.23950  0.59127  Biso   1.000  O
  O34      1.0000 0.22402  0.23950  0.90873  Biso   1.000  O
  O35      1.0000 0.27598  0.73950  0.59127  Biso   1.000  O
  O36      1.0000 0.72402  0.73950  0.90873  Biso   1.000  O
  O37      1.0000 0.22402  0.76050  0.40873  Biso   1.000  O
  O38      1.0000 0.77598  0.76050  0.09127  Biso   1.000  O
  O39      1.0000 0.72402  0.26050  0.40873  Biso   1.000  O
  O40      1.0000 0.27598  0.26050  0.09127  Biso   1.000  O
  N9       1.0000 0.27249  0.58000  0.09048  Biso   1.000  N
  N10      1.0000 0.72751  0.58000  0.40952  Biso   1.000  N
  N11      1.0000 0.77249  0.08000  0.09048  Biso   1.000  N
  N12      1.0000 0.22751  0.08000  0.40952  Biso   1.000  N
  N13      1.0000 0.72751  0.42000  0.90952  Biso   1.000  N
  N14      1.0000 0.27249  0.42000  0.59048  Biso   1.000  N
  N15      1.0000 0.22751  0.92000  0.90952  Biso   1.000  N
  N16      1.0000 0.77249  0.92000  0.59048  Biso   1.000  N
  N17      1.0000 0.67857  0.20328  0.52091  Biso   1.000  N
  N18      1.0000 0.32143  0.20328  0.97909  Biso   1.000  N
  N19      1.0000 0.17857  0.70328  0.52091  Biso   1.000  N
  N20      1.0000 0.82143  0.70328  0.97909  Biso   1.000  N
  N21      1.0000 0.32143  0.79672  0.47909  Biso   1.000  N
  N22      1.0000 0.67857  0.79672  0.02091  Biso   1.000  N
  N23      1.0000 0.82143  0.29672  0.47909  Biso   1.000  N
  N24      1.0000 0.17857  0.29672  0.02091  Biso   1.000  N
  N25      1.0000 0.58974  0.18414  0.53138  Biso   1.000  N
  N26      1.0000 0.41026  0.18414  0.96862  Biso   1.000  N
  N27      1.0000 0.08974  0.68414  0.53138  Biso   1.000  N
  N28      1.0000 0.91026  0.68414  0.96862  Biso   1.000  N
  N29      1.0000 0.41026  0.81586  0.46862  Biso   1.000  N
  N30      1.0000 0.58974  0.81586  0.03138  Biso   1.000  N
  N31      1.0000 0.91026  0.31586  0.46862  Biso   1.000  N
  N32      1.0000 0.08974  0.31586  0.03138  Biso   1.000  N
  C1       1.0000 0.26858  0.37623  0.34153  Biso   1.000  C
  C2       1.0000 0.73142  0.37623  0.15847  Biso   1.000  C
  C3       1.0000 0.76858  0.87623  0.34153  Biso   1.000  C
  C4       1.0000 0.23142  0.87623  0.15847  Biso   1.000  C
  C5       1.0000 0.73142  0.62377  0.65847  Biso   1.000  C
  C6       1.0000 0.26858  0.62377  0.84153  Biso   1.000  C
  C7       1.0000 0.23142  0.12377  0.65847  Biso   1.000  C
  C8       1.0000 0.76858  0.12377  0.84153  Biso   1.000  C
  N33      1.0000 0.76415  0.30475  0.61579  Biso   1.000  N
  N34      1.0000 0.23585  0.30475  0.88421  Biso   1.000  N
  N35      1.0000 0.26415  0.80475  0.61579  Biso   1.000  N
  N36      1.0000 0.73585  0.80475  0.88421  Biso   1.000  N
  N37      1.0000 0.23585  0.69525  0.38421  Biso   1.000  N
  N38      1.0000 0.76415  0.69525  0.11579  Biso   1.000  N
  N39      1.0000 0.73585  0.19525  0.38421  Biso   1.000  N
  N40      1.0000 0.26415  0.19525  0.11579  Biso   1.000  N
  C9       1.0000 0.25467  0.56059  0.14636  Biso   1.000  C
  C10      1.0000 0.74533  0.56059  0.35364  Biso   1.000  C
  C11      1.0000 0.75467  0.06059  0.14636  Biso   1.000  C
  C12      1.0000 0.24533  0.06059  0.35364  Biso   1.000  C
  C13      1.0000 0.74533  0.43941  0.85364  Biso   1.000  C
  C14      1.0000 0.25467  0.43941  0.64636  Biso   1.000  C
  C15      1.0000 0.24533  0.93941  0.85364  Biso   1.000  C
  C16      1.0000 0.75467  0.93941  0.64636  Biso   1.000  C
  C17      1.0000 0.26147  0.33165  0.40157  Biso   1.000  C
  C18      1.0000 0.73853  0.33165  0.09843  Biso   1.000  C
  C19      1.0000 0.76147  0.83165  0.40157  Biso   1.000  C
  C20      1.0000 0.23853  0.83165  0.09843  Biso   1.000  C
  C21      1.0000 0.73853  0.66835  0.59843  Biso   1.000  C
  C22      1.0000 0.26147  0.66835  0.90157  Biso   1.000  C
  C23      1.0000 0.23853  0.16835  0.59843  Biso   1.000  C
  C24      1.0000 0.76147  0.16835  0.90157  Biso   1.000  C
  C25      1.0000 0.35374  0.22612  0.50965  Biso   1.000  C
  C26      1.0000 0.64626  0.22612  0.99035  Biso   1.000  C
  C27      1.0000 0.85374  0.72612  0.50965  Biso   1.000  C
  C28      1.0000 0.14626  0.72612  0.99035  Biso   1.000  C
  C29      1.0000 0.64626  0.77388  0.49035  Biso   1.000  C
  C30      1.0000 0.35374  0.77388  0.00965  Biso   1.000  C
  C31      1.0000 0.14626  0.27388  0.49035  Biso   1.000  C
  C32      1.0000 0.85374  0.27388  0.00965  Biso   1.000  C
  C33      1.0000 0.27343  0.45964  0.34241  Biso   1.000  C
  C34      1.0000 0.72657  0.45964  0.15759  Biso   1.000  C
  C35      1.0000 0.77343  0.95964  0.34241  Biso   1.000  C
  C36      1.0000 0.22657  0.95964  0.15759  Biso   1.000  C
  C37      1.0000 0.72657  0.54036  0.65759  Biso   1.000  C
  C38      1.0000 0.27343  0.54036  0.84241  Biso   1.000  C
  C39      1.0000 0.22657  0.04036  0.65759  Biso   1.000  C
  C40      1.0000 0.77343  0.04036  0.84241  Biso   1.000  C
  H1       1.0000 0.27240  0.48730  0.38040  Biso   1.000  H
  H2       1.0000 0.72760  0.48730  0.11960  Biso   1.000  H
  H3       1.0000 0.77240  0.98730  0.38040  Biso   1.000  H
  H4       1.0000 0.22760  0.98730  0.11960  Biso   1.000  H
  H5       1.0000 0.72760  0.51270  0.61960  Biso   1.000  H
  H6       1.0000 0.27240  0.51270  0.88040  Biso   1.000  H
  H7       1.0000 0.22760  0.01270  0.61960  Biso   1.000  H
  H8       1.0000 0.77240  0.01270  0.88040  Biso   1.000  H
  C41      1.0000 0.27024  0.33524  0.28456  Biso   1.000  C
  C42      1.0000 0.72976  0.33524  0.21544  Biso   1.000  C
  C43      1.0000 0.77024  0.83524  0.28456  Biso   1.000  C
  C44      1.0000 0.22976  0.83524  0.21544  Biso   1.000  C
  C45      1.0000 0.72976  0.66476  0.71544  Biso   1.000  C
  C46      1.0000 0.27024  0.66476  0.78456  Biso   1.000  C
  C47      1.0000 0.22976  0.16476  0.71544  Biso   1.000  C
  C48      1.0000 0.77024  0.16476  0.78456  Biso   1.000  C
  H9       1.0000 0.26740  0.27980  0.28420  Biso   1.000  H
  H10      1.0000 0.73260  0.27980  0.21580  Biso   1.000  H
  H11      1.0000 0.76740  0.77980  0.28420  Biso   1.000  H
  H12      1.0000 0.23260  0.77980  0.21580  Biso   1.000  H
  H13      1.0000 0.73260  0.72020  0.71580  Biso   1.000  H
  H14      1.0000 0.26740  0.72020  0.78420  Biso   1.000  H
  H15      1.0000 0.23260  0.22020  0.71580  Biso   1.000  H
  H16      1.0000 0.76740  0.22020  0.78420  Biso   1.000  H
  C49      1.0000 0.20484  0.59499  0.17432  Biso   1.000  C
  C50      1.0000 0.79516  0.59499  0.32568  Biso   1.000  C
  C51      1.0000 0.70484  0.09499  0.17432  Biso   1.000  C
  C52      1.0000 0.29516  0.09499  0.32568  Biso   1.000  C
  C53      1.0000 0.79516  0.40501  0.82568  Biso   1.000  C
  C54      1.0000 0.20484  0.40501  0.67432  Biso   1.000  C
  C55      1.0000 0.29516  0.90501  0.82568  Biso   1.000  C
  C56      1.0000 0.70484  0.90501  0.67432  Biso   1.000  C
  H17      1.0000 0.19620  0.64620  0.15460  Biso   1.000  H
  H18      1.0000 0.80380  0.64620  0.34540  Biso   1.000  H
  H19      1.0000 0.69620  0.14620  0.15460  Biso   1.000  H
  H20      1.0000 0.30380  0.14620  0.34540  Biso   1.000  H
  H21      1.0000 0.80380  0.35380  0.84540  Biso   1.000  H
  H22      1.0000 0.19620  0.35380  0.65460  Biso   1.000  H
  H23      1.0000 0.30380  0.85380  0.84540  Biso   1.000  H
  H24      1.0000 0.69620  0.85380  0.65460  Biso   1.000  H
  H25      1.0000 0.21340  0.60430  0.21910  Biso   1.000  H
  H26      1.0000 0.78660  0.60430  0.28090  Biso   1.000  H
  H27      1.0000 0.71340  0.10430  0.21910  Biso   1.000  H
  H28      1.0000 0.28660  0.10430  0.28090  Biso   1.000  H
  H29      1.0000 0.78660  0.39570  0.78090  Biso   1.000  H
  H30      1.0000 0.21340  0.39570  0.71910  Biso   1.000  H
  H31      1.0000 0.28660  0.89570  0.78090  Biso   1.000  H
  H32      1.0000 0.71340  0.89570  0.71910  Biso   1.000  H
  C57      1.0000 0.28015  0.45857  0.23007  Biso   1.000  C
  C58      1.0000 0.71985  0.45857  0.26993  Biso   1.000  C
  C59      1.0000 0.78015  0.95857  0.23007  Biso   1.000  C
  C60      1.0000 0.21985  0.95857  0.26993  Biso   1.000  C
  C61      1.0000 0.71985  0.54143  0.76993  Biso   1.000  C
  C62      1.0000 0.28015  0.54143  0.73007  Biso   1.000  C
  C63      1.0000 0.21985  0.04143  0.76993  Biso   1.000  C
  C64      1.0000 0.78015  0.04143  0.73007  Biso   1.000  C
  C65      1.0000 0.41576  0.21465  0.51666  Biso   1.000  C
  C66      1.0000 0.58424  0.21465  0.98334  Biso   1.000  C
  C67      1.0000 0.91576  0.71465  0.51666  Biso   1.000  C
  C68      1.0000 0.08424  0.71465  0.98334  Biso   1.000  C
  C69      1.0000 0.58424  0.78535  0.48334  Biso   1.000  C
  C70      1.0000 0.41576  0.78535  0.01666  Biso   1.000  C
  C71      1.0000 0.08424  0.28535  0.48334  Biso   1.000  C
  C72      1.0000 0.91576  0.28535  0.01666  Biso   1.000  C
  C73      1.0000 0.27977  0.50093  0.28645  Biso   1.000  C
  C74      1.0000 0.72023  0.50093  0.21355  Biso   1.000  C
  C75      1.0000 0.77977  0.00093  0.28645  Biso   1.000  C
  C76      1.0000 0.22023  0.00093  0.21355  Biso   1.000  C
  C77      1.0000 0.72023  0.49907  0.71355  Biso   1.000  C
  C78      1.0000 0.27977  0.49907  0.78645  Biso   1.000  C
  C79      1.0000 0.22023  0.99907  0.71355  Biso   1.000  C
  C80      1.0000 0.77977  0.99907  0.78645  Biso   1.000  C
  H33      1.0000 0.28370  0.55630  0.28670  Biso   1.000  H
  H34      1.0000 0.71630  0.55630  0.21330  Biso   1.000  H
  H35      1.0000 0.78370  0.05630  0.28670  Biso   1.000  H
  H36      1.0000 0.21630  0.05630  0.21330  Biso   1.000  H
  H37      1.0000 0.71630  0.44370  0.71330  Biso   1.000  H
  H38      1.0000 0.28370  0.44370  0.78670  Biso   1.000  H
  H39      1.0000 0.21630  0.94370  0.71330  Biso   1.000  H
  H40      1.0000 0.78370  0.94370  0.78670  Biso   1.000  H
  C81      1.0000 0.31681  0.53073  0.08013  Biso   1.000  C
  C82      1.0000 0.68319  0.53073  0.41987  Biso   1.000  C
  C83      1.0000 0.81681  0.03073  0.08013  Biso   1.000  C
  C84      1.0000 0.18319  0.03073  0.41987  Biso   1.000  C
  C85      1.0000 0.68319  0.46927  0.91987  Biso   1.000  C
  C86      1.0000 0.31681  0.46927  0.58013  Biso   1.000  C
  C87      1.0000 0.18319  0.96927  0.91987  Biso   1.000  C
  C88      1.0000 0.81681  0.96927  0.58013  Biso   1.000  C
  H41      1.0000 0.33750  0.53210  0.04450  Biso   1.000  H
  H42      1.0000 0.66250  0.53210  0.45550  Biso   1.000  H
  H43      1.0000 0.83750  0.03210  0.04450  Biso   1.000  H
  H44      1.0000 0.16250  0.03210  0.45550  Biso   1.000  H
  H45      1.0000 0.66250  0.46790  0.95550  Biso   1.000  H
  H46      1.0000 0.33750  0.46790  0.54450  Biso   1.000  H
  H47      1.0000 0.16250  0.96790  0.95550  Biso   1.000  H
  H48      1.0000 0.83750  0.96790  0.54450  Biso   1.000  H
  O41      1.0000 0.73964  0.35656  0.58024  Biso   1.000  O
  O42      1.0000 0.26036  0.35656  0.91976  Biso   1.000  O
  O43      1.0000 0.23964  0.85656  0.58024  Biso   1.000  O
  O44      1.0000 0.76036  0.85656  0.91976  Biso   1.000  O
  O45      1.0000 0.26036  0.64344  0.41976  Biso   1.000  O
  O46      1.0000 0.73964  0.64344  0.08024  Biso   1.000  O
  O47      1.0000 0.76036  0.14344  0.41976  Biso   1.000  O
  O48      1.0000 0.23964  0.14344  0.08024  Biso   1.000  O
  C89      1.0000 0.32594  0.48004  0.12927  Biso   1.000  C
  C90      1.0000 0.67406  0.48004  0.37073  Biso   1.000  C
  C91      1.0000 0.82594  0.98004  0.12927  Biso   1.000  C
  C92      1.0000 0.17406  0.98004  0.37073  Biso   1.000  C
  C93      1.0000 0.67406  0.51996  0.87073  Biso   1.000  C
  C94      1.0000 0.32594  0.51996  0.62927  Biso   1.000  C
  C95      1.0000 0.17406  0.01996  0.87073  Biso   1.000  C
  C96      1.0000 0.82594  0.01996  0.62927  Biso   1.000  C
  H49      1.0000 0.35300  0.44030  0.13370  Biso   1.000  H
  H50      1.0000 0.64700  0.44030  0.36630  Biso   1.000  H
  H51      1.0000 0.85300  0.94030  0.13370  Biso   1.000  H
  H52      1.0000 0.14700  0.94030  0.36630  Biso   1.000  H
  H53      1.0000 0.64700  0.55970  0.86630  Biso   1.000  H
  H54      1.0000 0.35300  0.55970  0.63370  Biso   1.000  H
  H55      1.0000 0.14700  0.05970  0.86630  Biso   1.000  H
  H56      1.0000 0.85300  0.05970  0.63370  Biso   1.000  H
  C97      1.0000 0.53008  0.19430  0.52731  Biso   1.000  C
  C98      1.0000 0.46992  0.19430  0.97269  Biso   1.000  C
  C99      1.0000 0.03008  0.69430  0.52731  Biso   1.000  C
  C100     1.0000 0.96992  0.69430  0.97269  Biso   1.000  C
  C101     1.0000 0.46992  0.80570  0.47269  Biso   1.000  C
  C102     1.0000 0.53008  0.80570  0.02731  Biso   1.000  C
  C103     1.0000 0.96992  0.30570  0.47269  Biso   1.000  C
  C104     1.0000 0.03008  0.30570  0.02731  Biso   1.000  C
  O49      1.0000 0.77390  0.31550  0.67256  Biso   1.000  O
  O50      1.0000 0.22610  0.31550  0.82744  Biso   1.000  O
  O51      1.0000 0.27390  0.81550  0.67256  Biso   1.000  O
  O52      1.0000 0.72610  0.81550  0.82744  Biso   1.000  O
  O53      1.0000 0.22610  0.68450  0.32744  Biso   1.000  O
  O54      1.0000 0.77390  0.68450  0.17256  Biso   1.000  O
  O55      1.0000 0.72610  0.18450  0.32744  Biso   1.000  O
  O56      1.0000 0.27390  0.18450  0.17256  Biso   1.000  O
  C105     1.0000 0.27597  0.37538  0.22889  Biso   1.000  C
  C106     1.0000 0.72403  0.37538  0.27111  Biso   1.000  C
  C107     1.0000 0.77597  0.87538  0.22889  Biso   1.000  C
  C108     1.0000 0.22403  0.87538  0.27111  Biso   1.000  C
  C109     1.0000 0.72403  0.62462  0.77111  Biso   1.000  C
  C110     1.0000 0.27597  0.62462  0.72889  Biso   1.000  C
  C111     1.0000 0.22403  0.12462  0.77111  Biso   1.000  C
  C112     1.0000 0.77597  0.12462  0.72889  Biso   1.000  C
  H57      1.0000 0.27710  0.34760  0.19090  Biso   1.000  H
  H58      1.0000 0.72290  0.34760  0.30910  Biso   1.000  H
  H59      1.0000 0.77710  0.84760  0.19090  Biso   1.000  H
  H60      1.0000 0.22290  0.84760  0.30910  Biso   1.000  H
  H61      1.0000 0.72290  0.65240  0.80910  Biso   1.000  H
  H62      1.0000 0.27710  0.65240  0.69090  Biso   1.000  H
  H63      1.0000 0.22290  0.15240  0.80910  Biso   1.000  H
  H64      1.0000 0.77710  0.15240  0.69090  Biso   1.000  H
  C113     1.0000 0.50664  0.25740  0.55874  Biso   1.000  C
  C114     1.0000 0.49336  0.25740  0.94126  Biso   1.000  C
  C115     1.0000 0.00664  0.75740  0.55874  Biso   1.000  C
  C116     1.0000 0.99336  0.75740  0.94126  Biso   1.000  C
  C117     1.0000 0.49336  0.74260  0.44126  Biso   1.000  C
  C118     1.0000 0.50664  0.74260  0.05874  Biso   1.000  C
  C119     1.0000 0.99336  0.24260  0.44126  Biso   1.000  C
  C120     1.0000 0.00664  0.24260  0.05874  Biso   1.000  C
  H65      1.0000 0.52910  0.29200  0.58350  Biso   1.000  H
  H66      1.0000 0.47090  0.29200  0.91650  Biso   1.000  H
  H67      1.0000 0.02910  0.79200  0.58350  Biso   1.000  H
  H68      1.0000 0.97090  0.79200  0.91650  Biso   1.000  H
  H69      1.0000 0.47090  0.70800  0.41650  Biso   1.000  H
  H70      1.0000 0.52910  0.70800  0.08350  Biso   1.000  H
  H71      1.0000 0.97090  0.20800  0.41650  Biso   1.000  H
  H72      1.0000 0.02910  0.20800  0.08350  Biso   1.000  H
  C121     1.0000 0.62846  0.23460  0.51046  Biso   1.000  C
  C122     1.0000 0.37154  0.23460  0.98954  Biso   1.000  C
  C123     1.0000 0.12846  0.73460  0.51046  Biso   1.000  C
  C124     1.0000 0.87154  0.73460  0.98954  Biso   1.000  C
  C125     1.0000 0.37154  0.76540  0.48954  Biso   1.000  C
  C126     1.0000 0.62846  0.76540  0.01046  Biso   1.000  C
  C127     1.0000 0.87154  0.26540  0.48954  Biso   1.000  C
  C128     1.0000 0.12846  0.26540  0.01046  Biso   1.000  C
  C129     1.0000 0.44015  0.15060  0.48685  Biso   1.000  C
  C130     1.0000 0.55985  0.15060  0.01315  Biso   1.000  C
  C131     1.0000 0.94015  0.65060  0.48685  Biso   1.000  C
  C132     1.0000 0.05985  0.65060  0.01315  Biso   1.000  C
  C133     1.0000 0.55985  0.84940  0.51315  Biso   1.000  C
  C134     1.0000 0.44015  0.84940  0.98685  Biso   1.000  C
  C135     1.0000 0.05985  0.34940  0.51315  Biso   1.000  C
  C136     1.0000 0.94015  0.34940  0.98685  Biso   1.000  C
  H73      1.0000 0.41780  0.11450  0.46340  Biso   1.000  H
  H74      1.0000 0.58220  0.11450  0.03660  Biso   1.000  H
  H75      1.0000 0.91780  0.61450  0.46340  Biso   1.000  H
  H76      1.0000 0.08220  0.61450  0.03660  Biso   1.000  H
  H77      1.0000 0.58220  0.88550  0.53660  Biso   1.000  H
  H78      1.0000 0.41780  0.88550  0.96340  Biso   1.000  H
  H79      1.0000 0.08220  0.38550  0.53660  Biso   1.000  H
  H80      1.0000 0.91780  0.38550  0.96340  Biso   1.000  H
  C137     1.0000 0.44891  0.26800  0.55261  Biso   1.000  C
  C138     1.0000 0.55109  0.26800  0.94739  Biso   1.000  C
  C139     1.0000 0.94891  0.76800  0.55261  Biso   1.000  C
  C140     1.0000 0.05109  0.76800  0.94739  Biso   1.000  C
  C141     1.0000 0.55109  0.73200  0.44739  Biso   1.000  C
  C142     1.0000 0.44891  0.73200  0.05261  Biso   1.000  C
  C143     1.0000 0.05109  0.23200  0.44739  Biso   1.000  C
  C144     1.0000 0.94891  0.23200  0.05261  Biso   1.000  C
  H81      1.0000 0.43260  0.31080  0.57260  Biso   1.000  H
  H82      1.0000 0.56740  0.31080  0.92740  Biso   1.000  H
  H83      1.0000 0.93260  0.81080  0.57260  Biso   1.000  H
  H84      1.0000 0.06740  0.81080  0.92740  Biso   1.000  H
  H85      1.0000 0.56740  0.68920  0.42740  Biso   1.000  H
  H86      1.0000 0.43260  0.68920  0.07260  Biso   1.000  H
  H87      1.0000 0.06740  0.18920  0.42740  Biso   1.000  H
  H88      1.0000 0.93260  0.18920  0.07260  Biso   1.000  H
  C145     1.0000 0.67169  0.13070  0.54900  Biso   1.000  C
  C146     1.0000 0.32831  0.13070  0.95100  Biso   1.000  C
  C147     1.0000 0.17169  0.63070  0.54900  Biso   1.000  C
  C148     1.0000 0.82831  0.63070  0.95100  Biso   1.000  C
  C149     1.0000 0.32831  0.86930  0.45100  Biso   1.000  C
  C150     1.0000 0.67169  0.86930  0.04900  Biso   1.000  C
  C151     1.0000 0.82831  0.36930  0.45100  Biso   1.000  C
  C152     1.0000 0.17169  0.36930  0.04900  Biso   1.000  C
  H89      1.0000 0.70030  0.09580  0.56190  Biso   1.000  H
  H90      1.0000 0.29970  0.09580  0.93810  Biso   1.000  H
  H91      1.0000 0.20030  0.59580  0.56190  Biso   1.000  H
  H92      1.0000 0.79970  0.59580  0.93810  Biso   1.000  H
  H93      1.0000 0.29970  0.90420  0.43810  Biso   1.000  H
  H94      1.0000 0.70030  0.90420  0.06190  Biso   1.000  H
  H95      1.0000 0.79970  0.40420  0.43810  Biso   1.000  H
  H96      1.0000 0.20030  0.40420  0.06190  Biso   1.000  H
  C153     1.0000 0.61688  0.11770  0.55501  Biso   1.000  C
  C154     1.0000 0.38312  0.11770  0.94499  Biso   1.000  C
  C155     1.0000 0.11688  0.61770  0.55501  Biso   1.000  C
  C156     1.0000 0.88312  0.61770  0.94499  Biso   1.000  C
  C157     1.0000 0.38312  0.88230  0.44499  Biso   1.000  C
  C158     1.0000 0.61688  0.88230  0.05501  Biso   1.000  C
  C159     1.0000 0.88312  0.38230  0.44499  Biso   1.000  C
  C160     1.0000 0.11688  0.38230  0.05501  Biso   1.000  C
  H97      1.0000 0.60070  0.07260  0.57190  Biso   1.000  H
  H98      1.0000 0.39930  0.07260  0.92810  Biso   1.000  H
  H99      1.0000 0.10070  0.57260  0.57190  Biso   1.000  H
  H100     1.0000 0.89930  0.57260  0.92810  Biso   1.000  H
  H101     1.0000 0.39930  0.92740  0.42810  Biso   1.000  H
  H102     1.0000 0.60070  0.92740  0.07190  Biso   1.000  H
  H103     1.0000 0.89930  0.42740  0.42810  Biso   1.000  H
  H104     1.0000 0.10070  0.42740  0.07190  Biso   1.000  H
  C161     1.0000 0.49727  0.14030  0.49189  Biso   1.000  C
  C162     1.0000 0.50273  0.14030  0.00811  Biso   1.000  C
  C163     1.0000 0.99727  0.64030  0.49189  Biso   1.000  C
  C164     1.0000 0.00273  0.64030  0.00811  Biso   1.000  C
  C165     1.0000 0.50273  0.85970  0.50811  Biso   1.000  C
  C166     1.0000 0.49727  0.85970  0.99189  Biso   1.000  C
  C167     1.0000 0.00273  0.35970  0.50811  Biso   1.000  C
  C168     1.0000 0.99727  0.35970  0.99189  Biso   1.000  C
  H105     1.0000 0.51360  0.09760  0.47180  Biso   1.000  H
  H106     1.0000 0.48640  0.09760  0.02820  Biso   1.000  H
  H107     1.0000 0.01360  0.59760  0.47180  Biso   1.000  H
  H108     1.0000 0.98640  0.59760  0.02820  Biso   1.000  H
  H109     1.0000 0.48640  0.90240  0.52820  Biso   1.000  H
  H110     1.0000 0.51360  0.90240  0.97180  Biso   1.000  H
  H111     1.0000 0.98640  0.40240  0.52820  Biso   1.000  H
  H112     1.0000 0.01360  0.40240  0.97180  Biso   1.000  H
  C169     1.0000 0.15438  0.54150  0.16610  Biso   1.000  C
  C170     1.0000 0.84562  0.54150  0.33390  Biso   1.000  C
  C171     1.0000 0.65438  0.04150  0.16610  Biso   1.000  C
  C172     1.0000 0.34562  0.04150  0.33390  Biso   1.000  C
  C173     1.0000 0.84562  0.45850  0.83390  Biso   1.000  C
  C174     1.0000 0.15438  0.45850  0.66610  Biso   1.000  C
  C175     1.0000 0.34562  0.95850  0.83390  Biso   1.000  C
  C176     1.0000 0.65438  0.95850  0.66610  Biso   1.000  C
  H113     1.0000 0.14430  0.53470  0.12190  Biso   1.000  H
  H114     1.0000 0.85570  0.53470  0.37810  Biso   1.000  H
  H115     1.0000 0.64430  0.03470  0.12190  Biso   1.000  H
  H116     1.0000 0.35570  0.03470  0.37810  Biso   1.000  H
  H117     1.0000 0.85570  0.46530  0.87810  Biso   1.000  H
  H118     1.0000 0.14430  0.46530  0.62190  Biso   1.000  H
  H119     1.0000 0.35570  0.96530  0.87810  Biso   1.000  H
  H120     1.0000 0.64430  0.96530  0.62190  Biso   1.000  H
  H121     1.0000 0.12380  0.56540  0.18640  Biso   1.000  H
  H122     1.0000 0.87620  0.56540  0.31360  Biso   1.000  H
  H123     1.0000 0.62380  0.06540  0.18640  Biso   1.000  H
  H124     1.0000 0.37620  0.06540  0.31360  Biso   1.000  H
  H125     1.0000 0.87620  0.43460  0.81360  Biso   1.000  H
  H126     1.0000 0.12380  0.43460  0.68640  Biso   1.000  H
  H127     1.0000 0.37620  0.93460  0.81360  Biso   1.000  H
  H128     1.0000 0.62380  0.93460  0.68640  Biso   1.000  H
  H129     1.0000 0.16290  0.49040  0.18500  Biso   1.000  H
  H130     1.0000 0.83710  0.49040  0.31500  Biso   1.000  H
  H131     1.0000 0.66290  0.99040  0.18500  Biso   1.000  H
  H132     1.0000 0.33710  0.99040  0.31500  Biso   1.000  H
  H133     1.0000 0.83710  0.50960  0.81500  Biso   1.000  H
  H134     1.0000 0.16290  0.50960  0.68500  Biso   1.000  H
  H135     1.0000 0.33710  0.00960  0.81500  Biso   1.000  H
  H136     1.0000 0.66290  0.00960  0.68500  Biso   1.000  H
  C177     1.0000 0.61428  0.31210  0.47880  Biso   1.000  C
  C178     1.0000 0.38572  0.31210  0.02120  Biso   1.000  C
  C179     1.0000 0.11428  0.81210  0.47880  Biso   1.000  C
  C180     1.0000 0.88572  0.81210  0.02120  Biso   1.000  C
  C181     1.0000 0.38572  0.68790  0.52120  Biso   1.000  C
  C182     1.0000 0.61428  0.68790  0.97880  Biso   1.000  C
  C183     1.0000 0.88572  0.18790  0.52120  Biso   1.000  C
  C184     1.0000 0.11428  0.18790  0.97880  Biso   1.000  C
  H137     1.0000 0.64800  0.34350  0.47570  Biso   1.000  H
  H138     1.0000 0.35200  0.34350  0.02430  Biso   1.000  H
  H139     1.0000 0.14800  0.84350  0.47570  Biso   1.000  H
  H140     1.0000 0.85200  0.84350  0.02430  Biso   1.000  H
  H141     1.0000 0.35200  0.65650  0.52430  Biso   1.000  H
  H142     1.0000 0.64800  0.65650  0.97570  Biso   1.000  H
  H143     1.0000 0.85200  0.15650  0.52430  Biso   1.000  H
  H144     1.0000 0.14800  0.15650  0.97570  Biso   1.000  H
  H145     1.0000 0.58900  0.34200  0.50400  Biso   1.000  H
  H146     1.0000 0.41100  0.34200  0.99600  Biso   1.000  H
  H147     1.0000 0.08900  0.84200  0.50400  Biso   1.000  H
  H148     1.0000 0.91100  0.84200  0.99600  Biso   1.000  H
  H149     1.0000 0.41100  0.65800  0.49600  Biso   1.000  H
  H150     1.0000 0.58900  0.65800  0.00400  Biso   1.000  H
  H151     1.0000 0.91100  0.15800  0.49600  Biso   1.000  H
  H152     1.0000 0.08900  0.15800  0.00400  Biso   1.000  H
  C185     1.0000 0.58630  0.29780  0.41130  Biso   1.000  C
  C186     1.0000 0.41370  0.29780  0.08870  Biso   1.000  C
  C187     1.0000 0.08630  0.79780  0.41130  Biso   1.000  C
  C188     1.0000 0.91370  0.79780  0.08870  Biso   1.000  C
  C189     1.0000 0.41370  0.70220  0.58870  Biso   1.000  C
  C190     1.0000 0.58630  0.70220  0.91130  Biso   1.000  C
  C191     1.0000 0.91370  0.20220  0.58870  Biso   1.000  C
  C192     1.0000 0.08630  0.20220  0.91130  Biso   1.000  C
  H153     1.0000 0.57990  0.34820  0.39050  Biso   1.000  H
  H154     1.0000 0.42010  0.34820  0.10950  Biso   1.000  H
  H155     1.0000 0.07990  0.84820  0.39050  Biso   1.000  H
  H156     1.0000 0.92010  0.84820  0.10950  Biso   1.000  H
  H157     1.0000 0.42010  0.65180  0.60950  Biso   1.000  H
  H158     1.0000 0.57990  0.65180  0.89050  Biso   1.000  H
  H159     1.0000 0.92010  0.15180  0.60950  Biso   1.000  H
  H160     1.0000 0.07990  0.15180  0.89050  Biso   1.000  H
  H161     1.0000 0.55130  0.27070  0.41460  Biso   1.000  H
  H162     1.0000 0.44870  0.27070  0.08540  Biso   1.000  H
  H163     1.0000 0.05130  0.77070  0.41460  Biso   1.000  H
  H164     1.0000 0.94870  0.77070  0.08540  Biso   1.000  H
  H165     1.0000 0.44870  0.72930  0.58540  Biso   1.000  H
  H166     1.0000 0.55130  0.72930  0.91460  Biso   1.000  H
  H167     1.0000 0.94870  0.22930  0.58540  Biso   1.000  H
  H168     1.0000 0.05130  0.22930  0.91460  Biso   1.000  H
  H169     1.0000 0.61040  0.26560  0.38720  Biso   1.000  H
  H170     1.0000 0.38960  0.26560  0.11280  Biso   1.000  H
  H171     1.0000 0.11040  0.76560  0.38720  Biso   1.000  H
  H172     1.0000 0.88960  0.76560  0.11280  Biso   1.000  H
  H173     1.0000 0.38960  0.73440  0.61280  Biso   1.000  H
  H174     1.0000 0.61040  0.73440  0.88720  Biso   1.000  H
  H175     1.0000 0.88960  0.23440  0.61280  Biso   1.000  H
  H176     1.0000 0.11040  0.23440  0.88720  Biso   1.000  H
