data_image0
_cell_length_a       12.6806
_cell_length_b       10.4014
_cell_length_c       17.5229
_cell_angle_alpha    90
_cell_angle_beta     90
_cell_angle_gamma    90

_symmetry_space_group_name_H-M    "P 1"
_symmetry_int_tables_number       1

loop_
  _symmetry_equiv_pos_as_xyz
  'x, y, z'

loop_
  _atom_site_label
  _atom_site_occupancy
  _atom_site_fract_x
  _atom_site_fract_y
  _atom_site_fract_z
  _atom_site_thermal_displace_type
  _atom_site_B_iso_or_equiv
  _atom_site_type_symbol
  Cu1      1.0000 0.00000  0.00000  0.50000  Biso   1.000  Cu
  Cu2      1.0000 0.50000  0.50000  0.00000  Biso   1.000  Cu
  Cu3      1.0000 0.00000  0.00000  0.00000  Biso   1.000  Cu
  Cu4      1.0000 0.50000  0.50000  0.50000  Biso   1.000  Cu
  O1       1.0000 0.06099  0.05038  0.59778  Biso   1.000  O
  O2       1.0000 0.43901  0.44962  0.09778  Biso   1.000  O
  O3       1.0000 0.93901  0.05038  0.90222  Biso   1.000  O
  O4       1.0000 0.56099  0.44962  0.40222  Biso   1.000  O
  O5       1.0000 0.93901  0.94962  0.40222  Biso   1.000  O
  O6       1.0000 0.56099  0.55038  0.90222  Biso   1.000  O
  O7       1.0000 0.06099  0.94962  0.09778  Biso   1.000  O
  O8       1.0000 0.43901  0.55038  0.59778  Biso   1.000  O
  O9       1.0000 0.01039  0.24512  0.55914  Biso   1.000  O
  O10      1.0000 0.48961  0.25488  0.05914  Biso   1.000  O
  O11      1.0000 0.98961  0.24512  0.94086  Biso   1.000  O
  O12      1.0000 0.51039  0.25488  0.44086  Biso   1.000  O
  O13      1.0000 0.98961  0.75488  0.44086  Biso   1.000  O
  O14      1.0000 0.51039  0.74512  0.94086  Biso   1.000  O
  O15      1.0000 0.01039  0.75488  0.05914  Biso   1.000  O
  O16      1.0000 0.48961  0.74512  0.55914  Biso   1.000  O
  N1       1.0000 0.23946  0.37937  0.87597  Biso   1.000  N
  N2       1.0000 0.26054  0.12063  0.37597  Biso   1.000  N
  N3       1.0000 0.76054  0.37937  0.62403  Biso   1.000  N
  N4       1.0000 0.73946  0.12063  0.12403  Biso   1.000  N
  N5       1.0000 0.76054  0.62063  0.12403  Biso   1.000  N
  N6       1.0000 0.73946  0.87937  0.62403  Biso   1.000  N
  N7       1.0000 0.23946  0.62063  0.37597  Biso   1.000  N
  N8       1.0000 0.26054  0.87937  0.87597  Biso   1.000  N
  N9       1.0000 0.36343  0.45341  0.95132  Biso   1.000  N
  N10      1.0000 0.13657  0.04659  0.45132  Biso   1.000  N
  N11      1.0000 0.63657  0.45341  0.54868  Biso   1.000  N
  N12      1.0000 0.86343  0.04659  0.04868  Biso   1.000  N
  N13      1.0000 0.63657  0.54659  0.04868  Biso   1.000  N
  N14      1.0000 0.86343  0.95341  0.54868  Biso   1.000  N
  N15      1.0000 0.36343  0.54659  0.45132  Biso   1.000  N
  N16      1.0000 0.13657  0.95341  0.95132  Biso   1.000  N
  C1       1.0000 0.05383  0.17302  0.60518  Biso   1.000  C
  C2       1.0000 0.44617  0.32698  0.10518  Biso   1.000  C
  C3       1.0000 0.94617  0.17302  0.89482  Biso   1.000  C
  C4       1.0000 0.55383  0.32698  0.39482  Biso   1.000  C
  C5       1.0000 0.94617  0.82698  0.39482  Biso   1.000  C
  C6       1.0000 0.55383  0.67302  0.89482  Biso   1.000  C
  C7       1.0000 0.05383  0.82698  0.10518  Biso   1.000  C
  C8       1.0000 0.44617  0.67302  0.60518  Biso   1.000  C
  C9       1.0000 0.10232  0.22646  0.67725  Biso   1.000  C
  C10      1.0000 0.39768  0.27354  0.17725  Biso   1.000  C
  C11      1.0000 0.89768  0.22646  0.82275  Biso   1.000  C
  C12      1.0000 0.60232  0.27354  0.32275  Biso   1.000  C
  C13      1.0000 0.89768  0.77354  0.32275  Biso   1.000  C
  C14      1.0000 0.60232  0.72646  0.82275  Biso   1.000  C
  C15      1.0000 0.10232  0.77354  0.17725  Biso   1.000  C
  C16      1.0000 0.39768  0.72646  0.67725  Biso   1.000  C
  C17      1.0000 0.10684  0.35859  0.68789  Biso   1.000  C
  C18      1.0000 0.39316  0.14141  0.18789  Biso   1.000  C
  C19      1.0000 0.89316  0.35859  0.81211  Biso   1.000  C
  C20      1.0000 0.60684  0.14141  0.31211  Biso   1.000  C
  C21      1.0000 0.89316  0.64141  0.31211  Biso   1.000  C
  C22      1.0000 0.60684  0.85859  0.81211  Biso   1.000  C
  C23      1.0000 0.10684  0.64141  0.18789  Biso   1.000  C
  C24      1.0000 0.39316  0.85859  0.68789  Biso   1.000  C
  H1       1.0000 0.07970  0.41460  0.64980  Biso   1.000  H
  H2       1.0000 0.42030  0.08540  0.14980  Biso   1.000  H
  H3       1.0000 0.92030  0.41460  0.85020  Biso   1.000  H
  H4       1.0000 0.57970  0.08540  0.35020  Biso   1.000  H
  H5       1.0000 0.92030  0.58540  0.35020  Biso   1.000  H
  H6       1.0000 0.57970  0.91460  0.85020  Biso   1.000  H
  H7       1.0000 0.07970  0.58540  0.14980  Biso   1.000  H
  H8       1.0000 0.42030  0.91460  0.64980  Biso   1.000  H
  C25      1.0000 0.15088  0.40944  0.75400  Biso   1.000  C
  C26      1.0000 0.34912  0.09056  0.25400  Biso   1.000  C
  C27      1.0000 0.84912  0.40944  0.74600  Biso   1.000  C
  C28      1.0000 0.65088  0.09056  0.24600  Biso   1.000  C
  C29      1.0000 0.84912  0.59056  0.24600  Biso   1.000  C
  C30      1.0000 0.65088  0.90944  0.74600  Biso   1.000  C
  C31      1.0000 0.15088  0.59056  0.25400  Biso   1.000  C
  C32      1.0000 0.34912  0.90944  0.75400  Biso   1.000  C
  H9       1.0000 0.15430  0.49990  0.76130  Biso   1.000  H
  H10      1.0000 0.34570  0.00010  0.26130  Biso   1.000  H
  H11      1.0000 0.84570  0.49990  0.73870  Biso   1.000  H
  H12      1.0000 0.65430  0.00010  0.23870  Biso   1.000  H
  H13      1.0000 0.84570  0.50010  0.23870  Biso   1.000  H
  H14      1.0000 0.65430  0.99990  0.73870  Biso   1.000  H
  H15      1.0000 0.15430  0.50010  0.26130  Biso   1.000  H
  H16      1.0000 0.34570  0.99990  0.76130  Biso   1.000  H
  C33      1.0000 0.18989  0.32634  0.80928  Biso   1.000  C
  C34      1.0000 0.31011  0.17366  0.30928  Biso   1.000  C
  C35      1.0000 0.81011  0.32634  0.69072  Biso   1.000  C
  C36      1.0000 0.68989  0.17366  0.19072  Biso   1.000  C
  C37      1.0000 0.81011  0.67366  0.19072  Biso   1.000  C
  C38      1.0000 0.68989  0.82634  0.69072  Biso   1.000  C
  C39      1.0000 0.18989  0.67366  0.30928  Biso   1.000  C
  C40      1.0000 0.31011  0.82634  0.80928  Biso   1.000  C
  C41      1.0000 0.18461  0.19456  0.80003  Biso   1.000  C
  C42      1.0000 0.31539  0.30544  0.30003  Biso   1.000  C
  C43      1.0000 0.81539  0.19456  0.69997  Biso   1.000  C
  C44      1.0000 0.68461  0.30544  0.19997  Biso   1.000  C
  C45      1.0000 0.81539  0.80544  0.19997  Biso   1.000  C
  C46      1.0000 0.68461  0.69456  0.69997  Biso   1.000  C
  C47      1.0000 0.18461  0.80544  0.30003  Biso   1.000  C
  C48      1.0000 0.31539  0.69456  0.80003  Biso   1.000  C
  H17      1.0000 0.21020  0.13870  0.83870  Biso   1.000  H
  H18      1.0000 0.28980  0.36130  0.33870  Biso   1.000  H
  H19      1.0000 0.78980  0.13870  0.66130  Biso   1.000  H
  H20      1.0000 0.71020  0.36130  0.16130  Biso   1.000  H
  H21      1.0000 0.78980  0.86130  0.16130  Biso   1.000  H
  H22      1.0000 0.71020  0.63870  0.66130  Biso   1.000  H
  H23      1.0000 0.21020  0.86130  0.33870  Biso   1.000  H
  H24      1.0000 0.28980  0.63870  0.83870  Biso   1.000  H
  C49      1.0000 0.14135  0.14495  0.73338  Biso   1.000  C
  C50      1.0000 0.35865  0.35505  0.23338  Biso   1.000  C
  C51      1.0000 0.85865  0.14495  0.76662  Biso   1.000  C
  C52      1.0000 0.64135  0.35505  0.26662  Biso   1.000  C
  C53      1.0000 0.85865  0.85505  0.26662  Biso   1.000  C
  C54      1.0000 0.64135  0.64495  0.76662  Biso   1.000  C
  C55      1.0000 0.14135  0.85505  0.23338  Biso   1.000  C
  C56      1.0000 0.35865  0.64495  0.73338  Biso   1.000  C
  H25      1.0000 0.13840  0.05450  0.72610  Biso   1.000  H
  H26      1.0000 0.36160  0.44550  0.22610  Biso   1.000  H
  H27      1.0000 0.86160  0.05450  0.77390  Biso   1.000  H
  H28      1.0000 0.63840  0.44550  0.27390  Biso   1.000  H
  H29      1.0000 0.86160  0.94550  0.27390  Biso   1.000  H
  H30      1.0000 0.63840  0.55450  0.77390  Biso   1.000  H
  H31      1.0000 0.13840  0.94550  0.22610  Biso   1.000  H
  H32      1.0000 0.36160  0.55450  0.72610  Biso   1.000  H
  C57      1.0000 0.18859  0.43601  0.93715  Biso   1.000  C
  C58      1.0000 0.31141  0.06399  0.43715  Biso   1.000  C
  C59      1.0000 0.81141  0.43601  0.56285  Biso   1.000  C
  C60      1.0000 0.68859  0.06399  0.06285  Biso   1.000  C
  C61      1.0000 0.81141  0.56399  0.06285  Biso   1.000  C
  C62      1.0000 0.68859  0.93601  0.56285  Biso   1.000  C
  C63      1.0000 0.18859  0.56399  0.43715  Biso   1.000  C
  C64      1.0000 0.31141  0.93601  0.93715  Biso   1.000  C
  H33      1.0000 0.11470  0.44210  0.94510  Biso   1.000  H
  H34      1.0000 0.38530  0.05790  0.44510  Biso   1.000  H
  H35      1.0000 0.88530  0.44210  0.55490  Biso   1.000  H
  H36      1.0000 0.61470  0.05790  0.05490  Biso   1.000  H
  H37      1.0000 0.88530  0.55790  0.05490  Biso   1.000  H
  H38      1.0000 0.61470  0.94210  0.55490  Biso   1.000  H
  H39      1.0000 0.11470  0.55790  0.44510  Biso   1.000  H
  H40      1.0000 0.38530  0.94210  0.94510  Biso   1.000  H
  C65      1.0000 0.26583  0.48093  0.98329  Biso   1.000  C
  C66      1.0000 0.23417  0.01907  0.48329  Biso   1.000  C
  C67      1.0000 0.73417  0.48093  0.51671  Biso   1.000  C
  C68      1.0000 0.76583  0.01907  0.01671  Biso   1.000  C
  C69      1.0000 0.73417  0.51907  0.01671  Biso   1.000  C
  C70      1.0000 0.76583  0.98093  0.51671  Biso   1.000  C
  C71      1.0000 0.26583  0.51907  0.48329  Biso   1.000  C
  C72      1.0000 0.23417  0.98093  0.98329  Biso   1.000  C
  H41      1.0000 0.25500  0.52450  0.03030  Biso   1.000  H
  H42      1.0000 0.24500  0.97550  0.53030  Biso   1.000  H
  H43      1.0000 0.74500  0.52450  0.46970  Biso   1.000  H
  H44      1.0000 0.75500  0.97550  0.96970  Biso   1.000  H
  H45      1.0000 0.74500  0.47550  0.96970  Biso   1.000  H
  H46      1.0000 0.75500  0.02450  0.46970  Biso   1.000  H
  H47      1.0000 0.25500  0.47550  0.53030  Biso   1.000  H
  H48      1.0000 0.24500  0.02450  0.03030  Biso   1.000  H
  C73      1.0000 0.34541  0.39147  0.88665  Biso   1.000  C
  C74      1.0000 0.15459  0.10853  0.38665  Biso   1.000  C
  C75      1.0000 0.65459  0.39147  0.61335  Biso   1.000  C
  C76      1.0000 0.84541  0.10853  0.11335  Biso   1.000  C
  C77      1.0000 0.65459  0.60853  0.11335  Biso   1.000  C
  C78      1.0000 0.84541  0.89147  0.61335  Biso   1.000  C
  C79      1.0000 0.34541  0.60853  0.38665  Biso   1.000  C
  C80      1.0000 0.15459  0.89147  0.88665  Biso   1.000  C
  C81      1.0000 0.42606  0.33841  0.83330  Biso   1.000  C
  C82      1.0000 0.07394  0.16159  0.33330  Biso   1.000  C
  C83      1.0000 0.57394  0.33841  0.66670  Biso   1.000  C
  C84      1.0000 0.92606  0.16159  0.16670  Biso   1.000  C
  C85      1.0000 0.57394  0.66159  0.16670  Biso   1.000  C
  C86      1.0000 0.92606  0.83841  0.66670  Biso   1.000  C
  C87      1.0000 0.42606  0.66159  0.33330  Biso   1.000  C
  C88      1.0000 0.07394  0.83841  0.83330  Biso   1.000  C
  H49      1.0000 0.47920  0.40570  0.82240  Biso   1.000  H
  H50      1.0000 0.02080  0.09430  0.32240  Biso   1.000  H
  H51      1.0000 0.52080  0.40570  0.67760  Biso   1.000  H
  H52      1.0000 0.97920  0.09430  0.17760  Biso   1.000  H
  H53      1.0000 0.52080  0.59430  0.17760  Biso   1.000  H
  H54      1.0000 0.97920  0.90570  0.67760  Biso   1.000  H
  H55      1.0000 0.47920  0.59430  0.32240  Biso   1.000  H
  H56      1.0000 0.02080  0.90570  0.82240  Biso   1.000  H
  H57      1.0000 0.39140  0.31540  0.78450  Biso   1.000  H
  H58      1.0000 0.10860  0.18460  0.28450  Biso   1.000  H
  H59      1.0000 0.60860  0.31540  0.71550  Biso   1.000  H
  H60      1.0000 0.89140  0.18460  0.21550  Biso   1.000  H
  H61      1.0000 0.60860  0.68460  0.21550  Biso   1.000  H
  H62      1.0000 0.89140  0.81540  0.71550  Biso   1.000  H
  H63      1.0000 0.39140  0.68460  0.28450  Biso   1.000  H
  H64      1.0000 0.10860  0.81540  0.78450  Biso   1.000  H
  C89      1.0000 0.48173  0.22016  0.86509  Biso   1.000  C
  C90      1.0000 0.01827  0.27984  0.36509  Biso   1.000  C
  C91      1.0000 0.51827  0.22016  0.63491  Biso   1.000  C
  C92      1.0000 0.98173  0.27984  0.13491  Biso   1.000  C
  C93      1.0000 0.51827  0.77984  0.13491  Biso   1.000  C
  C94      1.0000 0.98173  0.72016  0.63491  Biso   1.000  C
  C95      1.0000 0.48173  0.77984  0.36509  Biso   1.000  C
  C96      1.0000 0.01827  0.72016  0.86509  Biso   1.000  C
  H65      1.0000 0.51420  0.24130  0.91300  Biso   1.000  H
  H66      1.0000 0.98580  0.25870  0.41300  Biso   1.000  H
  H67      1.0000 0.48580  0.24130  0.58700  Biso   1.000  H
  H68      1.0000 0.01420  0.25870  0.08700  Biso   1.000  H
  H69      1.0000 0.48580  0.75870  0.08700  Biso   1.000  H
  H70      1.0000 0.01420  0.74130  0.58700  Biso   1.000  H
  H71      1.0000 0.51420  0.75870  0.41300  Biso   1.000  H
  H72      1.0000 0.98580  0.74130  0.91300  Biso   1.000  H
  H73      1.0000 0.53480  0.19210  0.82980  Biso   1.000  H
  H74      1.0000 0.96520  0.30790  0.32980  Biso   1.000  H
  H75      1.0000 0.46520  0.19210  0.67020  Biso   1.000  H
  H76      1.0000 0.03480  0.30790  0.17020  Biso   1.000  H
  H77      1.0000 0.46520  0.80790  0.17020  Biso   1.000  H
  H78      1.0000 0.03480  0.69210  0.67020  Biso   1.000  H
  H79      1.0000 0.53480  0.80790  0.32980  Biso   1.000  H
  H80      1.0000 0.96520  0.69210  0.82980  Biso   1.000  H
  H81      1.0000 0.43120  0.15260  0.87260  Biso   1.000  H
  H82      1.0000 0.06880  0.34740  0.37260  Biso   1.000  H
  H83      1.0000 0.56880  0.15260  0.62740  Biso   1.000  H
  H84      1.0000 0.93120  0.34740  0.12740  Biso   1.000  H
  H85      1.0000 0.56880  0.84740  0.12740  Biso   1.000  H
  H86      1.0000 0.93120  0.65260  0.62740  Biso   1.000  H
  H87      1.0000 0.43120  0.84740  0.37260  Biso   1.000  H
  H88      1.0000 0.06880  0.65260  0.87260  Biso   1.000  H
