data_image0
_cell_length_a       13.4474
_cell_length_b       11.7566
_cell_length_c       19.538
_cell_angle_alpha    90
_cell_angle_beta     92.93
_cell_angle_gamma    90

_symmetry_space_group_name_H-M    "P 1"
_symmetry_int_tables_number       1

loop_
  _symmetry_equiv_pos_as_xyz
  'x, y, z'

loop_
  _atom_site_label
  _atom_site_occupancy
  _atom_site_fract_x
  _atom_site_fract_y
  _atom_site_fract_z
  _atom_site_thermal_displace_type
  _atom_site_B_iso_or_equiv
  _atom_site_type_symbol
  Cu1      1.0000 0.63853  0.73861  0.06365  Biso   1.000  Cu
  Cu2      1.0000 0.13853  0.23861  0.06365  Biso   1.000  Cu
  Cu3      1.0000 0.36147  0.73861  0.43635  Biso   1.000  Cu
  Cu4      1.0000 0.86147  0.23861  0.43635  Biso   1.000  Cu
  Cu5      1.0000 0.36147  0.26139  0.93635  Biso   1.000  Cu
  Cu6      1.0000 0.86147  0.76139  0.93635  Biso   1.000  Cu
  Cu7      1.0000 0.63853  0.26139  0.56365  Biso   1.000  Cu
  Cu8      1.0000 0.13853  0.76139  0.56365  Biso   1.000  Cu
  O1       1.0000 0.73830  0.87440  0.02010  Biso   1.000  O
  O2       1.0000 0.23830  0.37440  0.02010  Biso   1.000  O
  O3       1.0000 0.26170  0.87440  0.47990  Biso   1.000  O
  O4       1.0000 0.76170  0.37440  0.47990  Biso   1.000  O
  O5       1.0000 0.26170  0.12560  0.97990  Biso   1.000  O
  O6       1.0000 0.76170  0.62560  0.97990  Biso   1.000  O
  O7       1.0000 0.73830  0.12560  0.52010  Biso   1.000  O
  O8       1.0000 0.23830  0.62560  0.52010  Biso   1.000  O
  O9       1.0000 0.50000  0.55540  0.25000  Biso   1.000  O
  O10      1.0000 0.00000  0.05540  0.25000  Biso   1.000  O
  O11      1.0000 0.50000  0.44460  0.75000  Biso   1.000  O
  O12      1.0000 0.00000  0.94460  0.75000  Biso   1.000  O
  H1       1.0000 0.54800  0.57900  0.27600  Biso   1.000  H
  H2       1.0000 0.04800  0.07900  0.27600  Biso   1.000  H
  H3       1.0000 0.45200  0.57900  0.22400  Biso   1.000  H
  H4       1.0000 0.95200  0.07900  0.22400  Biso   1.000  H
  H5       1.0000 0.45200  0.42100  0.72400  Biso   1.000  H
  H6       1.0000 0.95200  0.92100  0.72400  Biso   1.000  H
  H7       1.0000 0.54800  0.42100  0.77600  Biso   1.000  H
  H8       1.0000 0.04800  0.92100  0.77600  Biso   1.000  H
  O13      1.0000 0.83370  0.94870  0.94940  Biso   1.000  O
  O14      1.0000 0.33370  0.44870  0.94940  Biso   1.000  O
  O15      1.0000 0.16630  0.94870  0.55060  Biso   1.000  O
  O16      1.0000 0.66630  0.44870  0.55060  Biso   1.000  O
  O17      1.0000 0.16630  0.05130  0.05060  Biso   1.000  O
  O18      1.0000 0.66630  0.55130  0.05060  Biso   1.000  O
  O19      1.0000 0.83370  0.05130  0.44940  Biso   1.000  O
  O20      1.0000 0.33370  0.55130  0.44940  Biso   1.000  O
  O21      1.0000 0.53870  0.86860  0.11140  Biso   1.000  O
  O22      1.0000 0.03870  0.36860  0.11140  Biso   1.000  O
  O23      1.0000 0.46130  0.86860  0.38860  Biso   1.000  O
  O24      1.0000 0.96130  0.36860  0.38860  Biso   1.000  O
  O25      1.0000 0.46130  0.13140  0.88860  Biso   1.000  O
  O26      1.0000 0.96130  0.63140  0.88860  Biso   1.000  O
  O27      1.0000 0.53870  0.13140  0.61140  Biso   1.000  O
  O28      1.0000 0.03870  0.63140  0.61140  Biso   1.000  O
  O29      1.0000 0.49610  0.69330  0.13120  Biso   1.000  O
  O30      1.0000 0.99610  0.19330  0.13120  Biso   1.000  O
  O31      1.0000 0.50390  0.69330  0.36880  Biso   1.000  O
  O32      1.0000 0.00390  0.19330  0.36880  Biso   1.000  O
  O33      1.0000 0.50390  0.30670  0.86880  Biso   1.000  O
  O34      1.0000 0.00390  0.80670  0.86880  Biso   1.000  O
  O35      1.0000 0.49610  0.30670  0.63120  Biso   1.000  O
  O36      1.0000 0.99610  0.80670  0.63120  Biso   1.000  O
  N1       1.0000 0.74360  0.73390  0.15800  Biso   1.000  N
  N2       1.0000 0.24360  0.23390  0.15800  Biso   1.000  N
  N3       1.0000 0.25640  0.73390  0.34200  Biso   1.000  N
  N4       1.0000 0.75640  0.23390  0.34200  Biso   1.000  N
  N5       1.0000 0.25640  0.26610  0.84200  Biso   1.000  N
  N6       1.0000 0.75640  0.76610  0.84200  Biso   1.000  N
  N7       1.0000 0.74360  0.26610  0.65800  Biso   1.000  N
  N8       1.0000 0.24360  0.76610  0.65800  Biso   1.000  N
  N9       1.0000 0.04140  0.75080  0.46570  Biso   1.000  N
  N10      1.0000 0.54140  0.25080  0.46570  Biso   1.000  N
  N11      1.0000 0.95860  0.75080  0.03430  Biso   1.000  N
  N12      1.0000 0.45860  0.25080  0.03430  Biso   1.000  N
  N13      1.0000 0.95860  0.24920  0.53430  Biso   1.000  N
  N14      1.0000 0.45860  0.74920  0.53430  Biso   1.000  N
  N15      1.0000 0.04140  0.24920  0.96570  Biso   1.000  N
  N16      1.0000 0.54140  0.74920  0.96570  Biso   1.000  N
  C1       1.0000 0.79450  0.82430  0.17750  Biso   1.000  C
  C2       1.0000 0.29450  0.32430  0.17750  Biso   1.000  C
  C3       1.0000 0.20550  0.82430  0.32250  Biso   1.000  C
  C4       1.0000 0.70550  0.32430  0.32250  Biso   1.000  C
  C5       1.0000 0.20550  0.17570  0.82250  Biso   1.000  C
  C6       1.0000 0.70550  0.67570  0.82250  Biso   1.000  C
  C7       1.0000 0.79450  0.17570  0.67750  Biso   1.000  C
  C8       1.0000 0.29450  0.67570  0.67750  Biso   1.000  C
  H9       1.0000 0.79020  0.88820  0.14940  Biso   1.000  H
  H10      1.0000 0.29020  0.38820  0.14940  Biso   1.000  H
  H11      1.0000 0.20980  0.88820  0.35060  Biso   1.000  H
  H12      1.0000 0.70980  0.38820  0.35060  Biso   1.000  H
  H13      1.0000 0.20980  0.11180  0.85060  Biso   1.000  H
  H14      1.0000 0.70980  0.61180  0.85060  Biso   1.000  H
  H15      1.0000 0.79020  0.11180  0.64940  Biso   1.000  H
  H16      1.0000 0.29020  0.61180  0.64940  Biso   1.000  H
  C9       1.0000 0.85400  0.83090  0.23690  Biso   1.000  C
  C10      1.0000 0.35400  0.33090  0.23690  Biso   1.000  C
  C11      1.0000 0.14600  0.83090  0.26310  Biso   1.000  C
  C12      1.0000 0.64600  0.33090  0.26310  Biso   1.000  C
  C13      1.0000 0.14600  0.16910  0.76310  Biso   1.000  C
  C14      1.0000 0.64600  0.66910  0.76310  Biso   1.000  C
  C15      1.0000 0.85400  0.16910  0.73690  Biso   1.000  C
  C16      1.0000 0.35400  0.66910  0.73690  Biso   1.000  C
  H17      1.0000 0.88790  0.89750  0.24880  Biso   1.000  H
  H18      1.0000 0.38790  0.39750  0.24880  Biso   1.000  H
  H19      1.0000 0.11210  0.89750  0.25120  Biso   1.000  H
  H20      1.0000 0.61210  0.39750  0.25120  Biso   1.000  H
  H21      1.0000 0.11210  0.10250  0.75120  Biso   1.000  H
  H22      1.0000 0.61210  0.60250  0.75120  Biso   1.000  H
  H23      1.0000 0.88790  0.10250  0.74880  Biso   1.000  H
  H24      1.0000 0.38790  0.60250  0.74880  Biso   1.000  H
  C17      1.0000 0.86160  0.73600  0.27810  Biso   1.000  C
  C18      1.0000 0.36160  0.23600  0.27810  Biso   1.000  C
  C19      1.0000 0.13840  0.73600  0.22190  Biso   1.000  C
  C20      1.0000 0.63840  0.23600  0.22190  Biso   1.000  C
  C21      1.0000 0.13840  0.26400  0.72190  Biso   1.000  C
  C22      1.0000 0.63840  0.76400  0.72190  Biso   1.000  C
  C23      1.0000 0.86160  0.26400  0.77810  Biso   1.000  C
  C24      1.0000 0.36160  0.76400  0.77810  Biso   1.000  C
  C25      1.0000 0.81120  0.63970  0.25830  Biso   1.000  C
  C26      1.0000 0.31120  0.13970  0.25830  Biso   1.000  C
  C27      1.0000 0.18880  0.63970  0.24170  Biso   1.000  C
  C28      1.0000 0.68880  0.13970  0.24170  Biso   1.000  C
  C29      1.0000 0.18880  0.36030  0.74170  Biso   1.000  C
  C30      1.0000 0.68880  0.86030  0.74170  Biso   1.000  C
  C31      1.0000 0.81120  0.36030  0.75830  Biso   1.000  C
  C32      1.0000 0.31120  0.86030  0.75830  Biso   1.000  C
  H25      1.0000 0.81580  0.57420  0.28490  Biso   1.000  H
  H26      1.0000 0.31580  0.07420  0.28490  Biso   1.000  H
  H27      1.0000 0.18420  0.57420  0.21510  Biso   1.000  H
  H28      1.0000 0.68420  0.07420  0.21510  Biso   1.000  H
  H29      1.0000 0.18420  0.42580  0.71510  Biso   1.000  H
  H30      1.0000 0.68420  0.92580  0.71510  Biso   1.000  H
  H31      1.0000 0.81580  0.42580  0.78490  Biso   1.000  H
  H32      1.0000 0.31580  0.92580  0.78490  Biso   1.000  H
  C33      1.0000 0.75250  0.64160  0.19700  Biso   1.000  C
  C34      1.0000 0.25250  0.14160  0.19700  Biso   1.000  C
  C35      1.0000 0.24750  0.64160  0.30300  Biso   1.000  C
  C36      1.0000 0.74750  0.14160  0.30300  Biso   1.000  C
  C37      1.0000 0.24750  0.35840  0.80300  Biso   1.000  C
  C38      1.0000 0.74750  0.85840  0.80300  Biso   1.000  C
  C39      1.0000 0.75250  0.35840  0.69700  Biso   1.000  C
  C40      1.0000 0.25250  0.85840  0.69700  Biso   1.000  C
  H33      1.0000 0.71860  0.57590  0.18310  Biso   1.000  H
  H34      1.0000 0.21860  0.07590  0.18310  Biso   1.000  H
  H35      1.0000 0.28140  0.57590  0.31690  Biso   1.000  H
  H36      1.0000 0.78140  0.07590  0.31690  Biso   1.000  H
  H37      1.0000 0.28140  0.42410  0.81690  Biso   1.000  H
  H38      1.0000 0.78140  0.92410  0.81690  Biso   1.000  H
  H39      1.0000 0.71860  0.42410  0.68310  Biso   1.000  H
  H40      1.0000 0.21860  0.92410  0.68310  Biso   1.000  H
  C41      1.0000 0.00140  0.84250  0.43860  Biso   1.000  C
  C42      1.0000 0.50140  0.34250  0.43860  Biso   1.000  C
  C43      1.0000 0.99860  0.84250  0.06140  Biso   1.000  C
  C44      1.0000 0.49860  0.34250  0.06140  Biso   1.000  C
  C45      1.0000 0.99860  0.15750  0.56140  Biso   1.000  C
  C46      1.0000 0.49860  0.65750  0.56140  Biso   1.000  C
  C47      1.0000 0.00140  0.15750  0.93860  Biso   1.000  C
  C48      1.0000 0.50140  0.65750  0.93860  Biso   1.000  C
  H41      1.0000 0.01340  0.91180  0.46050  Biso   1.000  H
  H42      1.0000 0.51340  0.41180  0.46050  Biso   1.000  H
  H43      1.0000 0.98660  0.91180  0.03950  Biso   1.000  H
  H44      1.0000 0.48660  0.41180  0.03950  Biso   1.000  H
  H45      1.0000 0.98660  0.08820  0.53950  Biso   1.000  H
  H46      1.0000 0.48660  0.58820  0.53950  Biso   1.000  H
  H47      1.0000 0.01340  0.08820  0.96050  Biso   1.000  H
  H48      1.0000 0.51340  0.58820  0.96050  Biso   1.000  H
  C49      1.0000 0.94040  0.84080  0.37720  Biso   1.000  C
  C50      1.0000 0.44040  0.34080  0.37720  Biso   1.000  C
  C51      1.0000 0.05960  0.84080  0.12280  Biso   1.000  C
  C52      1.0000 0.55960  0.34080  0.12280  Biso   1.000  C
  C53      1.0000 0.05960  0.15920  0.62280  Biso   1.000  C
  C54      1.0000 0.55960  0.65920  0.62280  Biso   1.000  C
  C55      1.0000 0.94040  0.15920  0.87720  Biso   1.000  C
  C56      1.0000 0.44040  0.65920  0.87720  Biso   1.000  C
  H49      1.0000 0.91230  0.90750  0.35940  Biso   1.000  H
  H50      1.0000 0.41230  0.40750  0.35940  Biso   1.000  H
  H51      1.0000 0.08770  0.90750  0.14060  Biso   1.000  H
  H52      1.0000 0.58770  0.40750  0.14060  Biso   1.000  H
  H53      1.0000 0.08770  0.09250  0.64060  Biso   1.000  H
  H54      1.0000 0.58770  0.59250  0.64060  Biso   1.000  H
  H55      1.0000 0.91230  0.09250  0.85940  Biso   1.000  H
  H56      1.0000 0.41230  0.59250  0.85940  Biso   1.000  H
  C57      1.0000 0.92400  0.73960  0.34500  Biso   1.000  C
  C58      1.0000 0.42400  0.23960  0.34500  Biso   1.000  C
  C59      1.0000 0.07600  0.73960  0.15500  Biso   1.000  C
  C60      1.0000 0.57600  0.23960  0.15500  Biso   1.000  C
  C61      1.0000 0.07600  0.26040  0.65500  Biso   1.000  C
  C62      1.0000 0.57600  0.76040  0.65500  Biso   1.000  C
  C63      1.0000 0.92400  0.26040  0.84500  Biso   1.000  C
  C64      1.0000 0.42400  0.76040  0.84500  Biso   1.000  C
  C65      1.0000 0.96400  0.64250  0.37380  Biso   1.000  C
  C66      1.0000 0.46400  0.14250  0.37380  Biso   1.000  C
  C67      1.0000 0.03600  0.64250  0.12620  Biso   1.000  C
  C68      1.0000 0.53600  0.14250  0.12620  Biso   1.000  C
  C69      1.0000 0.03600  0.35750  0.62620  Biso   1.000  C
  C70      1.0000 0.53600  0.85750  0.62620  Biso   1.000  C
  C71      1.0000 0.96400  0.35750  0.87380  Biso   1.000  C
  C72      1.0000 0.46400  0.85750  0.87380  Biso   1.000  C
  H57      1.0000 0.95130  0.57190  0.35380  Biso   1.000  H
  H58      1.0000 0.45130  0.07190  0.35380  Biso   1.000  H
  H59      1.0000 0.04870  0.57190  0.14620  Biso   1.000  H
  H60      1.0000 0.54870  0.07190  0.14620  Biso   1.000  H
  H61      1.0000 0.04870  0.42810  0.64620  Biso   1.000  H
  H62      1.0000 0.54870  0.92810  0.64620  Biso   1.000  H
  H63      1.0000 0.95130  0.42810  0.85380  Biso   1.000  H
  H64      1.0000 0.45130  0.92810  0.85380  Biso   1.000  H
  C73      1.0000 0.02420  0.65190  0.43380  Biso   1.000  C
  C74      1.0000 0.52420  0.15190  0.43380  Biso   1.000  C
  C75      1.0000 0.97580  0.65190  0.06620  Biso   1.000  C
  C76      1.0000 0.47580  0.15190  0.06620  Biso   1.000  C
  C77      1.0000 0.97580  0.34810  0.56620  Biso   1.000  C
  C78      1.0000 0.47580  0.84810  0.56620  Biso   1.000  C
  C79      1.0000 0.02420  0.34810  0.93380  Biso   1.000  C
  C80      1.0000 0.52420  0.84810  0.93380  Biso   1.000  C
  H65      1.0000 0.05350  0.58650  0.45230  Biso   1.000  H
  H66      1.0000 0.55350  0.08650  0.45230  Biso   1.000  H
  H67      1.0000 0.94650  0.58650  0.04770  Biso   1.000  H
  H68      1.0000 0.44650  0.08650  0.04770  Biso   1.000  H
  H69      1.0000 0.94650  0.41350  0.54770  Biso   1.000  H
  H70      1.0000 0.44650  0.91350  0.54770  Biso   1.000  H
  H71      1.0000 0.05350  0.41350  0.95230  Biso   1.000  H
  H72      1.0000 0.55350  0.91350  0.95230  Biso   1.000  H
  C81      1.0000 0.75030  0.07820  0.01570  Biso   1.000  C
  C82      1.0000 0.25030  0.57820  0.01570  Biso   1.000  C
  C83      1.0000 0.24970  0.07820  0.48430  Biso   1.000  C
  C84      1.0000 0.74970  0.57820  0.48430  Biso   1.000  C
  C85      1.0000 0.24970  0.92180  0.98430  Biso   1.000  C
  C86      1.0000 0.74970  0.42180  0.98430  Biso   1.000  C
  C87      1.0000 0.75030  0.92180  0.51570  Biso   1.000  C
  C88      1.0000 0.25030  0.42180  0.51570  Biso   1.000  C
  H73      1.0000 0.70210  0.07800  0.05030  Biso   1.000  H
  H74      1.0000 0.20210  0.57800  0.05030  Biso   1.000  H
  H75      1.0000 0.29790  0.07800  0.44970  Biso   1.000  H
  H76      1.0000 0.79790  0.57800  0.44970  Biso   1.000  H
  H77      1.0000 0.29790  0.92200  0.94970  Biso   1.000  H
  H78      1.0000 0.79790  0.42200  0.94970  Biso   1.000  H
  H79      1.0000 0.70210  0.92200  0.55030  Biso   1.000  H
  H80      1.0000 0.20210  0.42200  0.55030  Biso   1.000  H
  H81      1.0000 0.72420  0.11940  0.97630  Biso   1.000  H
  H82      1.0000 0.22420  0.61940  0.97630  Biso   1.000  H
  H83      1.0000 0.27580  0.11940  0.52370  Biso   1.000  H
  H84      1.0000 0.77580  0.61940  0.52370  Biso   1.000  H
  H85      1.0000 0.27580  0.88060  0.02370  Biso   1.000  H
  H86      1.0000 0.77580  0.38060  0.02370  Biso   1.000  H
  H87      1.0000 0.72420  0.88060  0.47630  Biso   1.000  H
  H88      1.0000 0.22420  0.38060  0.47630  Biso   1.000  H
  H89      1.0000 0.81030  0.11410  0.03340  Biso   1.000  H
  H90      1.0000 0.31030  0.61410  0.03340  Biso   1.000  H
  H91      1.0000 0.18970  0.11410  0.46660  Biso   1.000  H
  H92      1.0000 0.68970  0.61410  0.46660  Biso   1.000  H
  H93      1.0000 0.18970  0.88590  0.96660  Biso   1.000  H
  H94      1.0000 0.68970  0.38590  0.96660  Biso   1.000  H
  H95      1.0000 0.81030  0.88590  0.53340  Biso   1.000  H
  H96      1.0000 0.31030  0.38590  0.53340  Biso   1.000  H
  C89      1.0000 0.77210  0.96070  0.99600  Biso   1.000  C
  C90      1.0000 0.27210  0.46070  0.99600  Biso   1.000  C
  C91      1.0000 0.22790  0.96070  0.50400  Biso   1.000  C
  C92      1.0000 0.72790  0.46070  0.50400  Biso   1.000  C
  C93      1.0000 0.22790  0.03930  0.00400  Biso   1.000  C
  C94      1.0000 0.72790  0.53930  0.00400  Biso   1.000  C
  C95      1.0000 0.77210  0.03930  0.49600  Biso   1.000  C
  C96      1.0000 0.27210  0.53930  0.49600  Biso   1.000  C
  C97      1.0000 0.38870  0.84150  0.17290  Biso   1.000  C
  C98      1.0000 0.88870  0.34150  0.17290  Biso   1.000  C
  C99      1.0000 0.61130  0.84150  0.32710  Biso   1.000  C
  C100     1.0000 0.11130  0.34150  0.32710  Biso   1.000  C
  C101     1.0000 0.61130  0.15850  0.82710  Biso   1.000  C
  C102     1.0000 0.11130  0.65850  0.82710  Biso   1.000  C
  C103     1.0000 0.38870  0.15850  0.67290  Biso   1.000  C
  C104     1.0000 0.88870  0.65850  0.67290  Biso   1.000  C
  H97      1.0000 0.38770  0.92310  0.17130  Biso   1.000  H
  H98      1.0000 0.88770  0.42310  0.17130  Biso   1.000  H
  H99      1.0000 0.61230  0.92310  0.32870  Biso   1.000  H
  H100     1.0000 0.11230  0.42310  0.32870  Biso   1.000  H
  H101     1.0000 0.61230  0.07690  0.82870  Biso   1.000  H
  H102     1.0000 0.11230  0.57690  0.82870  Biso   1.000  H
  H103     1.0000 0.38770  0.07690  0.67130  Biso   1.000  H
  H104     1.0000 0.88770  0.57690  0.67130  Biso   1.000  H
  H105     1.0000 0.39310  0.81680  0.21980  Biso   1.000  H
  H106     1.0000 0.89310  0.31680  0.21980  Biso   1.000  H
  H107     1.0000 0.60690  0.81680  0.28020  Biso   1.000  H
  H108     1.0000 0.10690  0.31680  0.28020  Biso   1.000  H
  H109     1.0000 0.60690  0.18320  0.78020  Biso   1.000  H
  H110     1.0000 0.10690  0.68320  0.78020  Biso   1.000  H
  H111     1.0000 0.39310  0.18320  0.71980  Biso   1.000  H
  H112     1.0000 0.89310  0.68320  0.71980  Biso   1.000  H
  H113     1.0000 0.32880  0.81220  0.15060  Biso   1.000  H
  H114     1.0000 0.82880  0.31220  0.15060  Biso   1.000  H
  H115     1.0000 0.67120  0.81220  0.34940  Biso   1.000  H
  H116     1.0000 0.17120  0.31220  0.34940  Biso   1.000  H
  H117     1.0000 0.67120  0.18780  0.84940  Biso   1.000  H
  H118     1.0000 0.17120  0.68780  0.84940  Biso   1.000  H
  H119     1.0000 0.32880  0.18780  0.65060  Biso   1.000  H
  H120     1.0000 0.82880  0.68780  0.65060  Biso   1.000  H
  C105     1.0000 0.48090  0.79650  0.13550  Biso   1.000  C
  C106     1.0000 0.98090  0.29650  0.13550  Biso   1.000  C
  C107     1.0000 0.51910  0.79650  0.36450  Biso   1.000  C
  C108     1.0000 0.01910  0.29650  0.36450  Biso   1.000  C
  C109     1.0000 0.51910  0.20350  0.86450  Biso   1.000  C
  C110     1.0000 0.01910  0.70350  0.86450  Biso   1.000  C
  C111     1.0000 0.48090  0.20350  0.63550  Biso   1.000  C
  C112     1.0000 0.98090  0.70350  0.63550  Biso   1.000  C
