data_image0
_cell_length_a       12.326
_cell_length_b       6.81
_cell_length_c       13.466
_cell_angle_alpha    90
_cell_angle_beta     117.036
_cell_angle_gamma    90

_symmetry_space_group_name_H-M    "P 1"
_symmetry_int_tables_number       1

loop_
  _symmetry_equiv_pos_as_xyz
  'x, y, z'

loop_
  _atom_site_label
  _atom_site_occupancy
  _atom_site_fract_x
  _atom_site_fract_y
  _atom_site_fract_z
  _atom_site_thermal_displace_type
  _atom_site_B_iso_or_equiv
  _atom_site_type_symbol
  Cu1      1.0000 0.04607  0.33116  0.10513  Biso   1.000  Cu
  Cu2      1.0000 0.95393  0.83116  0.39487  Biso   1.000  Cu
  Cu3      1.0000 0.95393  0.66884  0.89487  Biso   1.000  Cu
  Cu4      1.0000 0.04607  0.16884  0.60513  Biso   1.000  Cu
  N1       1.0000 0.96870  0.59970  0.07830  Biso   1.000  N
  N2       1.0000 0.03130  0.09970  0.42170  Biso   1.000  N
  N3       1.0000 0.03130  0.40030  0.92170  Biso   1.000  N
  N4       1.0000 0.96870  0.90030  0.57830  Biso   1.000  N
  N5       1.0000 0.96040  0.70460  0.14580  Biso   1.000  N
  N6       1.0000 0.03960  0.20460  0.35420  Biso   1.000  N
  N7       1.0000 0.03960  0.29540  0.85420  Biso   1.000  N
  N8       1.0000 0.96040  0.79540  0.64580  Biso   1.000  N
  N9       1.0000 0.95130  0.81290  0.20760  Biso   1.000  N
  N10      1.0000 0.04870  0.31290  0.29240  Biso   1.000  N
  N11      1.0000 0.04870  0.18710  0.79240  Biso   1.000  N
  N12      1.0000 0.95130  0.68710  0.70760  Biso   1.000  N
  N13      1.0000 0.88170  0.19790  0.03020  Biso   1.000  N
  N14      1.0000 0.11830  0.69790  0.46980  Biso   1.000  N
  N15      1.0000 0.11830  0.80210  0.96980  Biso   1.000  N
  N16      1.0000 0.88170  0.30210  0.53020  Biso   1.000  N
  N17      1.0000 0.81980  0.18090  0.07850  Biso   1.000  N
  N18      1.0000 0.18020  0.68090  0.42150  Biso   1.000  N
  N19      1.0000 0.18020  0.81910  0.92150  Biso   1.000  N
  N20      1.0000 0.81980  0.31910  0.57850  Biso   1.000  N
  N21      1.0000 0.75740  0.16330  0.12100  Biso   1.000  N
  N22      1.0000 0.24260  0.66330  0.37900  Biso   1.000  N
  N23      1.0000 0.24260  0.83670  0.87900  Biso   1.000  N
  N24      1.0000 0.75740  0.33670  0.62100  Biso   1.000  N
  N25      1.0000 0.21330  0.46510  0.15380  Biso   1.000  N
  N26      1.0000 0.78670  0.96510  0.34620  Biso   1.000  N
  N27      1.0000 0.78670  0.53490  0.84620  Biso   1.000  N
  N28      1.0000 0.21330  0.03490  0.65380  Biso   1.000  N
  H1       1.0000 0.24500  0.49700  0.23140  Biso   1.000  H
  H2       1.0000 0.75500  0.99700  0.26860  Biso   1.000  H
  H3       1.0000 0.75500  0.50300  0.76860  Biso   1.000  H
  H4       1.0000 0.24500  0.00300  0.73140  Biso   1.000  H
  H5       1.0000 0.19300  0.58400  0.11000  Biso   1.000  H
  H6       1.0000 0.80700  0.08400  0.39000  Biso   1.000  H
  H7       1.0000 0.80700  0.41600  0.89000  Biso   1.000  H
  H8       1.0000 0.19300  0.91600  0.61000  Biso   1.000  H
  N29      1.0000 0.12760  0.06900  0.15610  Biso   1.000  N
  N30      1.0000 0.87240  0.56900  0.34390  Biso   1.000  N
  N31      1.0000 0.87240  0.93100  0.84390  Biso   1.000  N
  N32      1.0000 0.12760  0.43100  0.65610  Biso   1.000  N
  H9       1.0000 0.07700  0.00300  0.18300  Biso   1.000  H
  H10      1.0000 0.92300  0.50300  0.31700  Biso   1.000  H
  H11      1.0000 0.92300  0.99700  0.81700  Biso   1.000  H
  H12      1.0000 0.07700  0.49700  0.68300  Biso   1.000  H
  H13      1.0000 0.12100  0.99100  0.09500  Biso   1.000  H
  H14      1.0000 0.87900  0.49100  0.40500  Biso   1.000  H
  H15      1.0000 0.87900  0.00900  0.90500  Biso   1.000  H
  H16      1.0000 0.12100  0.50900  0.59500  Biso   1.000  H
  C1       1.0000 0.30260  0.34850  0.13840  Biso   1.000  C
  C2       1.0000 0.69740  0.84850  0.36160  Biso   1.000  C
  C3       1.0000 0.69740  0.65150  0.86160  Biso   1.000  C
  C4       1.0000 0.30260  0.15150  0.63840  Biso   1.000  C
  C5       1.0000 0.32990  0.16050  0.18600  Biso   1.000  C
  C6       1.0000 0.67010  0.66050  0.31400  Biso   1.000  C
  C7       1.0000 0.67010  0.83950  0.81400  Biso   1.000  C
  C8       1.0000 0.32990  0.33950  0.68600  Biso   1.000  C
  C9       1.0000 0.43980  0.29650  0.05850  Biso   1.000  C
  C10      1.0000 0.56020  0.79650  0.44150  Biso   1.000  C
  C11      1.0000 0.56020  0.70350  0.94150  Biso   1.000  C
  C12      1.0000 0.43980  0.20350  0.55850  Biso   1.000  C
  H17      1.0000 0.47585  0.34158  0.01357  Biso   1.000  H
  H18      1.0000 0.52415  0.84158  0.48643  Biso   1.000  H
  H19      1.0000 0.52415  0.65842  0.98643  Biso   1.000  H
  H20      1.0000 0.47585  0.15842  0.51357  Biso   1.000  H
  C13      1.0000 0.41390  0.04510  0.17040  Biso   1.000  C
  C14      1.0000 0.58610  0.54510  0.32960  Biso   1.000  C
  C15      1.0000 0.58610  0.95490  0.82960  Biso   1.000  C
  C16      1.0000 0.41390  0.45490  0.67040  Biso   1.000  C
  H21      1.0000 0.43268  0.91762  0.20240  Biso   1.000  H
  H22      1.0000 0.56732  0.41762  0.29760  Biso   1.000  H
  H23      1.0000 0.56732  0.08238  0.79760  Biso   1.000  H
  H24      1.0000 0.43268  0.58238  0.70240  Biso   1.000  H
  C17      1.0000 0.35620  0.41470  0.07360  Biso   1.000  C
  C18      1.0000 0.64380  0.91470  0.42640  Biso   1.000  C
  C19      1.0000 0.64380  0.58530  0.92640  Biso   1.000  C
  C20      1.0000 0.35620  0.08530  0.57360  Biso   1.000  C
  H25      1.0000 0.33589  0.54054  0.03958  Biso   1.000  H
  H26      1.0000 0.66411  0.04054  0.46042  Biso   1.000  H
  H27      1.0000 0.66411  0.45946  0.96042  Biso   1.000  H
  H28      1.0000 0.33589  0.95946  0.53958  Biso   1.000  H
  C21      1.0000 0.47060  0.11320  0.10880  Biso   1.000  C
  C22      1.0000 0.52940  0.61320  0.39120  Biso   1.000  C
  C23      1.0000 0.52940  0.88680  0.89120  Biso   1.000  C
  C24      1.0000 0.47060  0.38680  0.60880  Biso   1.000  C
  H29      1.0000 0.53016  0.03502  0.10108  Biso   1.000  H
  H30      1.0000 0.46984  0.53502  0.39892  Biso   1.000  H
  H31      1.0000 0.46984  0.96498  0.89892  Biso   1.000  H
  H32      1.0000 0.53016  0.46498  0.60108  Biso   1.000  H
  C25      1.0000 0.25740  0.08030  0.24100  Biso   1.000  C
  C26      1.0000 0.74260  0.58030  0.25900  Biso   1.000  C
  C27      1.0000 0.74260  0.91970  0.75900  Biso   1.000  C
  C28      1.0000 0.25740  0.41970  0.74100  Biso   1.000  C
  H33      1.0000 0.28758  0.94808  0.27173  Biso   1.000  H
  H34      1.0000 0.71242  0.44808  0.22827  Biso   1.000  H
  H35      1.0000 0.71242  0.05192  0.72827  Biso   1.000  H
  H36      1.0000 0.28758  0.55192  0.77173  Biso   1.000  H
  H37      1.0000 0.26580  0.16713  0.30308  Biso   1.000  H
  H38      1.0000 0.73420  0.66713  0.19692  Biso   1.000  H
  H39      1.0000 0.73420  0.83287  0.69692  Biso   1.000  H
  H40      1.0000 0.26580  0.33287  0.80308  Biso   1.000  H
