data_image0
_cell_length_a       12.44
_cell_length_b       11.425
_cell_length_c       13.869
_cell_angle_alpha    90
_cell_angle_beta     93.14
_cell_angle_gamma    90

_symmetry_space_group_name_H-M    "P 1"
_symmetry_int_tables_number       1

loop_
  _symmetry_equiv_pos_as_xyz
  'x, y, z'

loop_
  _atom_site_label
  _atom_site_occupancy
  _atom_site_fract_x
  _atom_site_fract_y
  _atom_site_fract_z
  _atom_site_thermal_displace_type
  _atom_site_B_iso_or_equiv
  _atom_site_type_symbol
  Cu1      1.0000 0.61646  0.15256  0.63845  Biso   1.000  Cu
  Cu2      1.0000 0.11646  0.34744  0.13845  Biso   1.000  Cu
  Cu3      1.0000 0.38354  0.84744  0.36155  Biso   1.000  Cu
  Cu4      1.0000 0.88354  0.65256  0.86155  Biso   1.000  Cu
  N1       1.0000 0.56970  0.30800  0.68850  Biso   1.000  N
  N2       1.0000 0.06970  0.19200  0.18850  Biso   1.000  N
  N3       1.0000 0.43030  0.69200  0.31150  Biso   1.000  N
  N4       1.0000 0.93030  0.80800  0.81150  Biso   1.000  N
  H1       1.0000 0.62570  0.34280  0.72240  Biso   1.000  H
  H2       1.0000 0.12570  0.15720  0.22240  Biso   1.000  H
  H3       1.0000 0.37430  0.65720  0.27760  Biso   1.000  H
  H4       1.0000 0.87430  0.84280  0.77760  Biso   1.000  H
  C1       1.0000 0.48050  0.28550  0.75370  Biso   1.000  C
  C2       1.0000 0.98050  0.21450  0.25370  Biso   1.000  C
  C3       1.0000 0.51950  0.71450  0.24630  Biso   1.000  C
  C4       1.0000 0.01950  0.78550  0.74630  Biso   1.000  C
  H5       1.0000 0.46740  0.35570  0.79060  Biso   1.000  H
  H6       1.0000 0.96740  0.14430  0.29060  Biso   1.000  H
  H7       1.0000 0.53260  0.64430  0.20940  Biso   1.000  H
  H8       1.0000 0.03260  0.85570  0.70940  Biso   1.000  H
  H9       1.0000 0.50200  0.22390  0.79880  Biso   1.000  H
  H10      1.0000 0.00200  0.27610  0.29880  Biso   1.000  H
  H11      1.0000 0.49800  0.77610  0.20120  Biso   1.000  H
  H12      1.0000 0.99800  0.72390  0.70120  Biso   1.000  H
  C5       1.0000 0.37870  0.25030  0.69860  Biso   1.000  C
  C6       1.0000 0.87870  0.24970  0.19860  Biso   1.000  C
  C7       1.0000 0.62130  0.74970  0.30140  Biso   1.000  C
  C8       1.0000 0.12130  0.75030  0.80140  Biso   1.000  C
  H13      1.0000 0.34720  0.31970  0.66840  Biso   1.000  H
  H14      1.0000 0.84720  0.18030  0.16840  Biso   1.000  H
  H15      1.0000 0.65280  0.68030  0.33160  Biso   1.000  H
  H16      1.0000 0.15280  0.81970  0.83160  Biso   1.000  H
  H17      1.0000 0.32860  0.22200  0.74450  Biso   1.000  H
  H18      1.0000 0.82860  0.27800  0.24450  Biso   1.000  H
  H19      1.0000 0.67140  0.77800  0.25550  Biso   1.000  H
  H20      1.0000 0.17140  0.72200  0.75550  Biso   1.000  H
  C9       1.0000 0.38850  0.15800  0.62140  Biso   1.000  C
  C10      1.0000 0.88850  0.34200  0.12140  Biso   1.000  C
  C11      1.0000 0.61150  0.84200  0.37860  Biso   1.000  C
  C12      1.0000 0.11150  0.65800  0.87860  Biso   1.000  C
  H21      1.0000 0.39950  0.08220  0.65190  Biso   1.000  H
  H22      1.0000 0.89950  0.41780  0.15190  Biso   1.000  H
  H23      1.0000 0.60050  0.91780  0.34810  Biso   1.000  H
  H24      1.0000 0.10050  0.58220  0.84810  Biso   1.000  H
  H25      1.0000 0.32180  0.15460  0.58190  Biso   1.000  H
  H26      1.0000 0.82180  0.34540  0.08190  Biso   1.000  H
  H27      1.0000 0.67820  0.84540  0.41810  Biso   1.000  H
  H28      1.0000 0.17820  0.65460  0.91810  Biso   1.000  H
  N5       1.0000 0.47960  0.18240  0.55820  Biso   1.000  N
  N6       1.0000 0.97960  0.31760  0.05820  Biso   1.000  N
  N7       1.0000 0.52040  0.81760  0.44180  Biso   1.000  N
  N8       1.0000 0.02040  0.68240  0.94180  Biso   1.000  N
  H29      1.0000 0.47580  0.13330  0.50640  Biso   1.000  H
  H30      1.0000 0.97580  0.36670  0.00640  Biso   1.000  H
  H31      1.0000 0.52420  0.86670  0.49360  Biso   1.000  H
  H32      1.0000 0.02420  0.63330  0.99360  Biso   1.000  H
  C13      1.0000 0.53640  0.38090  0.60390  Biso   1.000  C
  C14      1.0000 0.03640  0.11910  0.10390  Biso   1.000  C
  C15      1.0000 0.46360  0.61910  0.39610  Biso   1.000  C
  C16      1.0000 0.96360  0.88090  0.89610  Biso   1.000  C
  H33      1.0000 0.59890  0.41950  0.57970  Biso   1.000  H
  H34      1.0000 0.09890  0.08050  0.07970  Biso   1.000  H
  H35      1.0000 0.40110  0.58050  0.42030  Biso   1.000  H
  H36      1.0000 0.90110  0.91950  0.92030  Biso   1.000  H
  H37      1.0000 0.48640  0.44060  0.62290  Biso   1.000  H
  H38      1.0000 0.98640  0.05940  0.12290  Biso   1.000  H
  H39      1.0000 0.51360  0.55940  0.37710  Biso   1.000  H
  H40      1.0000 0.01360  0.94060  0.87710  Biso   1.000  H
  C17      1.0000 0.48310  0.30460  0.52490  Biso   1.000  C
  C18      1.0000 0.98310  0.19540  0.02490  Biso   1.000  C
  C19      1.0000 0.51690  0.69540  0.47510  Biso   1.000  C
  C20      1.0000 0.01690  0.80460  0.97510  Biso   1.000  C
  H41      1.0000 0.41060  0.33240  0.50920  Biso   1.000  H
  H42      1.0000 0.91060  0.16760  0.00920  Biso   1.000  H
  H43      1.0000 0.58940  0.66760  0.49080  Biso   1.000  H
  H44      1.0000 0.08940  0.83240  0.99080  Biso   1.000  H
  H45      1.0000 0.52340  0.30940  0.46710  Biso   1.000  H
  H46      1.0000 0.02340  0.19060  0.96710  Biso   1.000  H
  H47      1.0000 0.47660  0.69060  0.53290  Biso   1.000  H
  H48      1.0000 0.97660  0.80940  0.03290  Biso   1.000  H
  N9       1.0000 0.62250  0.98660  0.59540  Biso   1.000  N
  N10      1.0000 0.12250  0.51340  0.09540  Biso   1.000  N
  N11      1.0000 0.37750  0.01340  0.40460  Biso   1.000  N
  N12      1.0000 0.87750  0.48660  0.90460  Biso   1.000  N
  N13      1.0000 0.70820  0.93980  0.60810  Biso   1.000  N
  N14      1.0000 0.20820  0.56020  0.10810  Biso   1.000  N
  N15      1.0000 0.29180  0.06020  0.39190  Biso   1.000  N
  N16      1.0000 0.79180  0.43980  0.89190  Biso   1.000  N
  N17      1.0000 0.78930  0.89210  0.61950  Biso   1.000  N
  N18      1.0000 0.28930  0.60790  0.11950  Biso   1.000  N
  N19      1.0000 0.21070  0.10790  0.38050  Biso   1.000  N
  N20      1.0000 0.71070  0.39210  0.88050  Biso   1.000  N
  N21      1.0000 0.74130  0.21760  0.53710  Biso   1.000  N
  N22      1.0000 0.24130  0.28240  0.03710  Biso   1.000  N
  N23      1.0000 0.25870  0.78240  0.46290  Biso   1.000  N
  N24      1.0000 0.75870  0.71760  0.96290  Biso   1.000  N
  N25      1.0000 0.73660  0.16870  0.46030  Biso   1.000  N
  N26      1.0000 0.23660  0.33130  0.96030  Biso   1.000  N
  N27      1.0000 0.26340  0.83130  0.53970  Biso   1.000  N
  N28      1.0000 0.76340  0.66870  0.03970  Biso   1.000  N
  N29      1.0000 0.72980  0.12020  0.38790  Biso   1.000  N
  N30      1.0000 0.22980  0.37980  0.88790  Biso   1.000  N
  N31      1.0000 0.27020  0.87980  0.61210  Biso   1.000  N
  N32      1.0000 0.77020  0.62020  0.11210  Biso   1.000  N
  N33      1.0000 0.71410  0.12720  0.75720  Biso   1.000  N
  N34      1.0000 0.21410  0.37280  0.25720  Biso   1.000  N
  N35      1.0000 0.28590  0.87280  0.24280  Biso   1.000  N
  N36      1.0000 0.78590  0.62720  0.74280  Biso   1.000  N
  N37      1.0000 0.71010  0.04170  0.80450  Biso   1.000  N
  N38      1.0000 0.21010  0.45830  0.30450  Biso   1.000  N
  N39      1.0000 0.28990  0.95830  0.19550  Biso   1.000  N
  N40      1.0000 0.78990  0.54170  0.69550  Biso   1.000  N
  N41      1.0000 0.71120  0.95590  0.84770  Biso   1.000  N
  N42      1.0000 0.21120  0.54410  0.34770  Biso   1.000  N
  N43      1.0000 0.28880  0.04410  0.15230  Biso   1.000  N
  N44      1.0000 0.78880  0.45590  0.65230  Biso   1.000  N
  Cu5      1.0000 0.87311  0.31595  0.56479  Biso   1.000  Cu
  Cu6      1.0000 0.37311  0.18405  0.06479  Biso   1.000  Cu
  Cu7      1.0000 0.12689  0.68405  0.43521  Biso   1.000  Cu
  Cu8      1.0000 0.62689  0.81595  0.93521  Biso   1.000  Cu
  N45      1.0000 0.02820  0.36390  0.59150  Biso   1.000  N
  N46      1.0000 0.52820  0.13610  0.09150  Biso   1.000  N
  N47      1.0000 0.97180  0.63610  0.40850  Biso   1.000  N
  N48      1.0000 0.47180  0.86390  0.90850  Biso   1.000  N
  H49      1.0000 0.04050  0.43360  0.56230  Biso   1.000  H
  H50      1.0000 0.54050  0.06640  0.06230  Biso   1.000  H
  H51      1.0000 0.95950  0.56640  0.43770  Biso   1.000  H
  H52      1.0000 0.45950  0.93360  0.93770  Biso   1.000  H
  C21      1.0000 0.04620  0.37610  0.69700  Biso   1.000  C
  C22      1.0000 0.54620  0.12390  0.19700  Biso   1.000  C
  C23      1.0000 0.95380  0.62390  0.30300  Biso   1.000  C
  C24      1.0000 0.45380  0.87610  0.80300  Biso   1.000  C
  H53      1.0000 0.02190  0.45250  0.71720  Biso   1.000  H
  H54      1.0000 0.52190  0.04750  0.21720  Biso   1.000  H
  H55      1.0000 0.97810  0.54750  0.28280  Biso   1.000  H
  H56      1.0000 0.47810  0.95250  0.78280  Biso   1.000  H
  H57      1.0000 0.12250  0.36940  0.71490  Biso   1.000  H
  H58      1.0000 0.62250  0.13060  0.21490  Biso   1.000  H
  H59      1.0000 0.87750  0.63060  0.28510  Biso   1.000  H
  H60      1.0000 0.37750  0.86940  0.78510  Biso   1.000  H
  C25      1.0000 0.98430  0.28070  0.74730  Biso   1.000  C
  C26      1.0000 0.48430  0.21930  0.24730  Biso   1.000  C
  C27      1.0000 0.01570  0.71930  0.25270  Biso   1.000  C
  C28      1.0000 0.51570  0.78070  0.75270  Biso   1.000  C
  H61      1.0000 0.03430  0.23100  0.78450  Biso   1.000  H
  H62      1.0000 0.53430  0.26900  0.28450  Biso   1.000  H
  H63      1.0000 0.96570  0.76900  0.21550  Biso   1.000  H
  H64      1.0000 0.46570  0.73100  0.71550  Biso   1.000  H
  H65      1.0000 0.93580  0.31610  0.79130  Biso   1.000  H
  H66      1.0000 0.43580  0.18390  0.29130  Biso   1.000  H
  H67      1.0000 0.06420  0.68390  0.20870  Biso   1.000  H
  H68      1.0000 0.56420  0.81610  0.70870  Biso   1.000  H
  N49      1.0000 0.92250  0.20990  0.67510  Biso   1.000  N
  N50      1.0000 0.42250  0.29010  0.17510  Biso   1.000  N
  N51      1.0000 0.07750  0.79010  0.32490  Biso   1.000  N
  N52      1.0000 0.57750  0.70990  0.82490  Biso   1.000  N
  H69      1.0000 0.86430  0.17780  0.70220  Biso   1.000  H
  H70      1.0000 0.36430  0.32220  0.20220  Biso   1.000  H
  H71      1.0000 0.13570  0.82220  0.29780  Biso   1.000  H
  H72      1.0000 0.63570  0.67780  0.79780  Biso   1.000  H
  C29      1.0000 0.09600  0.27160  0.55040  Biso   1.000  C
  C30      1.0000 0.59600  0.22840  0.05040  Biso   1.000  C
  C31      1.0000 0.90400  0.72840  0.44960  Biso   1.000  C
  C32      1.0000 0.40400  0.77160  0.94960  Biso   1.000  C
  H73      1.0000 0.16920  0.30040  0.54830  Biso   1.000  H
  H74      1.0000 0.66920  0.19960  0.04830  Biso   1.000  H
  H75      1.0000 0.83080  0.69960  0.45170  Biso   1.000  H
  H76      1.0000 0.33080  0.80040  0.95170  Biso   1.000  H
  H77      1.0000 0.06960  0.25570  0.48450  Biso   1.000  H
  H78      1.0000 0.56960  0.24430  0.98450  Biso   1.000  H
  H79      1.0000 0.93040  0.74430  0.51550  Biso   1.000  H
  H80      1.0000 0.43040  0.75570  0.01550  Biso   1.000  H
  C33      1.0000 0.09690  0.15980  0.60680  Biso   1.000  C
  C34      1.0000 0.59690  0.34020  0.10680  Biso   1.000  C
  C35      1.0000 0.90310  0.84020  0.39320  Biso   1.000  C
  C36      1.0000 0.40310  0.65980  0.89320  Biso   1.000  C
  C37      1.0000 0.04540  0.15300  0.54990  Biso   1.000  C
  C38      1.0000 0.54540  0.34700  0.04990  Biso   1.000  C
  C39      1.0000 0.95460  0.84700  0.45010  Biso   1.000  C
  C40      1.0000 0.45460  0.65300  0.95010  Biso   1.000  C
  C41      1.0000 0.98820  0.11670  0.63390  Biso   1.000  C
  C42      1.0000 0.48820  0.38330  0.13390  Biso   1.000  C
  C43      1.0000 0.01180  0.88330  0.36610  Biso   1.000  C
  C44      1.0000 0.51180  0.61670  0.86610  Biso   1.000  C
  H81      1.0000 0.94990  0.08500  0.57700  Biso   1.000  H
  H82      1.0000 0.44990  0.41500  0.07700  Biso   1.000  H
  H83      1.0000 0.05010  0.91500  0.42300  Biso   1.000  H
  H84      1.0000 0.55010  0.58500  0.92300  Biso   1.000  H
  H85      1.0000 0.99800  0.05400  0.68070  Biso   1.000  H
  H86      1.0000 0.49800  0.44600  0.18070  Biso   1.000  H
  H87      1.0000 0.00200  0.94600  0.31930  Biso   1.000  H
  H88      1.0000 0.50200  0.55400  0.81930  Biso   1.000  H
  N53      1.0000 0.86380  0.40060  0.44020  Biso   1.000  N
  N54      1.0000 0.36380  0.09940  0.94020  Biso   1.000  N
  N55      1.0000 0.13620  0.59940  0.55980  Biso   1.000  N
  N56      1.0000 0.63620  0.90060  0.05980  Biso   1.000  N
  N57      1.0000 0.77660  0.42140  0.40280  Biso   1.000  N
  N58      1.0000 0.27660  0.07860  0.90280  Biso   1.000  N
  N59      1.0000 0.22340  0.57860  0.59720  Biso   1.000  N
  N60      1.0000 0.72340  0.92140  0.09720  Biso   1.000  N
  N61      1.0000 0.69530  0.44060  0.36360  Biso   1.000  N
  N62      1.0000 0.19530  0.05940  0.86360  Biso   1.000  N
  N63      1.0000 0.30470  0.55940  0.63640  Biso   1.000  N
  N64      1.0000 0.80470  0.94060  0.13640  Biso   1.000  N
