data_image0
_cell_length_a       15.2378
_cell_length_b       35.525
_cell_length_c       16.7521
_cell_angle_alpha    90
_cell_angle_beta     95.389
_cell_angle_gamma    90

_symmetry_space_group_name_H-M    "P 1"
_symmetry_int_tables_number       1

loop_
  _symmetry_equiv_pos_as_xyz
  'x, y, z'

loop_
  _atom_site_label
  _atom_site_occupancy
  _atom_site_fract_x
  _atom_site_fract_y
  _atom_site_fract_z
  _atom_site_thermal_displace_type
  _atom_site_B_iso_or_equiv
  _atom_site_type_symbol
  Cu1      1.0000 0.42002  0.12056  0.65441  Biso   1.000  Cu
  Cu2      1.0000 0.57998  0.62056  0.34559  Biso   1.000  Cu
  Cu3      1.0000 0.17395  0.11437  0.47586  Biso   1.000  Cu
  Cu4      1.0000 0.82605  0.61437  0.52414  Biso   1.000  Cu
  Cu5      1.0000 0.27017  0.08832  0.76801  Biso   1.000  Cu
  Cu6      1.0000 0.72983  0.58832  0.23199  Biso   1.000  Cu
  Cu7      1.0000 0.06406  0.09837  0.72798  Biso   1.000  Cu
  Cu8      1.0000 0.93594  0.59837  0.27202  Biso   1.000  Cu
  Cu9      1.0000 0.17772  0.06245  0.01176  Biso   1.000  Cu
  Cu10     1.0000 0.82228  0.56245  0.98824  Biso   1.000  Cu
  Cu11     1.0000 0.93253  0.04062  0.81806  Biso   1.000  Cu
  Cu12     1.0000 0.06747  0.54062  0.18194  Biso   1.000  Cu
  Cu13     1.0000 0.35987  0.83913  0.19952  Biso   1.000  Cu
  Cu14     1.0000 0.64013  0.33913  0.80048  Biso   1.000  Cu
  O1       1.0000 0.49300  0.15150  0.56780  Biso   1.000  O
  O2       1.0000 0.50700  0.65150  0.43220  Biso   1.000  O
  O3       1.0000 0.30830  0.12940  0.44400  Biso   1.000  O
  O4       1.0000 0.69170  0.62940  0.55600  Biso   1.000  O
  O5       1.0000 0.04910  0.03520  0.04450  Biso   1.000  O
  O6       1.0000 0.95090  0.53520  0.95550  Biso   1.000  O
  O7       1.0000 0.84180  0.00960  0.88990  Biso   1.000  O
  O8       1.0000 0.15820  0.50960  0.11010  Biso   1.000  O
  P1       1.0000 0.29749  0.06031  0.59213  Biso   1.000  P
  P2       1.0000 0.70251  0.56031  0.40787  Biso   1.000  P
  O9       1.0000 0.37890  0.08330  0.57180  Biso   1.000  O
  O10      1.0000 0.62110  0.58330  0.42820  Biso   1.000  O
  O11      1.0000 0.21430  0.07530  0.55100  Biso   1.000  O
  O12      1.0000 0.78570  0.57530  0.44900  Biso   1.000  O
  O13      1.0000 0.29790  0.05440  0.68150  Biso   1.000  O
  O14      1.0000 0.70210  0.55440  0.31850  Biso   1.000  O
  O15      1.0000 0.30160  0.01984  0.55180  Biso   1.000  O
  O16      1.0000 0.69840  0.51984  0.44820  Biso   1.000  O
  P3       1.0000 0.21718  0.15122  0.64074  Biso   1.000  P
  P4       1.0000 0.78282  0.65122  0.35926  Biso   1.000  P
  O17      1.0000 0.31750  0.15210  0.63450  Biso   1.000  O
  O18      1.0000 0.68250  0.65210  0.36550  Biso   1.000  O
  O19      1.0000 0.16380  0.14999  0.56010  Biso   1.000  O
  O20      1.0000 0.83620  0.64999  0.43990  Biso   1.000  O
  O21      1.0000 0.19210  0.12230  0.70160  Biso   1.000  O
  O22      1.0000 0.80790  0.62230  0.29840  Biso   1.000  O
  O23      1.0000 0.18860  0.18861  0.68450  Biso   1.000  O
  O24      1.0000 0.81140  0.68861  0.31550  Biso   1.000  O
  P5       1.0000 0.13362  0.02546  0.83681  Biso   1.000  P
  P6       1.0000 0.86638  0.52546  0.16319  Biso   1.000  P
  O25      1.0000 0.13930  0.06160  0.78740  Biso   1.000  O
  O26      1.0000 0.86070  0.56160  0.21260  Biso   1.000  O
  O27      1.0000 0.18110  0.02882  0.92000  Biso   1.000  O
  O28      1.0000 0.81890  0.52882  0.08000  Biso   1.000  O
  O29      1.0000 0.04240  0.01020  0.83540  Biso   1.000  O
  O30      1.0000 0.95760  0.51020  0.16460  Biso   1.000  O
  O31      1.0000 0.18840  0.99622  0.78940  Biso   1.000  O
  O32      1.0000 0.81160  0.49622  0.21060  Biso   1.000  O
  P7       1.0000 0.97178  0.60886  0.09301  Biso   1.000  P
  P8       1.0000 0.02822  0.10886  0.90699  Biso   1.000  P
  O33      1.0000 0.96120  0.62457  0.17570  Biso   1.000  O
  O34      1.0000 0.03880  0.12457  0.82430  Biso   1.000  O
  O35      1.0000 0.88700  0.60470  0.03970  Biso   1.000  O
  O36      1.0000 0.11300  0.10470  0.96030  Biso   1.000  O
  O37      1.0000 0.02910  0.57430  0.09480  Biso   1.000  O
  O38      1.0000 0.97090  0.07430  0.90520  Biso   1.000  O
  O39      1.0000 0.03070  0.63940  0.04960  Biso   1.000  O
  O40      1.0000 0.96930  0.13940  0.95040  Biso   1.000  O
  N1       1.0000 0.45889  0.14895  0.75460  Biso   1.000  N
  N2       1.0000 0.54111  0.64895  0.24540  Biso   1.000  N
  N3       1.0000 0.51880  0.08517  0.70060  Biso   1.000  N
  N4       1.0000 0.48120  0.58517  0.29940  Biso   1.000  N
  C1       1.0000 0.42808  0.18175  0.78237  Biso   1.000  C
  C2       1.0000 0.57192  0.68175  0.21763  Biso   1.000  C
  H1       1.0000 0.38450  0.19480  0.74890  Biso   1.000  H
  H2       1.0000 0.61550  0.69480  0.25110  Biso   1.000  H
  C3       1.0000 0.45550  0.19750  0.85590  Biso   1.000  C
  C4       1.0000 0.54450  0.69750  0.14410  Biso   1.000  C
  H3       1.0000 0.42850  0.21990  0.87280  Biso   1.000  H
  H4       1.0000 0.57150  0.71990  0.12720  Biso   1.000  H
  C5       1.0000 0.52370  0.18030  0.90570  Biso   1.000  C
  C6       1.0000 0.47630  0.68030  0.09430  Biso   1.000  C
  H5       1.0000 0.54490  0.19130  0.95550  Biso   1.000  H
  H6       1.0000 0.45510  0.69130  0.04450  Biso   1.000  H
  C7       1.0000 0.56090  0.14530  0.87880  Biso   1.000  C
  C8       1.0000 0.43910  0.64530  0.12120  Biso   1.000  C
  C9       1.0000 0.62730  0.12270  0.92220  Biso   1.000  C
  C10      1.0000 0.37270  0.62270  0.07780  Biso   1.000  C
  H7       1.0000 0.65150  0.13080  0.97370  Biso   1.000  H
  H8       1.0000 0.34850  0.63080  0.02630  Biso   1.000  H
  C11      1.0000 0.65660  0.09020  0.89190  Biso   1.000  C
  C12      1.0000 0.34340  0.59020  0.10810  Biso   1.000  C
  H9       1.0000 0.70050  0.07590  0.92230  Biso   1.000  H
  H10      1.0000 0.29950  0.57590  0.07770  Biso   1.000  H
  C13      1.0000 0.62310  0.07780  0.81770  Biso   1.000  C
  C14      1.0000 0.37690  0.57780  0.18230  Biso   1.000  C
  C15      1.0000 0.64870  0.04390  0.78910  Biso   1.000  C
  C16      1.0000 0.35130  0.54390  0.21090  Biso   1.000  C
  H11      1.0000 0.69240  0.02960  0.81970  Biso   1.000  H
  H12      1.0000 0.30760  0.52960  0.18030  Biso   1.000  H
  C17      1.0000 0.61010  0.02950  0.71230  Biso   1.000  C
  C18      1.0000 0.38990  0.52950  0.28770  Biso   1.000  C
  H13      1.0000 0.62800  0.00630  0.69060  Biso   1.000  H
  H14      1.0000 0.37200  0.50630  0.30940  Biso   1.000  H
  C19      1.0000 0.54240  0.05300  0.67160  Biso   1.000  C
  C20      1.0000 0.45760  0.55300  0.32840  Biso   1.000  C
  H15      1.0000 0.51410  0.04470  0.62170  Biso   1.000  H
  H16      1.0000 0.48590  0.54470  0.37830  Biso   1.000  H
  C21      1.0000 0.55590  0.09730  0.77470  Biso   1.000  C
  C22      1.0000 0.44410  0.59730  0.22530  Biso   1.000  C
  C23      1.0000 0.52330  0.13210  0.80160  Biso   1.000  C
  C24      1.0000 0.47670  0.63210  0.19840  Biso   1.000  C
  N5       1.0000 0.09793  0.14701  0.40162  Biso   1.000  N
  N6       1.0000 0.90207  0.64701  0.59838  Biso   1.000  N
  N7       1.0000 0.15294  0.07667  0.38551  Biso   1.000  N
  N8       1.0000 0.84706  0.57667  0.61449  Biso   1.000  N
  C25      1.0000 0.07071  0.18182  0.40959  Biso   1.000  C
  C26      1.0000 0.92929  0.68182  0.59041  Biso   1.000  C
  H17      1.0000 0.09440  0.19580  0.45500  Biso   1.000  H
  H18      1.0000 0.90560  0.69580  0.54500  Biso   1.000  H
  C27      1.0000 0.01050  0.19900  0.35640  Biso   1.000  C
  C28      1.0000 0.98950  0.69900  0.64360  Biso   1.000  C
  H19      1.0000 0.99030  0.22370  0.36700  Biso   1.000  H
  H20      1.0000 0.00970  0.72370  0.63300  Biso   1.000  H
  C29      1.0000 0.97890  0.18070  0.28730  Biso   1.000  C
  C30      1.0000 0.02110  0.68070  0.71270  Biso   1.000  C
  H21      1.0000 0.94160  0.19360  0.24760  Biso   1.000  H
  H22      1.0000 0.05840  0.69360  0.75240  Biso   1.000  H
  C31      1.0000 0.00150  0.14360  0.27600  Biso   1.000  C
  C32      1.0000 0.99850  0.64360  0.72400  Biso   1.000  C
  C33      1.0000 0.97360  0.12020  0.20650  Biso   1.000  C
  C34      1.0000 0.02640  0.62020  0.79350  Biso   1.000  C
  H23      1.0000 0.93370  0.13030  0.16500  Biso   1.000  H
  H24      1.0000 0.06630  0.63030  0.83500  Biso   1.000  H
  C35      1.0000 0.00160  0.08610  0.20010  Biso   1.000  C
  C36      1.0000 0.99840  0.58610  0.79990  Biso   1.000  C
  H25      1.0000 0.97830  0.07170  0.15520  Biso   1.000  H
  H26      1.0000 0.02170  0.57170  0.84480  Biso   1.000  H
  C37      1.0000 0.06560  0.06850  0.25630  Biso   1.000  C
  C38      1.0000 0.93440  0.56850  0.74370  Biso   1.000  C
  C39      1.0000 0.10050  0.03270  0.25190  Biso   1.000  C
  C40      1.0000 0.89950  0.53270  0.74810  Biso   1.000  C
  H27      1.0000 0.08510  0.01790  0.20550  Biso   1.000  H
  H28      1.0000 0.91490  0.51790  0.79450  Biso   1.000  H
  C41      1.0000 0.15530  0.01840  0.31100  Biso   1.000  C
  C42      1.0000 0.84470  0.51840  0.68900  Biso   1.000  C
  H29      1.0000 0.17590  0.99320  0.30840  Biso   1.000  H
  H30      1.0000 0.82410  0.49320  0.69160  Biso   1.000  H
  C43      1.0000 0.18280  0.04230  0.37940  Biso   1.000  C
  C44      1.0000 0.81720  0.54230  0.62060  Biso   1.000  C
  H31      1.0000 0.22350  0.03270  0.42090  Biso   1.000  H
  H32      1.0000 0.77650  0.53270  0.57910  Biso   1.000  H
  C45      1.0000 0.09370  0.09000  0.32450  Biso   1.000  C
  C46      1.0000 0.90630  0.59000  0.67550  Biso   1.000  C
  C47      1.0000 0.06400  0.12670  0.33430  Biso   1.000  C
  C48      1.0000 0.93600  0.62670  0.66570  Biso   1.000  C
  N9       1.0000 0.27981  0.12542  0.85820  Biso   1.000  N
  N10      1.0000 0.72019  0.62542  0.14180  Biso   1.000  N
  N11      1.0000 0.35918  0.06104  0.84209  Biso   1.000  N
  N12      1.0000 0.64082  0.56104  0.15791  Biso   1.000  N
  C49      1.0000 0.23886  0.15864  0.86651  Biso   1.000  C
  C50      1.0000 0.76114  0.65864  0.13349  Biso   1.000  C
  H33      1.0000 0.20050  0.16730  0.82240  Biso   1.000  H
  H34      1.0000 0.79950  0.66730  0.17760  Biso   1.000  H
  C51      1.0000 0.24850  0.18110  0.93470  Biso   1.000  C
  C52      1.0000 0.75150  0.68110  0.06530  Biso   1.000  C
  H35      1.0000 0.21250  0.20280  0.93860  Biso   1.000  H
  H36      1.0000 0.78750  0.70280  0.06140  Biso   1.000  H
  C53      1.0000 0.30700  0.17250  0.99290  Biso   1.000  C
  C54      1.0000 0.69300  0.67250  0.00710  Biso   1.000  C
  H37      1.0000 0.31870  0.18910  0.03700  Biso   1.000  H
  H38      1.0000 0.68130  0.68910  0.96300  Biso   1.000  H
  C55      1.0000 0.35430  0.13730  0.99060  Biso   1.000  C
  C56      1.0000 0.64570  0.63730  0.00940  Biso   1.000  C
  C57      1.0000 0.42160  0.12510  0.05070  Biso   1.000  C
  C58      1.0000 0.57840  0.62510  0.94930  Biso   1.000  C
  H39      1.0000 0.43620  0.13990  0.09730  Biso   1.000  H
  H40      1.0000 0.56380  0.63990  0.90270  Biso   1.000  H
  C59      1.0000 0.46530  0.09140  0.03990  Biso   1.000  C
  C60      1.0000 0.53470  0.59140  0.96010  Biso   1.000  C
  H41      1.0000 0.50990  0.08320  0.07950  Biso   1.000  H
  H42      1.0000 0.49010  0.58320  0.92050  Biso   1.000  H
  C61      1.0000 0.44470  0.06970  0.97230  Biso   1.000  C
  C62      1.0000 0.55530  0.56970  0.02770  Biso   1.000  C
  C63      1.0000 0.48670  0.03350  0.95610  Biso   1.000  C
  C64      1.0000 0.51330  0.53350  0.04390  Biso   1.000  C
  H43      1.0000 0.53070  0.02370  0.99450  Biso   1.000  H
  H44      1.0000 0.46930  0.52370  0.00550  Biso   1.000  H
  C65      1.0000 0.46430  0.01360  0.88770  Biso   1.000  C
  C66      1.0000 0.53570  0.51360  0.11230  Biso   1.000  C
  H45      1.0000 0.49240  0.99040  0.87780  Biso   1.000  H
  H46      1.0000 0.50760  0.49040  0.12220  Biso   1.000  H
  C67      1.0000 0.39680  0.02880  0.83110  Biso   1.000  C
  C68      1.0000 0.60320  0.52880  0.16890  Biso   1.000  C
  H47      1.0000 0.37910  0.01490  0.78400  Biso   1.000  H
  H48      1.0000 0.62090  0.51490  0.21600  Biso   1.000  H
  C69      1.0000 0.38110  0.08120  0.91170  Biso   1.000  C
  C70      1.0000 0.61890  0.58120  0.08830  Biso   1.000  C
  C71      1.0000 0.33660  0.11530  0.92040  Biso   1.000  C
  C72      1.0000 0.66340  0.61530  0.07960  Biso   1.000  C
  N13      1.0000 0.99679  0.13623  0.66161  Biso   1.000  N
  N14      1.0000 0.00321  0.63623  0.33839  Biso   1.000  N
  N15      1.0000 0.03940  0.06690  0.62874  Biso   1.000  N
  N16      1.0000 0.96060  0.56690  0.37126  Biso   1.000  N
  C73      1.0000 0.97466  0.17223  0.67868  Biso   1.000  C
  C74      1.0000 0.02534  0.67223  0.32132  Biso   1.000  C
  H49      1.0000 0.99250  0.18190  0.73050  Biso   1.000  H
  H50      1.0000 0.00750  0.68190  0.26950  Biso   1.000  H
  C75      1.0000 0.92690  0.19550  0.62330  Biso   1.000  C
  C76      1.0000 0.07310  0.69550  0.37670  Biso   1.000  C
  H51      1.0000 0.91540  0.22090  0.63720  Biso   1.000  H
  H52      1.0000 0.08460  0.72090  0.36280  Biso   1.000  H
  C77      1.0000 0.89620  0.18200  0.54840  Biso   1.000  C
  C78      1.0000 0.10380  0.68200  0.45160  Biso   1.000  C
  H53      1.0000 0.86250  0.19760  0.51110  Biso   1.000  H
  H54      1.0000 0.13750  0.69760  0.48890  Biso   1.000  H
  C79      1.0000 0.91630  0.14410  0.52860  Biso   1.000  C
  C80      1.0000 0.08370  0.64410  0.47140  Biso   1.000  C
  C81      1.0000 0.88870  0.12690  0.45240  Biso   1.000  C
  C82      1.0000 0.11130  0.62690  0.54760  Biso   1.000  C
  H55      1.0000 0.85430  0.14110  0.41280  Biso   1.000  H
  H56      1.0000 0.14570  0.64110  0.58720  Biso   1.000  H
  C83      1.0000 0.91190  0.08870  0.43500  Biso   1.000  C
  C84      1.0000 0.08810  0.58870  0.56500  Biso   1.000  C
  H57      1.0000 0.89190  0.07710  0.38560  Biso   1.000  H
  H58      1.0000 0.10810  0.57710  0.61440  Biso   1.000  H
  C85      1.0000 0.96500  0.06970  0.49400  Biso   1.000  C
  C86      1.0000 0.03500  0.56970  0.50600  Biso   1.000  C
  C87      1.0000 0.99580  0.03140  0.48250  Biso   1.000  C
  C88      1.0000 0.00420  0.53140  0.51750  Biso   1.000  C
  H59      1.0000 0.97980  0.01880  0.43310  Biso   1.000  H
  H60      1.0000 0.02020  0.51880  0.56690  Biso   1.000  H
  C89      1.0000 0.04690  0.01330  0.54140  Biso   1.000  C
  C90      1.0000 0.95310  0.51330  0.45860  Biso   1.000  C
  H61      1.0000 0.06740  0.98850  0.53290  Biso   1.000  H
  H62      1.0000 0.93260  0.48850  0.46710  Biso   1.000  H
  C91      1.0000 0.06990  0.03200  0.61730  Biso   1.000  C
  C92      1.0000 0.93010  0.53200  0.38270  Biso   1.000  C
  H63      1.0000 0.10610  0.01970  0.65860  Biso   1.000  H
  H64      1.0000 0.89390  0.51970  0.34140  Biso   1.000  H
  C93      1.0000 0.99020  0.08490  0.56880  Biso   1.000  C
  C94      1.0000 0.00980  0.58490  0.43120  Biso   1.000  C
  C95      1.0000 0.96470  0.12160  0.58690  Biso   1.000  C
  C96      1.0000 0.03530  0.62160  0.41310  Biso   1.000  C
  N17      1.0000 0.20575  0.09558  0.10661  Biso   1.000  N
  N18      1.0000 0.79425  0.59558  0.89339  Biso   1.000  N
  N19      1.0000 0.27466  0.03091  0.06799  Biso   1.000  N
  N20      1.0000 0.72534  0.53091  0.93201  Biso   1.000  N
  C97      1.0000 0.17120  0.12800  0.12597  Biso   1.000  C
  C98      1.0000 0.82880  0.62800  0.87403  Biso   1.000  C
  H65      1.0000 0.12220  0.13740  0.09250  Biso   1.000  H
  H66      1.0000 0.87780  0.63740  0.90750  Biso   1.000  H
  C99      1.0000 0.20300  0.14980  0.19410  Biso   1.000  C
  C100     1.0000 0.79700  0.64980  0.80590  Biso   1.000  C
  H67      1.0000 0.18020  0.17430  0.20230  Biso   1.000  H
  H68      1.0000 0.81980  0.67430  0.79770  Biso   1.000  H
  C101     1.0000 0.26520  0.13510  0.24580  Biso   1.000  C
  C102     1.0000 0.73480  0.63510  0.75420  Biso   1.000  C
  H69      1.0000 0.28400  0.14870  0.29320  Biso   1.000  H
  H70      1.0000 0.71600  0.64870  0.70680  Biso   1.000  H
  C103     1.0000 0.30460  0.09940  0.23240  Biso   1.000  C
  C104     1.0000 0.69540  0.59940  0.76760  Biso   1.000  C
  C105     1.0000 0.37790  0.08150  0.28160  Biso   1.000  C
  C106     1.0000 0.62210  0.58150  0.71840  Biso   1.000  C
  H71      1.0000 0.40060  0.09310  0.33030  Biso   1.000  H
  H72      1.0000 0.59940  0.59310  0.66970  Biso   1.000  H
  C107     1.0000 0.41250  0.05000  0.25960  Biso   1.000  C
  C108     1.0000 0.58750  0.55000  0.74040  Biso   1.000  C
  H73      1.0000 0.45930  0.03910  0.29340  Biso   1.000  H
  H74      1.0000 0.54070  0.53910  0.70660  Biso   1.000  H
  C109     1.0000 0.38230  0.03110  0.18610  Biso   1.000  C
  C110     1.0000 0.61770  0.53110  0.81390  Biso   1.000  C
  C111     1.0000 0.41770  0.99750  0.15580  Biso   1.000  C
  C112     1.0000 0.58230  0.49750  0.84420  Biso   1.000  C
  H75      1.0000 0.46640  0.98530  0.18440  Biso   1.000  H
  H76      1.0000 0.53360  0.48530  0.81560  Biso   1.000  H
  C113     1.0000 0.38200  0.98370  0.08780  Biso   1.000  C
  C114     1.0000 0.61800  0.48370  0.91220  Biso   1.000  C
  H77      1.0000 0.40550  0.96110  0.06840  Biso   1.000  H
  H78      1.0000 0.59450  0.46110  0.93160  Biso   1.000  H
  C115     1.0000 0.31200  0.00040  0.04300  Biso   1.000  C
  C116     1.0000 0.68800  0.50040  0.95700  Biso   1.000  C
  H79      1.0000 0.29060  0.98960  0.99300  Biso   1.000  H
  H80      1.0000 0.70940  0.48960  0.00700  Biso   1.000  H
  C117     1.0000 0.31000  0.04660  0.13990  Biso   1.000  C
  C118     1.0000 0.69000  0.54660  0.86010  Biso   1.000  C
  C119     1.0000 0.26960  0.08120  0.16210  Biso   1.000  C
  C120     1.0000 0.73040  0.58120  0.83790  Biso   1.000  C
  N21      1.0000 0.85112  0.07818  0.75927  Biso   1.000  N
  N22      1.0000 0.14888  0.57818  0.24073  Biso   1.000  N
  N23      1.0000 0.89392  0.00991  0.72076  Biso   1.000  N
  N24      1.0000 0.10608  0.50991  0.27924  Biso   1.000  N
  C121     1.0000 0.83170  0.10916  0.77674  Biso   1.000  C
  C122     1.0000 0.16830  0.60916  0.22326  Biso   1.000  C
  H81      1.0000 0.85410  0.11910  0.82720  Biso   1.000  H
  H82      1.0000 0.14590  0.61910  0.17280  Biso   1.000  H
  C123     1.0000 0.77170  0.13330  0.72030  Biso   1.000  C
  C124     1.0000 0.22830  0.63330  0.27970  Biso   1.000  C
  H83      1.0000 0.75760  0.15820  0.73530  Biso   1.000  H
  H84      1.0000 0.24240  0.65820  0.26470  Biso   1.000  H
  C125     1.0000 0.74140  0.12080  0.65540  Biso   1.000  C
  C126     1.0000 0.25860  0.62080  0.34460  Biso   1.000  C
  H85      1.0000 0.70270  0.13600  0.62140  Biso   1.000  H
  H86      1.0000 0.29730  0.63600  0.37860  Biso   1.000  H
  C127     1.0000 0.76090  0.08670  0.63150  Biso   1.000  C
  C128     1.0000 0.23910  0.58670  0.36850  Biso   1.000  C
  C129     1.0000 0.73750  0.06330  0.54710  Biso   1.000  C
  C130     1.0000 0.26250  0.56330  0.45290  Biso   1.000  C
  H87      1.0000 0.70900  0.07640  0.50250  Biso   1.000  H
  H88      1.0000 0.29100  0.57640  0.49750  Biso   1.000  H
  C131     1.0000 0.75300  0.03380  0.53970  Biso   1.000  C
  C132     1.0000 0.24700  0.53380  0.46030  Biso   1.000  C
  H89      1.0000 0.72940  0.01990  0.49420  Biso   1.000  H
  H90      1.0000 0.27060  0.51990  0.50580  Biso   1.000  H
  C133     1.0000 0.83150  0.97870  0.57760  Biso   1.000  C
  C134     1.0000 0.16850  0.47870  0.42240  Biso   1.000  C
  H91      1.0000 0.81020  0.96750  0.52810  Biso   1.000  H
  H92      1.0000 0.18980  0.46750  0.47190  Biso   1.000  H
  C135     1.0000 0.80490  0.01850  0.59570  Biso   1.000  C
  C136     1.0000 0.19510  0.51850  0.40430  Biso   1.000  C
  C137     1.0000 0.88680  0.95840  0.63220  Biso   1.000  C
  C138     1.0000 0.11320  0.45840  0.36780  Biso   1.000  C
  H93      1.0000 0.90530  0.93340  0.62220  Biso   1.000  H
  H94      1.0000 0.09470  0.43340  0.37780  Biso   1.000  H
  C139     1.0000 0.91390  0.97860  0.70610  Biso   1.000  C
  C140     1.0000 0.08610  0.47860  0.29390  Biso   1.000  C
  H95      1.0000 0.95070  0.96560  0.74590  Biso   1.000  H
  H96      1.0000 0.04930  0.46560  0.25410  Biso   1.000  H
  C141     1.0000 0.83540  0.02850  0.66710  Biso   1.000  C
  C142     1.0000 0.16460  0.52850  0.33290  Biso   1.000  C
  C143     1.0000 0.81710  0.06630  0.68840  Biso   1.000  C
  C144     1.0000 0.18290  0.56630  0.31160  Biso   1.000  C
  N25      1.0000 0.34982  0.91558  0.38111  Biso   1.000  N
  N26      1.0000 0.65018  0.41558  0.61889  Biso   1.000  N
  C145     1.0000 0.34163  0.88575  0.33000  Biso   1.000  C
  C146     1.0000 0.65837  0.38575  0.67000  Biso   1.000  C
  O41      1.0000 0.28540  0.86156  0.33620  Biso   1.000  O
  O42      1.0000 0.71460  0.36156  0.66380  Biso   1.000  O
  N27      1.0000 0.39780  0.88352  0.27170  Biso   1.000  N
  N28      1.0000 0.60220  0.38352  0.72830  Biso   1.000  N
  C147     1.0000 0.45820  0.90884  0.26380  Biso   1.000  C
  C148     1.0000 0.54180  0.40884  0.73620  Biso   1.000  C
  N29      1.0000 0.50990  0.90565  0.20780  Biso   1.000  N
  N30      1.0000 0.49010  0.40565  0.79220  Biso   1.000  N
  H97      1.0000 0.50460  0.88630  0.17480  Biso   1.000  H
  H98      1.0000 0.49540  0.38630  0.82520  Biso   1.000  H
  H99      1.0000 0.55070  0.92280  0.20250  Biso   1.000  H
  H100     1.0000 0.44930  0.42280  0.79750  Biso   1.000  H
  C149     1.0000 0.46730  0.94077  0.31820  Biso   1.000  C
  C150     1.0000 0.53270  0.44077  0.68180  Biso   1.000  C
  H101     1.0000 0.51120  0.95930  0.31260  Biso   1.000  H
  H102     1.0000 0.48880  0.45930  0.68740  Biso   1.000  H
  C151     1.0000 0.41440  0.94366  0.37470  Biso   1.000  C
  C152     1.0000 0.58560  0.44366  0.62530  Biso   1.000  C
  H103     1.0000 0.41920  0.96430  0.41090  Biso   1.000  H
  H104     1.0000 0.58080  0.46430  0.58910  Biso   1.000  H
  O43      1.0000 0.28130  0.95430  0.47500  Biso   1.000  O
  O44      1.0000 0.71870  0.45430  0.52500  Biso   1.000  O
  C153     1.0000 0.28684  0.91749  0.44532  Biso   1.000  C
  C154     1.0000 0.71316  0.41749  0.55468  Biso   1.000  C
  H105     1.0000 0.22700  0.91010  0.42060  Biso   1.000  H
  H106     1.0000 0.77300  0.41010  0.57940  Biso   1.000  H
  C155     1.0000 0.31030  0.89250  0.51310  Biso   1.000  C
  C156     1.0000 0.68970  0.39250  0.48690  Biso   1.000  C
  H107     1.0000 0.34700  0.87120  0.49570  Biso   1.000  H
  H108     1.0000 0.65300  0.37120  0.50430  Biso   1.000  H
  O45      1.0000 0.23760  0.87790  0.55220  Biso   1.000  O
  O46      1.0000 0.76240  0.37790  0.44780  Biso   1.000  O
  H109     1.0000 0.22210  0.89390  0.58510  Biso   1.000  H
  H110     1.0000 0.77790  0.39390  0.41490  Biso   1.000  H
  C157     1.0000 0.36760  0.91860  0.57070  Biso   1.000  C
  C158     1.0000 0.63240  0.41860  0.42930  Biso   1.000  C
  H111     1.0000 0.42650  0.92320  0.55090  Biso   1.000  H
  H112     1.0000 0.57350  0.42320  0.44910  Biso   1.000  H
  O47      1.0000 0.37620  0.90620  0.65360  Biso   1.000  O
  O48      1.0000 0.62380  0.40620  0.34640  Biso   1.000  O
  H113     1.0000 0.39290  0.92430  0.68350  Biso   1.000  H
  H114     1.0000 0.60710  0.42430  0.31650  Biso   1.000  H
  C159     1.0000 0.30990  0.95400  0.56320  Biso   1.000  C
  C160     1.0000 0.69010  0.45400  0.43680  Biso   1.000  C
  H115     1.0000 0.25830  0.95180  0.59570  Biso   1.000  H
  H116     1.0000 0.74170  0.45180  0.40430  Biso   1.000  H
  C161     1.0000 0.36150  0.98990  0.58250  Biso   1.000  C
  C162     1.0000 0.63850  0.48990  0.41750  Biso   1.000  C
  H117     1.0000 0.37640  0.99260  0.64110  Biso   1.000  H
  H118     1.0000 0.62360  0.49260  0.35890  Biso   1.000  H
  H119     1.0000 0.41660  0.99030  0.55560  Biso   1.000  H
  H120     1.0000 0.58340  0.49030  0.44440  Biso   1.000  H
  N31      1.0000 0.41338  0.28375  0.72830  Biso   1.000  N
  N32      1.0000 0.58662  0.78375  0.27170  Biso   1.000  N
  C163     1.0000 0.47790  0.30626  0.76233  Biso   1.000  C
  C164     1.0000 0.52210  0.80626  0.23767  Biso   1.000  C
  O49      1.0000 0.46820  0.32673  0.81830  Biso   1.000  O
  O50      1.0000 0.53180  0.82673  0.18170  Biso   1.000  O
  N33      1.0000 0.55750  0.30569  0.73170  Biso   1.000  N
  N34      1.0000 0.44250  0.80569  0.26830  Biso   1.000  N
  C165     1.0000 0.57330  0.28340  0.66890  Biso   1.000  C
  C166     1.0000 0.42670  0.78340  0.33110  Biso   1.000  C
  N35      1.0000 0.64910  0.28349  0.64140  Biso   1.000  N
  N36      1.0000 0.35090  0.78349  0.35860  Biso   1.000  N
  H121     1.0000 0.69140  0.29810  0.66330  Biso   1.000  H
  H122     1.0000 0.30860  0.79810  0.33670  Biso   1.000  H
  H123     1.0000 0.65880  0.26900  0.60060  Biso   1.000  H
  H124     1.0000 0.34120  0.76900  0.39940  Biso   1.000  H
  C167     1.0000 0.50180  0.25980  0.63460  Biso   1.000  C
  C168     1.0000 0.49820  0.75980  0.36540  Biso   1.000  C
  H125     1.0000 0.51000  0.24380  0.59060  Biso   1.000  H
  H126     1.0000 0.49000  0.74380  0.40940  Biso   1.000  H
  C169     1.0000 0.42800  0.26078  0.66410  Biso   1.000  C
  C170     1.0000 0.57200  0.76078  0.33590  Biso   1.000  C
  H127     1.0000 0.38140  0.24530  0.64140  Biso   1.000  H
  H128     1.0000 0.61860  0.74530  0.35860  Biso   1.000  H
  O51      1.0000 0.28370  0.25020  0.74720  Biso   1.000  O
  O52      1.0000 0.71630  0.75020  0.25280  Biso   1.000  O
  C171     1.0000 0.32919  0.28497  0.76223  Biso   1.000  C
  C172     1.0000 0.67081  0.78497  0.23777  Biso   1.000  C
  H129     1.0000 0.34000  0.28870  0.82150  Biso   1.000  H
  H130     1.0000 0.66000  0.78870  0.17850  Biso   1.000  H
  C173     1.0000 0.26210  0.31710  0.72550  Biso   1.000  C
  C174     1.0000 0.73790  0.81710  0.27450  Biso   1.000  C
  H131     1.0000 0.29510  0.33840  0.70330  Biso   1.000  H
  H132     1.0000 0.70490  0.83840  0.29670  Biso   1.000  H
  O53      1.0000 0.20910  0.32970  0.78070  Biso   1.000  O
  O54      1.0000 0.79090  0.82970  0.21930  Biso   1.000  O
  H133     1.0000 0.15850  0.32050  0.77110  Biso   1.000  H
  H134     1.0000 0.84150  0.82050  0.22890  Biso   1.000  H
  C175     1.0000 0.20900  0.29510  0.65720  Biso   1.000  C
  C176     1.0000 0.79100  0.79510  0.34280  Biso   1.000  C
  H135     1.0000 0.24670  0.29200  0.61190  Biso   1.000  H
  H136     1.0000 0.75330  0.79200  0.38810  Biso   1.000  H
  O55      1.0000 0.12940  0.31190  0.62750  Biso   1.000  O
  O56      1.0000 0.87060  0.81190  0.37250  Biso   1.000  O
  H137     1.0000 0.10380  0.32060  0.66580  Biso   1.000  H
  H138     1.0000 0.89620  0.82060  0.33420  Biso   1.000  H
  C177     1.0000 0.19930  0.25600  0.69760  Biso   1.000  C
  C178     1.0000 0.80070  0.75600  0.30240  Biso   1.000  C
  H139     1.0000 0.14880  0.25610  0.73170  Biso   1.000  H
  H140     1.0000 0.85120  0.75610  0.26830  Biso   1.000  H
  C179     1.0000 0.18960  0.22400  0.63610  Biso   1.000  C
  C180     1.0000 0.81040  0.72400  0.36390  Biso   1.000  C
  H141     1.0000 0.13420  0.22670  0.60080  Biso   1.000  H
  H142     1.0000 0.86580  0.72670  0.39920  Biso   1.000  H
  H143     1.0000 0.23980  0.22390  0.60260  Biso   1.000  H
  H144     1.0000 0.76020  0.72390  0.39740  Biso   1.000  H
  N37      1.0000 0.28697  0.90455  0.99951  Biso   1.000  N
  N38      1.0000 0.71303  0.40455  0.00049  Biso   1.000  N
  C181     1.0000 0.32726  0.88061  0.06171  Biso   1.000  C
  C182     1.0000 0.67274  0.38061  0.93829  Biso   1.000  C
  O57      1.0000 0.40070  0.86742  0.05170  Biso   1.000  O
  O58      1.0000 0.59930  0.36742  0.94830  Biso   1.000  O
  N39      1.0000 0.28310  0.87364  0.12810  Biso   1.000  N
  N40      1.0000 0.71690  0.37364  0.87190  Biso   1.000  N
  C183     1.0000 0.20320  0.88887  0.13530  Biso   1.000  C
  C184     1.0000 0.79680  0.38887  0.86470  Biso   1.000  C
  N41      1.0000 0.16600  0.88088  0.19990  Biso   1.000  N
  N42      1.0000 0.83400  0.38088  0.80010  Biso   1.000  N
  H145     1.0000 0.19290  0.86610  0.23650  Biso   1.000  H
  H146     1.0000 0.80710  0.36610  0.76350  Biso   1.000  H
  H147     1.0000 0.11380  0.89030  0.20690  Biso   1.000  H
  H148     1.0000 0.88620  0.39030  0.79310  Biso   1.000  H
  C185     1.0000 0.16600  0.91167  0.07510  Biso   1.000  C
  C186     1.0000 0.83400  0.41167  0.92490  Biso   1.000  C
  H149     1.0000 0.10970  0.92220  0.08090  Biso   1.000  H
  H150     1.0000 0.89030  0.42220  0.91910  Biso   1.000  H
  C187     1.0000 0.20510  0.91995  0.00770  Biso   1.000  C
  C188     1.0000 0.79490  0.41995  0.99230  Biso   1.000  C
  H151     1.0000 0.17710  0.93590  0.96750  Biso   1.000  H
  H152     1.0000 0.82290  0.43590  0.03250  Biso   1.000  H
  O59      1.0000 0.29770  0.94460  0.89190  Biso   1.000  O
  O60      1.0000 0.70230  0.44460  0.10810  Biso   1.000  O
  C189     1.0000 0.33586  0.91133  0.92980  Biso   1.000  C
  C190     1.0000 0.66414  0.41133  0.07020  Biso   1.000  C
  H153     1.0000 0.39990  0.91520  0.94660  Biso   1.000  H
  H154     1.0000 0.60010  0.41520  0.05340  Biso   1.000  H
  C191     1.0000 0.32260  0.87960  0.86720  Biso   1.000  C
  C192     1.0000 0.67740  0.37960  0.13280  Biso   1.000  C
  H155     1.0000 0.31070  0.85490  0.89270  Biso   1.000  H
  H156     1.0000 0.68930  0.35490  0.10730  Biso   1.000  H
  O61      1.0000 0.40100  0.87810  0.82510  Biso   1.000  O
  O62      1.0000 0.59900  0.37810  0.17490  Biso   1.000  O
  H157     1.0000 0.42360  0.85650  0.83030  Biso   1.000  H
  H158     1.0000 0.57640  0.35650  0.16970  Biso   1.000  H
  C193     1.0000 0.24540  0.89230  0.81130  Biso   1.000  C
  C194     1.0000 0.75460  0.39230  0.18870  Biso   1.000  C
  H159     1.0000 0.18970  0.88640  0.83570  Biso   1.000  H
  H160     1.0000 0.81030  0.38640  0.16430  Biso   1.000  H
  O63      1.0000 0.24020  0.87760  0.73370  Biso   1.000  O
  O64      1.0000 0.75980  0.37760  0.26630  Biso   1.000  O
  H161     1.0000 0.28560  0.86490  0.72790  Biso   1.000  H
  H162     1.0000 0.71440  0.36490  0.27210  Biso   1.000  H
  C195     1.0000 0.26020  0.93540  0.81350  Biso   1.000  C
  C196     1.0000 0.73980  0.43540  0.18650  Biso   1.000  C
  H163     1.0000 0.30160  0.94270  0.77320  Biso   1.000  H
  H164     1.0000 0.69840  0.44270  0.22680  Biso   1.000  H
  C197     1.0000 0.17150  0.95690  0.79630  Biso   1.000  C
  C198     1.0000 0.82850  0.45690  0.20370  Biso   1.000  C
  H165     1.0000 0.13980  0.94750  0.74590  Biso   1.000  H
  H166     1.0000 0.86020  0.44750  0.25410  Biso   1.000  H
  H167     1.0000 0.13380  0.95240  0.84040  Biso   1.000  H
  H168     1.0000 0.86620  0.45240  0.15960  Biso   1.000  H
  N43      1.0000 0.19714  0.75152  0.12797  Biso   1.000  N
  N44      1.0000 0.80286  0.25152  0.87203  Biso   1.000  N
  C199     1.0000 0.24154  0.78208  0.16264  Biso   1.000  C
  C200     1.0000 0.75846  0.28208  0.83736  Biso   1.000  C
  O65      1.0000 0.21300  0.79874  0.21720  Biso   1.000  O
  O66      1.0000 0.78700  0.29874  0.78280  Biso   1.000  O
  N45      1.0000 0.31870  0.79324  0.13410  Biso   1.000  N
  N46      1.0000 0.68130  0.29324  0.86590  Biso   1.000  N
  C201     1.0000 0.34930  0.77505  0.07500  Biso   1.000  C
  C202     1.0000 0.65070  0.27505  0.92500  Biso   1.000  C
  N47      1.0000 0.42630  0.78713  0.04850  Biso   1.000  N
  N48      1.0000 0.57370  0.28713  0.95150  Biso   1.000  N
  H169     1.0000 0.45390  0.80670  0.07120  Biso   1.000  H
  H170     1.0000 0.54610  0.30670  0.92880  Biso   1.000  H
  H171     1.0000 0.44840  0.77540  0.00870  Biso   1.000  H
  H172     1.0000 0.55160  0.27540  0.99130  Biso   1.000  H
  C203     1.0000 0.30660  0.74350  0.03700  Biso   1.000  C
  C204     1.0000 0.69340  0.24350  0.96300  Biso   1.000  C
  H173     1.0000 0.33020  0.73070  0.99410  Biso   1.000  H
  H174     1.0000 0.66980  0.23070  0.00590  Biso   1.000  H
  C205     1.0000 0.23060  0.73261  0.06530  Biso   1.000  C
  C206     1.0000 0.76940  0.23261  0.93470  Biso   1.000  C
  H175     1.0000 0.19950  0.71160  0.04180  Biso   1.000  H
  H176     1.0000 0.80050  0.21160  0.95820  Biso   1.000  H
  O67      1.0000 0.09790  0.70240  0.14210  Biso   1.000  O
  O68      1.0000 0.90210  0.20240  0.85790  Biso   1.000  O
  C207     1.0000 0.11732  0.74063  0.15885  Biso   1.000  C
  C208     1.0000 0.88268  0.24063  0.84115  Biso   1.000  C
  H177     1.0000 0.12790  0.74270  0.21850  Biso   1.000  H
  H178     1.0000 0.87210  0.24270  0.78150  Biso   1.000  H
  C209     1.0000 0.04860  0.76180  0.13750  Biso   1.000  C
  C210     1.0000 0.95140  0.26180  0.86250  Biso   1.000  C
  H179     1.0000 0.06530  0.78820  0.12540  Biso   1.000  H
  H180     1.0000 0.93470  0.28820  0.87460  Biso   1.000  H
  O69      1.0000 0.98210  0.75980  0.19840  Biso   1.000  O
  O70      1.0000 0.01790  0.25980  0.80160  Biso   1.000  O
  H181     1.0000 0.98440  0.73850  0.22030  Biso   1.000  H
  H182     1.0000 0.01560  0.23850  0.77970  Biso   1.000  H
  C211     1.0000 0.00330  0.74140  0.06360  Biso   1.000  C
  C212     1.0000 0.99670  0.24140  0.93640  Biso   1.000  C
  H183     1.0000 0.03990  0.74380  0.01740  Biso   1.000  H
  H184     1.0000 0.96010  0.24380  0.98260  Biso   1.000  H
  O71      1.0000 0.92310  0.74780  0.04070  Biso   1.000  O
  O72      1.0000 0.07690  0.24780  0.95930  Biso   1.000  O
  C213     1.0000 0.01130  0.70100  0.09880  Biso   1.000  C
  C214     1.0000 0.98870  0.20100  0.90120  Biso   1.000  C
  H185     1.0000 0.96420  0.69540  0.13490  Biso   1.000  H
  H186     1.0000 0.03580  0.19540  0.86510  Biso   1.000  H
  C215     1.0000 0.00700  0.67470  0.02670  Biso   1.000  C
  C216     1.0000 0.99300  0.17470  0.97330  Biso   1.000  C
  H187     1.0000 0.94560  0.67440  0.00030  Biso   1.000  H
  H188     1.0000 0.05440  0.17440  0.99970  Biso   1.000  H
  H189     1.0000 0.04600  0.68410  0.98740  Biso   1.000  H
  H190     1.0000 0.95400  0.18410  0.01260  Biso   1.000  H
  N49      1.0000 0.67249  0.20358  0.52672  Biso   1.000  N
  N50      1.0000 0.32751  0.70358  0.47328  Biso   1.000  N
  O73      1.0000 0.64020  0.19910  0.59250  Biso   1.000  O
  O74      1.0000 0.35980  0.69910  0.40750  Biso   1.000  O
  O75      1.0000 0.67880  0.17480  0.48010  Biso   1.000  O
  O76      1.0000 0.32120  0.67480  0.51990  Biso   1.000  O
  O77      1.0000 0.70030  0.23680  0.50340  Biso   1.000  O
  O78      1.0000 0.29970  0.73680  0.49660  Biso   1.000  O
  N51      1.0000 0.53151  0.84528  0.45972  Biso   1.000  N
  N52      1.0000 0.46849  0.34528  0.54028  Biso   1.000  N
  O79      1.0000 0.55970  0.82120  0.51030  Biso   1.000  O
  O80      1.0000 0.44030  0.32120  0.48970  Biso   1.000  O
  O81      1.0000 0.52223  0.87772  0.45675  Biso   1.000  O
  O82      1.0000 0.47777  0.37772  0.54325  Biso   1.000  O
  O83      1.0000 0.60210  0.84520  0.40680  Biso   1.000  O
  O84      1.0000 0.39790  0.34520  0.59320  Biso   1.000  O
  N53      1.0000 0.38508  0.25767  0.05408  Biso   1.000  N
  N54      1.0000 0.61492  0.75767  0.94592  Biso   1.000  N
  O85      1.0000 0.45110  0.24137  0.04168  Biso   1.000  O
  O86      1.0000 0.54890  0.74137  0.95832  Biso   1.000  O
  O87      1.0000 0.30790  0.25700  0.05646  Biso   1.000  O
  O88      1.0000 0.69210  0.75700  0.94354  Biso   1.000  O
  O89      1.0000 0.37180  0.27120  0.96690  Biso   1.000  O
  O90      1.0000 0.62820  0.77120  0.03310  Biso   1.000  O
  C217     1.0000 0.86610  0.26830  0.40900  Biso   1.000  C
  C218     1.0000 0.13390  0.76830  0.59100  Biso   1.000  C
  C219     1.0000 0.80720  0.24640  0.34570  Biso   1.000  C
  C220     1.0000 0.19280  0.74640  0.65430  Biso   1.000  C
  O91      1.0000 0.78220  0.31130  0.51010  Biso   1.000  O
  O92      1.0000 0.21780  0.81130  0.48990  Biso   1.000  O
  C221     1.0000 0.86860  0.29660  0.47950  Biso   1.000  C
  C222     1.0000 0.13140  0.79660  0.52050  Biso   1.000  C
  C223     1.0000 0.74800  0.21250  0.36090  Biso   1.000  C
  C224     1.0000 0.25200  0.71250  0.63910  Biso   1.000  C
  O93      1.0000 0.77000  0.18760  0.31900  Biso   1.000  O
  O94      1.0000 0.23000  0.68760  0.68100  Biso   1.000  O
  O95      1.0000 0.66730  0.23040  0.32800  Biso   1.000  O
  O96      1.0000 0.33270  0.73040  0.67200  Biso   1.000  O
  N55      1.0000 0.83600  0.23720  0.26230  Biso   1.000  N
  N56      1.0000 0.16400  0.73720  0.73770  Biso   1.000  N
  O97      1.0000 0.90380  0.27840  0.53690  Biso   1.000  O
  O98      1.0000 0.09620  0.77840  0.46310  Biso   1.000  O
  O99      1.0000 0.03570  0.84170  0.03260  Biso   1.000  O
  O100     1.0000 0.96430  0.34170  0.96740  Biso   1.000  O
  O101     1.0000 0.16710  0.81860  0.99360  Biso   1.000  O
  O102     1.0000 0.83290  0.31860  0.00640  Biso   1.000  O
  C225     1.0000 0.08490  0.83920  0.98090  Biso   1.000  C
  C226     1.0000 0.91510  0.33920  0.01910  Biso   1.000  C
  C227     1.0000 0.07330  0.85590  0.90810  Biso   1.000  C
  C228     1.0000 0.92670  0.35590  0.09190  Biso   1.000  C
  C229     1.0000 0.94310  0.89520  0.83460  Biso   1.000  C
  C230     1.0000 0.05690  0.39520  0.16540  Biso   1.000  C
  C231     1.0000 0.03960  0.88310  0.85820  Biso   1.000  C
  C232     1.0000 0.96040  0.38310  0.14180  Biso   1.000  C
  O103     1.0000 0.96750  0.92659  0.78180  Biso   1.000  O
  O104     1.0000 0.03250  0.42659  0.21820  Biso   1.000  O
  O105     1.0000 0.90830  0.86880  0.79660  Biso   1.000  O
  O106     1.0000 0.09170  0.36880  0.20340  Biso   1.000  O
  N57      1.0000 0.09460  0.90730  0.81010  Biso   1.000  N
  N58      1.0000 0.90540  0.40730  0.18990  Biso   1.000  N
