data_image0
_cell_length_a       15.3831
_cell_length_b       35.7449
_cell_length_c       16.8107
_cell_angle_alpha    90
_cell_angle_beta     94.964
_cell_angle_gamma    90

_symmetry_space_group_name_H-M    "P 1"
_symmetry_int_tables_number       1

loop_
  _symmetry_equiv_pos_as_xyz
  'x, y, z'

loop_
  _atom_site_label
  _atom_site_occupancy
  _atom_site_fract_x
  _atom_site_fract_y
  _atom_site_fract_z
  _atom_site_thermal_displace_type
  _atom_site_B_iso_or_equiv
  _atom_site_type_symbol
  Cu1      1.0000 0.57702  0.62135  0.34650  Biso   1.000  Cu
  Cu2      1.0000 0.42298  0.12135  0.65350  Biso   1.000  Cu
  Cu3      1.0000 0.82316  0.61503  0.52472  Biso   1.000  Cu
  Cu4      1.0000 0.17684  0.11503  0.47528  Biso   1.000  Cu
  Cu5      1.0000 0.72666  0.58777  0.23273  Biso   1.000  Cu
  Cu6      1.0000 0.27334  0.08777  0.76727  Biso   1.000  Cu
  Cu7      1.0000 0.93224  0.59793  0.27408  Biso   1.000  Cu
  Cu8      1.0000 0.06776  0.09793  0.72592  Biso   1.000  Cu
  Cu9      1.0000 0.82276  0.56175  0.99047  Biso   1.000  Cu
  Cu10     1.0000 0.17724  0.06175  0.00953  Biso   1.000  Cu
  Cu11     1.0000 0.06546  0.53952  0.18718  Biso   1.000  Cu
  Cu12     1.0000 0.93454  0.03952  0.81282  Biso   1.000  Cu
  Cu13     1.0000 0.64212  0.33862  0.80278  Biso   1.000  Cu
  Cu14     1.0000 0.35788  0.83862  0.19722  Biso   1.000  Cu
  O1       1.0000 0.50590  0.65450  0.43170  Biso   1.000  O
  O2       1.0000 0.49410  0.15450  0.56830  Biso   1.000  O
  O3       1.0000 0.68900  0.63083  0.55660  Biso   1.000  O
  O4       1.0000 0.31100  0.13083  0.44340  Biso   1.000  O
  O5       1.0000 0.94810  0.53270  0.95320  Biso   1.000  O
  O6       1.0000 0.05190  0.03270  0.04680  Biso   1.000  O
  O7       1.0000 0.15680  0.50870  0.11680  Biso   1.000  O
  O8       1.0000 0.84320  0.00870  0.88320  Biso   1.000  O
  P1       1.0000 0.69802  0.56093  0.41033  Biso   1.000  P
  P2       1.0000 0.30198  0.06093  0.58967  Biso   1.000  P
  O9       1.0000 0.61710  0.58404  0.42960  Biso   1.000  O
  O10      1.0000 0.38290  0.08404  0.57040  Biso   1.000  O
  O11      1.0000 0.78130  0.57593  0.45100  Biso   1.000  O
  O12      1.0000 0.21870  0.07593  0.54900  Biso   1.000  O
  O13      1.0000 0.70020  0.55494  0.31910  Biso   1.000  O
  O14      1.0000 0.29980  0.05494  0.68090  Biso   1.000  O
  O15      1.0000 0.69030  0.52054  0.45150  Biso   1.000  O
  O16      1.0000 0.30970  0.02054  0.54850  Biso   1.000  O
  P3       1.0000 0.77942  0.65145  0.35899  Biso   1.000  P
  P4       1.0000 0.22058  0.15145  0.64101  Biso   1.000  P
  O17      1.0000 0.68000  0.65267  0.36610  Biso   1.000  O
  O18      1.0000 0.32000  0.15267  0.63390  Biso   1.000  O
  O19      1.0000 0.83380  0.65108  0.43880  Biso   1.000  O
  O20      1.0000 0.16620  0.15108  0.56120  Biso   1.000  O
  O21      1.0000 0.80250  0.62159  0.29900  Biso   1.000  O
  O22      1.0000 0.19750  0.12159  0.70100  Biso   1.000  O
  O23      1.0000 0.80840  0.68952  0.31520  Biso   1.000  O
  O24      1.0000 0.19160  0.18952  0.68480  Biso   1.000  O
  P5       1.0000 0.86448  0.52482  0.16604  Biso   1.000  P
  P6       1.0000 0.13552  0.02482  0.83396  Biso   1.000  P
  O25      1.0000 0.85740  0.56086  0.21390  Biso   1.000  O
  O26      1.0000 0.14260  0.06086  0.78610  Biso   1.000  O
  O27      1.0000 0.81880  0.52804  0.08230  Biso   1.000  O
  O28      1.0000 0.18120  0.02804  0.91770  Biso   1.000  O
  O29      1.0000 0.95620  0.50960  0.17000  Biso   1.000  O
  O30      1.0000 0.04380  0.00960  0.83000  Biso   1.000  O
  O31      1.0000 0.80880  0.49533  0.21320  Biso   1.000  O
  O32      1.0000 0.19120  0.99533  0.78680  Biso   1.000  O
  P7       1.0000 0.02776  0.10779  0.90467  Biso   1.000  P
  P8       1.0000 0.97224  0.60779  0.09533  Biso   1.000  P
  O33      1.0000 0.04150  0.12440  0.82410  Biso   1.000  O
  O34      1.0000 0.95850  0.62440  0.17590  Biso   1.000  O
  O35      1.0000 0.11160  0.10360  0.95900  Biso   1.000  O
  O36      1.0000 0.88840  0.60360  0.04100  Biso   1.000  O
  O37      1.0000 0.97200  0.07250  0.90000  Biso   1.000  O
  O38      1.0000 0.02800  0.57250  0.10000  Biso   1.000  O
  O39      1.0000 0.96670  0.13780  0.94680  Biso   1.000  O
  O40      1.0000 0.03330  0.63780  0.05320  Biso   1.000  O
  N1       1.0000 0.54044  0.64997  0.24516  Biso   1.000  N
  N2       1.0000 0.45956  0.14997  0.75484  Biso   1.000  N
  N3       1.0000 0.48012  0.58580  0.30009  Biso   1.000  N
  N4       1.0000 0.51988  0.08580  0.69991  Biso   1.000  N
  C1       1.0000 0.57075  0.68222  0.21756  Biso   1.000  C
  C2       1.0000 0.42925  0.18222  0.78244  Biso   1.000  C
  H1       1.0000 0.61550  0.69480  0.24950  Biso   1.000  H
  H2       1.0000 0.38450  0.19480  0.75050  Biso   1.000  H
  C3       1.0000 0.54070  0.69840  0.14480  Biso   1.000  C
  C4       1.0000 0.45930  0.19840  0.85520  Biso   1.000  C
  H3       1.0000 0.56460  0.72140  0.12870  Biso   1.000  H
  H4       1.0000 0.43540  0.22140  0.87130  Biso   1.000  H
  C5       1.0000 0.47610  0.68090  0.09660  Biso   1.000  C
  C6       1.0000 0.52390  0.18090  0.90340  Biso   1.000  C
  H5       1.0000 0.45590  0.69180  0.04690  Biso   1.000  H
  H6       1.0000 0.54410  0.19180  0.95310  Biso   1.000  H
  C7       1.0000 0.43950  0.64650  0.12050  Biso   1.000  C
  C8       1.0000 0.56050  0.14650  0.87950  Biso   1.000  C
  C9       1.0000 0.37260  0.62510  0.07920  Biso   1.000  C
  C10      1.0000 0.62740  0.12510  0.92080  Biso   1.000  C
  H7       1.0000 0.34820  0.63370  0.02870  Biso   1.000  H
  H8       1.0000 0.65180  0.13370  0.97130  Biso   1.000  H
  C11      1.0000 0.34130  0.59210  0.10930  Biso   1.000  C
  C12      1.0000 0.65870  0.09210  0.89070  Biso   1.000  C
  H9       1.0000 0.29550  0.57900  0.07960  Biso   1.000  H
  H10      1.0000 0.70450  0.07900  0.92040  Biso   1.000  H
  C13      1.0000 0.37630  0.57750  0.18370  Biso   1.000  C
  C14      1.0000 0.62370  0.07750  0.81630  Biso   1.000  C
  C15      1.0000 0.34950  0.54330  0.21570  Biso   1.000  C
  C16      1.0000 0.65050  0.04330  0.78430  Biso   1.000  C
  H11      1.0000 0.30510  0.52870  0.18780  Biso   1.000  H
  H12      1.0000 0.69490  0.02870  0.81220  Biso   1.000  H
  C17      1.0000 0.38900  0.53130  0.28850  Biso   1.000  C
  C18      1.0000 0.61100  0.03130  0.71150  Biso   1.000  C
  H13      1.0000 0.37330  0.50810  0.31090  Biso   1.000  H
  H14      1.0000 0.62670  0.00810  0.68910  Biso   1.000  H
  C19      1.0000 0.45280  0.55440  0.32810  Biso   1.000  C
  C20      1.0000 0.54720  0.05440  0.67190  Biso   1.000  C
  H15      1.0000 0.47790  0.54640  0.37900  Biso   1.000  H
  H16      1.0000 0.52210  0.04640  0.62100  Biso   1.000  H
  C21      1.0000 0.44210  0.59750  0.22900  Biso   1.000  C
  C22      1.0000 0.55790  0.09750  0.77100  Biso   1.000  C
  C23      1.0000 0.47510  0.63200  0.19890  Biso   1.000  C
  C24      1.0000 0.52490  0.13200  0.80110  Biso   1.000  C
  N5       1.0000 0.90104  0.64731  0.59831  Biso   1.000  N
  N6       1.0000 0.09896  0.14731  0.40169  Biso   1.000  N
  N7       1.0000 0.84566  0.57688  0.61560  Biso   1.000  N
  N8       1.0000 0.15434  0.07688  0.38440  Biso   1.000  N
  C25      1.0000 0.92851  0.68225  0.58973  Biso   1.000  C
  C26      1.0000 0.07149  0.18225  0.41027  Biso   1.000  C
  H17      1.0000 0.90530  0.69610  0.54460  Biso   1.000  H
  H18      1.0000 0.09470  0.19610  0.45540  Biso   1.000  H
  C27      1.0000 0.98930  0.69950  0.64340  Biso   1.000  C
  C28      1.0000 0.01070  0.19950  0.35660  Biso   1.000  C
  H19      1.0000 0.00670  0.72450  0.63400  Biso   1.000  H
  H20      1.0000 0.99330  0.22450  0.36600  Biso   1.000  H
  C29      1.0000 0.02360  0.68140  0.70770  Biso   1.000  C
  C30      1.0000 0.97640  0.18140  0.29230  Biso   1.000  C
  H21      1.0000 0.06470  0.69370  0.74420  Biso   1.000  H
  H22      1.0000 0.93530  0.19370  0.25580  Biso   1.000  H
  C31      1.0000 0.99920  0.64390  0.72230  Biso   1.000  C
  C32      1.0000 0.00080  0.14390  0.27770  Biso   1.000  C
  C33      1.0000 0.02910  0.62100  0.78990  Biso   1.000  C
  C34      1.0000 0.97090  0.12100  0.21010  Biso   1.000  C
  H23      1.0000 0.07190  0.63080  0.82840  Biso   1.000  H
  H24      1.0000 0.92810  0.13080  0.17160  Biso   1.000  H
  C35      1.0000 0.99850  0.58640  0.80050  Biso   1.000  C
  C36      1.0000 0.00150  0.08640  0.19950  Biso   1.000  C
  H25      1.0000 0.01880  0.57240  0.84650  Biso   1.000  H
  H26      1.0000 0.98120  0.07240  0.15350  Biso   1.000  H
  C37      1.0000 0.93370  0.56980  0.74100  Biso   1.000  C
  C38      1.0000 0.06630  0.06980  0.25900  Biso   1.000  C
  C39      1.0000 0.89820  0.53390  0.74720  Biso   1.000  C
  C40      1.0000 0.10180  0.03390  0.25280  Biso   1.000  C
  H27      1.0000 0.91420  0.51940  0.79360  Biso   1.000  H
  H28      1.0000 0.08580  0.01940  0.20640  Biso   1.000  H
  C41      1.0000 0.84110  0.51890  0.68840  Biso   1.000  C
  C42      1.0000 0.15890  0.01890  0.31160  Biso   1.000  C
  H29      1.0000 0.81920  0.49420  0.69120  Biso   1.000  H
  H30      1.0000 0.18080  0.99420  0.30880  Biso   1.000  H
  C43      1.0000 0.81680  0.54320  0.62270  Biso   1.000  C
  C44      1.0000 0.18320  0.04320  0.37730  Biso   1.000  C
  H31      1.0000 0.77660  0.53390  0.58130  Biso   1.000  H
  H32      1.0000 0.22340  0.03390  0.41870  Biso   1.000  H
  C45      1.0000 0.90500  0.59120  0.67650  Biso   1.000  C
  C46      1.0000 0.09500  0.09120  0.32350  Biso   1.000  C
  C47      1.0000 0.93410  0.62820  0.66570  Biso   1.000  C
  C48      1.0000 0.06590  0.12820  0.33430  Biso   1.000  C
  N9       1.0000 0.71922  0.62529  0.14148  Biso   1.000  N
  N10      1.0000 0.28078  0.12529  0.85852  Biso   1.000  N
  N11      1.0000 0.63840  0.56055  0.15878  Biso   1.000  N
  N12      1.0000 0.36160  0.06055  0.84122  Biso   1.000  N
  C49      1.0000 0.75985  0.65783  0.13279  Biso   1.000  C
  C50      1.0000 0.24015  0.15783  0.86721  Biso   1.000  C
  H33      1.0000 0.79930  0.66590  0.17600  Biso   1.000  H
  H34      1.0000 0.20070  0.16590  0.82400  Biso   1.000  H
  C51      1.0000 0.74960  0.68090  0.06640  Biso   1.000  C
  C52      1.0000 0.25040  0.18090  0.93360  Biso   1.000  C
  H35      1.0000 0.78270  0.70320  0.06360  Biso   1.000  H
  H36      1.0000 0.21730  0.20320  0.93640  Biso   1.000  H
  C53      1.0000 0.68880  0.67040  0.00350  Biso   1.000  C
  C54      1.0000 0.31120  0.17040  0.99650  Biso   1.000  C
  H37      1.0000 0.67960  0.68570  0.95740  Biso   1.000  H
  H38      1.0000 0.32040  0.18570  0.04260  Biso   1.000  H
  C55      1.0000 0.64100  0.63650  0.00930  Biso   1.000  C
  C56      1.0000 0.35900  0.13650  0.99070  Biso   1.000  C
  C57      1.0000 0.57460  0.62330  0.95050  Biso   1.000  C
  C58      1.0000 0.42540  0.12330  0.04950  Biso   1.000  C
  H39      1.0000 0.56050  0.63770  0.90370  Biso   1.000  H
  H40      1.0000 0.43950  0.13770  0.09630  Biso   1.000  H
  C59      1.0000 0.53290  0.59170  0.96030  Biso   1.000  C
  C60      1.0000 0.46710  0.09170  0.03970  Biso   1.000  C
  H41      1.0000 0.48890  0.58420  0.92040  Biso   1.000  H
  H42      1.0000 0.51110  0.08420  0.07960  Biso   1.000  H
  C61      1.0000 0.55150  0.56760  0.02990  Biso   1.000  C
  C62      1.0000 0.44850  0.06760  0.97010  Biso   1.000  C
  C63      1.0000 0.50760  0.53350  0.04580  Biso   1.000  C
  C64      1.0000 0.49240  0.03350  0.95420  Biso   1.000  C
  H43      1.0000 0.46130  0.52490  0.00940  Biso   1.000  H
  H44      1.0000 0.53870  0.02490  0.99060  Biso   1.000  H
  C65      1.0000 0.53240  0.51280  0.11460  Biso   1.000  C
  C66      1.0000 0.46760  0.01280  0.88540  Biso   1.000  C
  H45      1.0000 0.50600  0.48940  0.12470  Biso   1.000  H
  H46      1.0000 0.49400  0.98940  0.87530  Biso   1.000  H
  C67      1.0000 0.59990  0.52850  0.16960  Biso   1.000  C
  C68      1.0000 0.40010  0.02850  0.83040  Biso   1.000  C
  H47      1.0000 0.61750  0.51470  0.21660  Biso   1.000  H
  H48      1.0000 0.38250  0.01470  0.78340  Biso   1.000  H
  C69      1.0000 0.61360  0.58070  0.09100  Biso   1.000  C
  C70      1.0000 0.38640  0.08070  0.90900  Biso   1.000  C
  C71      1.0000 0.65990  0.61500  0.07920  Biso   1.000  C
  C72      1.0000 0.34010  0.11500  0.92080  Biso   1.000  C
  N13      1.0000 0.00163  0.63591  0.33879  Biso   1.000  N
  N14      1.0000 0.99837  0.13591  0.66121  Biso   1.000  N
  N15      1.0000 0.95710  0.56606  0.37320  Biso   1.000  N
  N16      1.0000 0.04290  0.06606  0.62680  Biso   1.000  N
  C73      1.0000 0.02457  0.67190  0.32106  Biso   1.000  C
  C74      1.0000 0.97543  0.17190  0.67894  Biso   1.000  C
  H49      1.0000 0.00870  0.68120  0.26890  Biso   1.000  H
  H50      1.0000 0.99130  0.18120  0.73110  Biso   1.000  H
  C75      1.0000 0.07030  0.69540  0.37650  Biso   1.000  C
  C76      1.0000 0.92970  0.19540  0.62350  Biso   1.000  C
  H51      1.0000 0.08110  0.72080  0.36410  Biso   1.000  H
  H52      1.0000 0.91890  0.22080  0.63590  Biso   1.000  H
  C77      1.0000 0.10020  0.68010  0.45200  Biso   1.000  C
  C78      1.0000 0.89980  0.18010  0.54800  Biso   1.000  C
  H53      1.0000 0.13290  0.69540  0.49000  Biso   1.000  H
  H54      1.0000 0.86710  0.19540  0.51000  Biso   1.000  H
  C79      1.0000 0.08270  0.64360  0.47120  Biso   1.000  C
  C80      1.0000 0.91730  0.14360  0.52880  Biso   1.000  C
  C81      1.0000 0.10760  0.62590  0.54970  Biso   1.000  C
  C82      1.0000 0.89240  0.12590  0.45030  Biso   1.000  C
  H55      1.0000 0.13910  0.63990  0.59050  Biso   1.000  H
  H56      1.0000 0.86090  0.13990  0.40950  Biso   1.000  H
  C83      1.0000 0.08610  0.58990  0.56390  Biso   1.000  C
  C84      1.0000 0.91390  0.08990  0.43610  Biso   1.000  C
  H57      1.0000 0.10800  0.57850  0.61260  Biso   1.000  H
  H58      1.0000 0.89200  0.07850  0.38740  Biso   1.000  H
  C85      1.0000 0.03160  0.56880  0.50790  Biso   1.000  C
  C86      1.0000 0.96840  0.06880  0.49210  Biso   1.000  C
  C87      1.0000 0.00360  0.53140  0.52050  Biso   1.000  C
  C88      1.0000 0.99640  0.03140  0.47950  Biso   1.000  C
  H59      1.0000 0.02150  0.51900  0.56920  Biso   1.000  H
  H60      1.0000 0.97850  0.01900  0.43080  Biso   1.000  H
  C89      1.0000 0.95010  0.51270  0.46180  Biso   1.000  C
  C90      1.0000 0.04990  0.01270  0.53820  Biso   1.000  C
  H61      1.0000 0.93170  0.48780  0.47040  Biso   1.000  H
  H62      1.0000 0.06830  0.98780  0.52960  Biso   1.000  H
  C91      1.0000 0.92310  0.53170  0.38790  Biso   1.000  C
  C92      1.0000 0.07690  0.03170  0.61210  Biso   1.000  C
  H63      1.0000 0.88200  0.52040  0.34980  Biso   1.000  H
  H64      1.0000 0.11800  0.02040  0.65020  Biso   1.000  H
  C93      1.0000 0.00660  0.58440  0.43180  Biso   1.000  C
  C94      1.0000 0.99340  0.08440  0.56820  Biso   1.000  C
  C95      1.0000 0.03240  0.62130  0.41460  Biso   1.000  C
  C96      1.0000 0.96760  0.12130  0.58540  Biso   1.000  C
  N17      1.0000 0.79409  0.59475  0.89541  Biso   1.000  N
  N18      1.0000 0.20591  0.09475  0.10459  Biso   1.000  N
  N19      1.0000 0.72583  0.53095  0.93369  Biso   1.000  N
  N20      1.0000 0.27417  0.03095  0.06631  Biso   1.000  N
  C97      1.0000 0.82975  0.62808  0.87541  Biso   1.000  C
  C98      1.0000 0.17025  0.12808  0.12459  Biso   1.000  C
  H65      1.0000 0.87890  0.63730  0.90770  Biso   1.000  H
  H66      1.0000 0.12110  0.13730  0.09230  Biso   1.000  H
  C99      1.0000 0.79700  0.64930  0.80940  Biso   1.000  C
  C100     1.0000 0.20300  0.14930  0.19060  Biso   1.000  C
  H67      1.0000 0.81910  0.67370  0.80180  Biso   1.000  H
  H68      1.0000 0.18090  0.17370  0.19820  Biso   1.000  H
  C101     1.0000 0.73380  0.63520  0.75610  Biso   1.000  C
  C102     1.0000 0.26620  0.13520  0.24390  Biso   1.000  C
  H69      1.0000 0.71550  0.64880  0.70910  Biso   1.000  H
  H70      1.0000 0.28450  0.14880  0.29090  Biso   1.000  H
  C103     1.0000 0.69660  0.60120  0.77030  Biso   1.000  C
  C104     1.0000 0.30340  0.10120  0.22970  Biso   1.000  C
  C105     1.0000 0.62170  0.58430  0.72170  Biso   1.000  C
  C106     1.0000 0.37830  0.08430  0.27830  Biso   1.000  C
  H71      1.0000 0.59820  0.59670  0.67470  Biso   1.000  H
  H72      1.0000 0.40180  0.09670  0.32530  Biso   1.000  H
  C107     1.0000 0.58610  0.55160  0.74290  Biso   1.000  C
  C108     1.0000 0.41390  0.05160  0.25710  Biso   1.000  C
  H73      1.0000 0.53880  0.54140  0.70990  Biso   1.000  H
  H74      1.0000 0.46120  0.04140  0.29010  Biso   1.000  H
  C109     1.0000 0.61900  0.53130  0.81650  Biso   1.000  C
  C110     1.0000 0.38100  0.03130  0.18350  Biso   1.000  C
  C111     1.0000 0.58190  0.49840  0.84740  Biso   1.000  C
  C112     1.0000 0.41810  0.99840  0.15260  Biso   1.000  C
  H75      1.0000 0.53280  0.48700  0.81890  Biso   1.000  H
  H76      1.0000 0.46720  0.98700  0.18110  Biso   1.000  H
  C113     1.0000 0.61580  0.48310  0.91690  Biso   1.000  C
  C114     1.0000 0.38420  0.98310  0.08310  Biso   1.000  C
  H77      1.0000 0.59170  0.46070  0.93630  Biso   1.000  H
  H78      1.0000 0.40830  0.96070  0.06370  Biso   1.000  H
  C115     1.0000 0.68600  0.50020  0.95980  Biso   1.000  C
  C116     1.0000 0.31400  0.00020  0.04020  Biso   1.000  C
  H79      1.0000 0.70700  0.48990  0.00980  Biso   1.000  H
  H80      1.0000 0.29300  0.98990  0.99020  Biso   1.000  H
  C117     1.0000 0.69000  0.54650  0.86290  Biso   1.000  C
  C118     1.0000 0.31000  0.04650  0.13710  Biso   1.000  C
  C119     1.0000 0.72940  0.58130  0.84160  Biso   1.000  C
  C120     1.0000 0.27060  0.08130  0.15840  Biso   1.000  C
  N21      1.0000 0.14844  0.57813  0.24285  Biso   1.000  N
  N22      1.0000 0.85156  0.07813  0.75715  Biso   1.000  N
  N23      1.0000 0.10456  0.50816  0.28435  Biso   1.000  N
  N24      1.0000 0.89544  0.00816  0.71565  Biso   1.000  N
  C121     1.0000 0.16739  0.60834  0.22493  Biso   1.000  C
  C122     1.0000 0.83261  0.10834  0.77507  Biso   1.000  C
  H81      1.0000 0.14500  0.61430  0.17200  Biso   1.000  H
  H82      1.0000 0.85500  0.11430  0.82800  Biso   1.000  H
  C123     1.0000 0.22000  0.64150  0.26550  Biso   1.000  C
  C124     1.0000 0.78000  0.14150  0.73450  Biso   1.000  C
  H83      1.0000 0.22800  0.66640  0.24790  Biso   1.000  H
  H84      1.0000 0.77200  0.16640  0.75210  Biso   1.000  H
  C125     1.0000 0.24960  0.62460  0.33090  Biso   1.000  C
  C126     1.0000 0.75040  0.12460  0.66910  Biso   1.000  C
  H85      1.0000 0.28910  0.64130  0.35910  Biso   1.000  H
  H86      1.0000 0.71090  0.14130  0.64090  Biso   1.000  H
  C127     1.0000 0.24700  0.58520  0.38640  Biso   1.000  C
  C128     1.0000 0.75300  0.08520  0.61360  Biso   1.000  C
  C129     1.0000 0.26580  0.55930  0.45390  Biso   1.000  C
  C130     1.0000 0.73420  0.05930  0.54610  Biso   1.000  C
  H87      1.0000 0.30580  0.56920  0.49480  Biso   1.000  H
  H88      1.0000 0.69420  0.06920  0.50520  Biso   1.000  H
  C131     1.0000 0.24510  0.53330  0.46590  Biso   1.000  C
  C132     1.0000 0.75490  0.03330  0.53410  Biso   1.000  C
  H89      1.0000 0.26440  0.52320  0.51670  Biso   1.000  H
  H90      1.0000 0.73560  0.02320  0.48330  Biso   1.000  H
  C133     1.0000 0.18880  0.50950  0.41320  Biso   1.000  C
  C134     1.0000 0.81120  0.00950  0.58680  Biso   1.000  C
  C135     1.0000 0.16660  0.47920  0.42660  Biso   1.000  C
  C136     1.0000 0.83340  0.97920  0.57340  Biso   1.000  C
  H91      1.0000 0.18610  0.46900  0.47720  Biso   1.000  H
  H92      1.0000 0.81390  0.96900  0.52280  Biso   1.000  H
  C137     1.0000 0.10870  0.45440  0.36980  Biso   1.000  C
  C138     1.0000 0.89130  0.95440  0.63020  Biso   1.000  C
  H93      1.0000 0.09250  0.42920  0.37900  Biso   1.000  H
  H94      1.0000 0.90750  0.92920  0.62100  Biso   1.000  H
  C139     1.0000 0.08370  0.47630  0.30050  Biso   1.000  C
  C140     1.0000 0.91630  0.97630  0.69950  Biso   1.000  C
  H95      1.0000 0.04520  0.46430  0.26120  Biso   1.000  H
  H96      1.0000 0.95480  0.96430  0.73880  Biso   1.000  H
  C141     1.0000 0.15910  0.52580  0.34220  Biso   1.000  C
  C142     1.0000 0.84090  0.02580  0.65780  Biso   1.000  C
  C143     1.0000 0.17680  0.56600  0.31050  Biso   1.000  C
  C144     1.0000 0.82320  0.06600  0.68950  Biso   1.000  C
  N25      1.0000 0.64844  0.41656  0.62192  Biso   1.000  N
  N26      1.0000 0.35156  0.91656  0.37808  Biso   1.000  N
  C145     1.0000 0.65934  0.38644  0.67263  Biso   1.000  C
  C146     1.0000 0.34066  0.88644  0.32737  Biso   1.000  C
  O41      1.0000 0.71720  0.36252  0.66570  Biso   1.000  O
  O42      1.0000 0.28280  0.86252  0.33430  Biso   1.000  O
  N27      1.0000 0.60230  0.38324  0.73390  Biso   1.000  N
  N28      1.0000 0.39770  0.88324  0.26610  Biso   1.000  N
  C147     1.0000 0.54120  0.40963  0.73890  Biso   1.000  C
  C148     1.0000 0.45880  0.90963  0.26110  Biso   1.000  C
  N29      1.0000 0.48900  0.40479  0.79880  Biso   1.000  N
  N30      1.0000 0.51100  0.90479  0.20120  Biso   1.000  N
  H97      1.0000 0.49670  0.38540  0.83080  Biso   1.000  H
  H98      1.0000 0.50330  0.88540  0.16920  Biso   1.000  H
  H99      1.0000 0.44740  0.42100  0.80570  Biso   1.000  H
  H100     1.0000 0.55260  0.92100  0.19430  Biso   1.000  H
  C149     1.0000 0.52940  0.44054  0.68740  Biso   1.000  C
  C150     1.0000 0.47060  0.94054  0.31260  Biso   1.000  C
  H101     1.0000 0.48510  0.45860  0.69340  Biso   1.000  H
  H102     1.0000 0.51490  0.95860  0.30660  Biso   1.000  H
  C151     1.0000 0.58610  0.44349  0.62710  Biso   1.000  C
  C152     1.0000 0.41390  0.94349  0.37290  Biso   1.000  C
  H103     1.0000 0.58130  0.46380  0.59040  Biso   1.000  H
  H104     1.0000 0.41870  0.96380  0.40960  Biso   1.000  H
  O43      1.0000 0.71360  0.45447  0.52630  Biso   1.000  O
  O44      1.0000 0.28640  0.95447  0.47370  Biso   1.000  O
  C153     1.0000 0.71303  0.41779  0.55746  Biso   1.000  C
  C154     1.0000 0.28697  0.91779  0.44254  Biso   1.000  C
  H105     1.0000 0.77280  0.41080  0.58100  Biso   1.000  H
  H106     1.0000 0.22720  0.91080  0.41900  Biso   1.000  H
  C155     1.0000 0.68380  0.39110  0.48740  Biso   1.000  C
  C156     1.0000 0.31620  0.89110  0.51260  Biso   1.000  C
  H107     1.0000 0.64630  0.37040  0.50540  Biso   1.000  H
  H108     1.0000 0.35370  0.87040  0.49460  Biso   1.000  H
  O45      1.0000 0.75660  0.37680  0.45140  Biso   1.000  O
  O46      1.0000 0.24340  0.87680  0.54860  Biso   1.000  O
  H109     1.0000 0.74750  0.37840  0.40150  Biso   1.000  H
  H110     1.0000 0.25250  0.87840  0.59850  Biso   1.000  H
  C157     1.0000 0.63060  0.41830  0.43210  Biso   1.000  C
  C158     1.0000 0.36940  0.91830  0.56790  Biso   1.000  C
  H111     1.0000 0.57220  0.42260  0.45240  Biso   1.000  H
  H112     1.0000 0.42780  0.92260  0.54760  Biso   1.000  H
  O47      1.0000 0.61950  0.40610  0.34970  Biso   1.000  O
  O48      1.0000 0.38050  0.90610  0.65030  Biso   1.000  O
  H113     1.0000 0.66720  0.39820  0.33580  Biso   1.000  H
  H114     1.0000 0.33280  0.89820  0.66420  Biso   1.000  H
  C159     1.0000 0.68470  0.45450  0.43990  Biso   1.000  C
  C160     1.0000 0.31530  0.95450  0.56010  Biso   1.000  C
  H115     1.0000 0.73580  0.45320  0.40710  Biso   1.000  H
  H116     1.0000 0.26420  0.95320  0.59290  Biso   1.000  H
  C161     1.0000 0.63190  0.49030  0.42150  Biso   1.000  C
  C162     1.0000 0.36810  0.99030  0.57850  Biso   1.000  C
  H117     1.0000 0.61650  0.49290  0.36330  Biso   1.000  H
  H118     1.0000 0.38350  0.99290  0.63670  Biso   1.000  H
  H119     1.0000 0.57760  0.49020  0.44910  Biso   1.000  H
  H120     1.0000 0.42240  0.99020  0.55090  Biso   1.000  H
  N31      1.0000 0.58564  0.78411  0.27262  Biso   1.000  N
  N32      1.0000 0.41436  0.28411  0.72738  Biso   1.000  N
  C163     1.0000 0.51790  0.80613  0.23794  Biso   1.000  C
  C164     1.0000 0.48210  0.30613  0.76206  Biso   1.000  C
  O49      1.0000 0.53120  0.82592  0.17950  Biso   1.000  O
  O50      1.0000 0.46880  0.32592  0.82050  Biso   1.000  O
  N33      1.0000 0.43880  0.80519  0.26950  Biso   1.000  N
  N34      1.0000 0.56120  0.30519  0.73050  Biso   1.000  N
  C165     1.0000 0.42330  0.78436  0.33140  Biso   1.000  C
  C166     1.0000 0.57670  0.28436  0.66860  Biso   1.000  C
  N35      1.0000 0.34350  0.78423  0.36100  Biso   1.000  N
  N36      1.0000 0.65650  0.28423  0.63900  Biso   1.000  N
  H121     1.0000 0.30110  0.79820  0.33870  Biso   1.000  H
  H122     1.0000 0.69890  0.29820  0.66130  Biso   1.000  H
  H123     1.0000 0.33440  0.77010  0.40240  Biso   1.000  H
  H124     1.0000 0.66560  0.27010  0.59760  Biso   1.000  H
  C167     1.0000 0.49410  0.76138  0.36760  Biso   1.000  C
  C168     1.0000 0.50590  0.26138  0.63240  Biso   1.000  C
  H125     1.0000 0.48490  0.74610  0.41230  Biso   1.000  H
  H126     1.0000 0.51510  0.24610  0.58770  Biso   1.000  H
  C169     1.0000 0.56860  0.76166  0.33960  Biso   1.000  C
  C170     1.0000 0.43140  0.26166  0.66040  Biso   1.000  C
  H127     1.0000 0.61410  0.74650  0.36400  Biso   1.000  H
  H128     1.0000 0.38590  0.24650  0.63600  Biso   1.000  H
  O51      1.0000 0.71260  0.75031  0.25390  Biso   1.000  O
  O52      1.0000 0.28740  0.25031  0.74610  Biso   1.000  O
  C171     1.0000 0.66844  0.78537  0.23888  Biso   1.000  C
  C172     1.0000 0.33156  0.28537  0.76112  Biso   1.000  C
  H129     1.0000 0.65830  0.78930  0.17990  Biso   1.000  H
  H130     1.0000 0.34170  0.28930  0.82010  Biso   1.000  H
  C173     1.0000 0.73180  0.81710  0.27610  Biso   1.000  C
  C174     1.0000 0.26820  0.31710  0.72390  Biso   1.000  C
  H131     1.0000 0.69960  0.83850  0.29810  Biso   1.000  H
  H132     1.0000 0.30040  0.33850  0.70190  Biso   1.000  H
  O53      1.0000 0.78880  0.82870  0.21590  Biso   1.000  O
  O54      1.0000 0.21120  0.32870  0.78410  Biso   1.000  O
  H133     1.0000 0.82230  0.84570  0.23470  Biso   1.000  H
  H134     1.0000 0.17770  0.34570  0.76530  Biso   1.000  H
  C175     1.0000 0.78730  0.79470  0.34210  Biso   1.000  C
  C176     1.0000 0.21270  0.29470  0.65790  Biso   1.000  C
  H135     1.0000 0.75300  0.79170  0.38960  Biso   1.000  H
  H136     1.0000 0.24700  0.29170  0.61040  Biso   1.000  H
  O55      1.0000 0.86830  0.81100  0.36640  Biso   1.000  O
  O56      1.0000 0.13170  0.31100  0.63360  Biso   1.000  O
  H137     1.0000 0.89490  0.79770  0.40170  Biso   1.000  H
  H138     1.0000 0.10510  0.29770  0.59830  Biso   1.000  H
  C177     1.0000 0.79710  0.75640  0.30230  Biso   1.000  C
  C178     1.0000 0.20290  0.25640  0.69770  Biso   1.000  C
  H139     1.0000 0.84620  0.75690  0.26700  Biso   1.000  H
  H140     1.0000 0.15380  0.25690  0.73300  Biso   1.000  H
  C179     1.0000 0.80770  0.72440  0.35900  Biso   1.000  C
  C180     1.0000 0.19230  0.22440  0.64100  Biso   1.000  C
  H141     1.0000 0.86300  0.72720  0.39320  Biso   1.000  H
  H142     1.0000 0.13700  0.22720  0.60680  Biso   1.000  H
  H143     1.0000 0.75900  0.72430  0.39390  Biso   1.000  H
  H144     1.0000 0.24100  0.22430  0.60610  Biso   1.000  H
  N37      1.0000 0.71457  0.40443  0.00136  Biso   1.000  N
  N38      1.0000 0.28543  0.90443  0.99864  Biso   1.000  N
  C181     1.0000 0.67275  0.38084  0.94176  Biso   1.000  C
  C182     1.0000 0.32725  0.88084  0.05824  Biso   1.000  C
  O57      1.0000 0.59900  0.36752  0.94800  Biso   1.000  O
  O58      1.0000 0.40100  0.86752  0.05200  Biso   1.000  O
  N39      1.0000 0.71910  0.37351  0.87600  Biso   1.000  N
  N40      1.0000 0.28090  0.87351  0.12400  Biso   1.000  N
  C183     1.0000 0.79870  0.38726  0.86680  Biso   1.000  C
  C184     1.0000 0.20130  0.88726  0.13320  Biso   1.000  C
  N41      1.0000 0.83620  0.37861  0.80290  Biso   1.000  N
  N42      1.0000 0.16380  0.87861  0.19710  Biso   1.000  N
  H145     1.0000 0.80930  0.36400  0.76660  Biso   1.000  H
  H146     1.0000 0.19070  0.86400  0.23340  Biso   1.000  H
  H147     1.0000 0.88840  0.38740  0.79600  Biso   1.000  H
  H148     1.0000 0.11160  0.88740  0.20400  Biso   1.000  H
  C185     1.0000 0.83540  0.41069  0.92990  Biso   1.000  C
  C186     1.0000 0.16460  0.91069  0.07010  Biso   1.000  C
  H149     1.0000 0.89170  0.42110  0.92620  Biso   1.000  H
  H150     1.0000 0.10830  0.92110  0.07380  Biso   1.000  H
  C187     1.0000 0.79270  0.41833  0.99390  Biso   1.000  C
  C188     1.0000 0.20730  0.91833  0.00610  Biso   1.000  C
  H151     1.0000 0.81920  0.43400  0.03470  Biso   1.000  H
  H152     1.0000 0.18080  0.93400  0.96530  Biso   1.000  H
  O59      1.0000 0.69900  0.44435  0.11160  Biso   1.000  O
  O60      1.0000 0.30100  0.94435  0.88840  Biso   1.000  O
  C189     1.0000 0.66244  0.41193  0.07238  Biso   1.000  C
  C190     1.0000 0.33756  0.91193  0.92762  Biso   1.000  C
  H153     1.0000 0.59990  0.41660  0.05360  Biso   1.000  H
  H154     1.0000 0.40010  0.91660  0.94640  Biso   1.000  H
  C191     1.0000 0.66870  0.37990  0.13550  Biso   1.000  C
  C192     1.0000 0.33130  0.87990  0.86450  Biso   1.000  C
  H155     1.0000 0.67870  0.35520  0.10990  Biso   1.000  H
  H156     1.0000 0.32130  0.85520  0.89010  Biso   1.000  H
  O61      1.0000 0.59440  0.37920  0.17570  Biso   1.000  O
  O62      1.0000 0.40560  0.87920  0.82430  Biso   1.000  O
  H157     1.0000 0.60610  0.38680  0.22260  Biso   1.000  H
  H158     1.0000 0.39390  0.88680  0.77740  Biso   1.000  H
  C193     1.0000 0.74750  0.39140  0.19130  Biso   1.000  C
  C194     1.0000 0.25250  0.89140  0.80870  Biso   1.000  C
  H159     1.0000 0.80140  0.38490  0.16500  Biso   1.000  H
  H160     1.0000 0.19860  0.88490  0.83500  Biso   1.000  H
  O63      1.0000 0.75500  0.37665  0.26720  Biso   1.000  O
  O64      1.0000 0.24500  0.87665  0.73280  Biso   1.000  O
  H161     1.0000 0.71500  0.38510  0.29300  Biso   1.000  H
  H162     1.0000 0.28500  0.88510  0.70700  Biso   1.000  H
  C195     1.0000 0.73740  0.43490  0.19050  Biso   1.000  C
  C196     1.0000 0.26260  0.93490  0.80950  Biso   1.000  C
  H163     1.0000 0.69720  0.44260  0.23120  Biso   1.000  H
  H164     1.0000 0.30280  0.94260  0.76880  Biso   1.000  H
  C197     1.0000 0.82510  0.45560  0.20600  Biso   1.000  C
  C198     1.0000 0.17490  0.95560  0.79400  Biso   1.000  C
  H165     1.0000 0.85670  0.44620  0.25580  Biso   1.000  H
  H166     1.0000 0.14330  0.94620  0.74420  Biso   1.000  H
  H167     1.0000 0.86170  0.45100  0.16140  Biso   1.000  H
  H168     1.0000 0.13830  0.95100  0.83860  Biso   1.000  H
  N43      1.0000 0.80288  0.25107  0.87191  Biso   1.000  N
  N44      1.0000 0.19712  0.75107  0.12809  Biso   1.000  N
  C199     1.0000 0.75970  0.28116  0.83752  Biso   1.000  C
  C200     1.0000 0.24030  0.78116  0.16248  Biso   1.000  C
  O65      1.0000 0.78710  0.29829  0.78210  Biso   1.000  O
  O66      1.0000 0.21290  0.79829  0.21790  Biso   1.000  O
  N45      1.0000 0.68330  0.29244  0.86620  Biso   1.000  N
  N46      1.0000 0.31670  0.79244  0.13380  Biso   1.000  N
  C201     1.0000 0.65150  0.27404  0.92740  Biso   1.000  C
  C202     1.0000 0.34850  0.77404  0.07260  Biso   1.000  C
  N47      1.0000 0.57680  0.28536  0.95480  Biso   1.000  N
  N48      1.0000 0.42320  0.78536  0.04520  Biso   1.000  N
  H169     1.0000 0.54870  0.30470  0.93290  Biso   1.000  H
  H170     1.0000 0.45130  0.80470  0.06710  Biso   1.000  H
  H171     1.0000 0.55580  0.27340  0.99470  Biso   1.000  H
  H172     1.0000 0.44420  0.77340  0.00530  Biso   1.000  H
  C203     1.0000 0.69610  0.24282  0.96320  Biso   1.000  C
  C204     1.0000 0.30390  0.74282  0.03680  Biso   1.000  C
  H173     1.0000 0.67400  0.22980  0.00630  Biso   1.000  H
  H174     1.0000 0.32600  0.72980  0.99370  Biso   1.000  H
  C205     1.0000 0.77120  0.23235  0.93370  Biso   1.000  C
  C206     1.0000 0.22880  0.73235  0.06630  Biso   1.000  C
  H175     1.0000 0.80260  0.21150  0.95650  Biso   1.000  H
  H176     1.0000 0.19740  0.71150  0.04350  Biso   1.000  H
  O67      1.0000 0.90570  0.20100  0.85710  Biso   1.000  O
  O68      1.0000 0.09430  0.70100  0.14290  Biso   1.000  O
  C207     1.0000 0.88370  0.23932  0.84120  Biso   1.000  C
  C208     1.0000 0.11630  0.73932  0.15880  Biso   1.000  C
  H177     1.0000 0.87430  0.24160  0.78180  Biso   1.000  H
  H178     1.0000 0.12570  0.74160  0.21820  Biso   1.000  H
  C209     1.0000 0.95390  0.26250  0.86490  Biso   1.000  C
  C210     1.0000 0.04610  0.76250  0.13510  Biso   1.000  C
  H179     1.0000 0.93760  0.28880  0.87700  Biso   1.000  H
  H180     1.0000 0.06240  0.78880  0.12300  Biso   1.000  H
  O69      1.0000 0.02140  0.25840  0.79710  Biso   1.000  O
  O70      1.0000 0.97860  0.75840  0.20290  Biso   1.000  O
  H181     1.0000 0.00120  0.26930  0.75530  Biso   1.000  H
  H182     1.0000 0.99880  0.76930  0.24470  Biso   1.000  H
  C211     1.0000 0.00100  0.24210  0.93300  Biso   1.000  C
  C212     1.0000 0.99900  0.74210  0.06700  Biso   1.000  C
  H183     1.0000 0.96560  0.24290  0.98020  Biso   1.000  H
  H184     1.0000 0.03440  0.74290  0.01980  Biso   1.000  H
  O71      1.0000 0.07950  0.24430  0.95590  Biso   1.000  O
  O72      1.0000 0.92050  0.74430  0.04410  Biso   1.000  O
  C213     1.0000 0.00050  0.20490  0.90140  Biso   1.000  C
  C214     1.0000 0.99950  0.70490  0.09860  Biso   1.000  C
  H185     1.0000 0.04850  0.19990  0.86630  Biso   1.000  H
  H186     1.0000 0.95150  0.69990  0.13370  Biso   1.000  H
  C215     1.0000 0.99320  0.17310  0.97310  Biso   1.000  C
  C216     1.0000 0.00680  0.67310  0.02690  Biso   1.000  C
  N49      1.0000 0.32250  0.70310  0.46680  Biso   1.000  N
  N50      1.0000 0.67750  0.20310  0.53320  Biso   1.000  N
  O73      1.0000 0.29250  0.73740  0.49440  Biso   1.000  O
  O74      1.0000 0.70750  0.23740  0.50560  Biso   1.000  O
  O75      1.0000 0.35600  0.69830  0.39930  Biso   1.000  O
  O76      1.0000 0.64400  0.19830  0.60070  Biso   1.000  O
  O77      1.0000 0.31950  0.67520  0.51520  Biso   1.000  O
  O78      1.0000 0.68050  0.17520  0.48480  Biso   1.000  O
  N51      1.0000 0.37690  0.25860  0.02170  Biso   1.000  N
  N52      1.0000 0.62310  0.75860  0.97830  Biso   1.000  N
  O79      1.0000 0.45080  0.24070  0.04900  Biso   1.000  O
  O80      1.0000 0.54920  0.74070  0.95100  Biso   1.000  O
  O81      1.0000 0.36860  0.27610  0.96050  Biso   1.000  O
  O82      1.0000 0.63140  0.77610  0.03950  Biso   1.000  O
  O83      1.0000 0.31030  0.25870  0.06680  Biso   1.000  O
  O84      1.0000 0.68970  0.75870  0.93320  Biso   1.000  O
  N53      1.0000 0.56950  0.84800  0.46120  Biso   1.000  N
  N54      1.0000 0.43050  0.34800  0.53880  Biso   1.000  N
  O85      1.0000 0.50780  0.86870  0.45110  Biso   1.000  O
  O86      1.0000 0.49220  0.36870  0.54890  Biso   1.000  O
  O87      1.0000 0.60470  0.84690  0.39940  Biso   1.000  O
  O88      1.0000 0.39530  0.34690  0.60060  Biso   1.000  O
  O89      1.0000 0.56370  0.82390  0.52090  Biso   1.000  O
  O90      1.0000 0.43630  0.32390  0.47910  Biso   1.000  O
  N55      1.0000 0.90600  0.33660  0.02400  Biso   1.000  N
  N56      1.0000 0.09400  0.83660  0.97600  Biso   1.000  N
  O91      1.0000 0.82980  0.32280  0.02080  Biso   1.000  O
  O92      1.0000 0.17020  0.82280  0.97920  Biso   1.000  O
  O93      1.0000 0.92210  0.35440  0.09720  Biso   1.000  O
  O94      1.0000 0.07790  0.85440  0.90280  Biso   1.000  O
  O95      1.0000 0.96800  0.34220  0.97040  Biso   1.000  O
  O96      1.0000 0.03200  0.84220  0.02960  Biso   1.000  O
  H187     1.0000 0.69470  0.35900  0.83820  Biso   1.000  H
  H188     1.0000 0.30530  0.85900  0.16180  Biso   1.000  H
  H189     1.0000 0.39620  0.81920  0.24730  Biso   1.000  H
  H190     1.0000 0.60380  0.31920  0.75270  Biso   1.000  H
