data_image0
_cell_length_a       11.611
_cell_length_b       7.172
_cell_length_c       20.741
_cell_angle_alpha    90
_cell_angle_beta     101.028
_cell_angle_gamma    90

_symmetry_space_group_name_H-M    "P 1"
_symmetry_int_tables_number       1

loop_
  _symmetry_equiv_pos_as_xyz
  'x, y, z'

loop_
  _atom_site_label
  _atom_site_occupancy
  _atom_site_fract_x
  _atom_site_fract_y
  _atom_site_fract_z
  _atom_site_thermal_displace_type
  _atom_site_B_iso_or_equiv
  _atom_site_type_symbol
  Cu1      1.0000 0.42590  0.28344  0.39340  Biso   1.000  Cu
  Cu2      1.0000 0.57410  0.78344  0.60660  Biso   1.000  Cu
  Cu3      1.0000 0.08107  0.59166  0.10576  Biso   1.000  Cu
  Cu4      1.0000 0.91893  0.09166  0.89424  Biso   1.000  Cu
  Cl1      1.0000 0.80096  0.84090  0.37337  Biso   1.000  Cl
  Cl2      1.0000 0.19904  0.34090  0.62663  Biso   1.000  Cl
  Cl3      1.0000 0.69523  0.03870  0.12577  Biso   1.000  Cl
  Cl4      1.0000 0.30477  0.53870  0.87423  Biso   1.000  Cl
  C1       1.0000 0.44270  0.14110  0.25620  Biso   1.000  C
  C2       1.0000 0.55730  0.64110  0.74380  Biso   1.000  C
  H1       1.0000 0.52360  0.13450  0.27000  Biso   1.000  H
  H2       1.0000 0.47640  0.63450  0.73000  Biso   1.000  H
  C3       1.0000 0.39410  0.08910  0.19220  Biso   1.000  C
  C4       1.0000 0.60590  0.58910  0.80780  Biso   1.000  C
  H3       1.0000 0.44250  0.04830  0.16410  Biso   1.000  H
  H4       1.0000 0.55750  0.54830  0.83590  Biso   1.000  H
  C5       1.0000 0.27580  0.09780  0.17050  Biso   1.000  C
  C6       1.0000 0.72420  0.59780  0.82950  Biso   1.000  C
  H5       1.0000 0.24300  0.06120  0.12800  Biso   1.000  H
  H6       1.0000 0.75700  0.56120  0.87200  Biso   1.000  H
  C7       1.0000 0.20320  0.16300  0.21330  Biso   1.000  C
  C8       1.0000 0.79680  0.66300  0.78670  Biso   1.000  C
  C9       1.0000 0.07900  0.17310  0.19690  Biso   1.000  C
  C10      1.0000 0.92100  0.67310  0.80310  Biso   1.000  C
  H7       1.0000 0.04100  0.13970  0.15490  Biso   1.000  H
  H8       1.0000 0.95900  0.63970  0.84510  Biso   1.000  H
  C11      1.0000 0.01460  0.22990  0.24090  Biso   1.000  C
  C12      1.0000 0.98540  0.72990  0.75910  Biso   1.000  C
  H9       1.0000 0.93340  0.23640  0.22850  Biso   1.000  H
  H10      1.0000 0.06660  0.73640  0.77150  Biso   1.000  H
  C13      1.0000 0.06950  0.28040  0.30640  Biso   1.000  C
  C14      1.0000 0.93050  0.78040  0.69360  Biso   1.000  C
  C15      1.0000 0.01020  0.34320  0.35570  Biso   1.000  C
  C16      1.0000 0.98980  0.84320  0.64430  Biso   1.000  C
  H11      1.0000 0.92900  0.35520  0.34660  Biso   1.000  H
  H12      1.0000 0.07100  0.85520  0.65340  Biso   1.000  H
  C17      1.0000 0.07280  0.38680  0.41750  Biso   1.000  C
  C18      1.0000 0.92720  0.88680  0.58250  Biso   1.000  C
  H13      1.0000 0.03390  0.42400  0.45060  Biso   1.000  H
  H14      1.0000 0.96610  0.92400  0.54940  Biso   1.000  H
  C19      1.0000 0.19440  0.37460  0.42960  Biso   1.000  C
  C20      1.0000 0.80560  0.87460  0.57040  Biso   1.000  C
  H15      1.0000 0.23590  0.40450  0.47120  Biso   1.000  H
  H16      1.0000 0.76410  0.90450  0.52880  Biso   1.000  H
  C21      1.0000 0.19210  0.27570  0.32370  Biso   1.000  C
  C22      1.0000 0.80790  0.77570  0.67630  Biso   1.000  C
  C23      1.0000 0.26120  0.21120  0.27690  Biso   1.000  C
  C24      1.0000 0.73880  0.71120  0.72310  Biso   1.000  C
  C25      1.0000 0.65000  0.30680  0.47410  Biso   1.000  C
  C26      1.0000 0.35000  0.80680  0.52590  Biso   1.000  C
  H17      1.0000 0.65210  0.18730  0.49720  Biso   1.000  H
  H18      1.0000 0.34790  0.68730  0.50280  Biso   1.000  H
  C27      1.0000 0.56690  0.43450  0.50220  Biso   1.000  C
  C28      1.0000 0.43310  0.93450  0.49780  Biso   1.000  C
  C29      1.0000 0.77550  0.38030  0.48520  Biso   1.000  C
  C30      1.0000 0.22450  0.88030  0.51480  Biso   1.000  C
  H19      1.0000 0.82380  0.29490  0.46660  Biso   1.000  H
  H20      1.0000 0.17620  0.79490  0.53340  Biso   1.000  H
  H21      1.0000 0.80530  0.39250  0.53150  Biso   1.000  H
  H22      1.0000 0.19470  0.89250  0.46850  Biso   1.000  H
  H23      1.0000 0.77640  0.49990  0.46450  Biso   1.000  H
  H24      1.0000 0.22360  0.99990  0.53550  Biso   1.000  H
  C31      1.0000 0.31280  0.50740  0.06930  Biso   1.000  C
  C32      1.0000 0.68720  0.00740  0.93070  Biso   1.000  C
  H25      1.0000 0.27160  0.48170  0.02720  Biso   1.000  H
  H26      1.0000 0.72840  0.98170  0.97280  Biso   1.000  H
  C33      1.0000 0.43480  0.49240  0.08230  Biso   1.000  C
  C34      1.0000 0.56520  0.99240  0.91770  Biso   1.000  C
  H27      1.0000 0.47390  0.45270  0.04960  Biso   1.000  H
  H28      1.0000 0.52610  0.95270  0.95040  Biso   1.000  H
  C35      1.0000 0.49660  0.53600  0.14320  Biso   1.000  C
  C36      1.0000 0.50340  0.03600  0.85680  Biso   1.000  C
  H29      1.0000 0.57810  0.53080  0.15190  Biso   1.000  H
  H30      1.0000 0.42190  0.03080  0.84810  Biso   1.000  H
  C37      1.0000 0.43560  0.58900  0.19230  Biso   1.000  C
  C38      1.0000 0.56440  0.08900  0.80770  Biso   1.000  C
  C39      1.0000 0.49170  0.64190  0.25760  Biso   1.000  C
  C40      1.0000 0.50830  0.14190  0.74240  Biso   1.000  C
  H31      1.0000 0.57310  0.63750  0.26960  Biso   1.000  H
  H32      1.0000 0.42690  0.13750  0.73040  Biso   1.000  H
  C41      1.0000 0.42720  0.69810  0.30170  Biso   1.000  C
  C42      1.0000 0.57280  0.19810  0.69830  Biso   1.000  C
  H33      1.0000 0.46560  0.72920  0.34390  Biso   1.000  H
  H34      1.0000 0.53440  0.22920  0.65610  Biso   1.000  H
  C43      1.0000 0.30320  0.71160  0.28610  Biso   1.000  C
  C44      1.0000 0.69680  0.21160  0.71390  Biso   1.000  C
  C45      1.0000 0.23150  0.77300  0.32910  Biso   1.000  C
  C46      1.0000 0.76850  0.27300  0.67090  Biso   1.000  C
  H35      1.0000 0.26480  0.80570  0.37200  Biso   1.000  H
  H36      1.0000 0.73520  0.30570  0.62800  Biso   1.000  H
  C47      1.0000 0.11440  0.78470  0.30830  Biso   1.000  C
  C48      1.0000 0.88560  0.28470  0.69170  Biso   1.000  C
  H37      1.0000 0.06680  0.82610  0.33670  Biso   1.000  H
  H38      1.0000 0.93320  0.32610  0.66330  Biso   1.000  H
  C49      1.0000 0.06430  0.73360  0.24320  Biso   1.000  C
  C50      1.0000 0.93570  0.23360  0.75680  Biso   1.000  C
  H39      1.0000 0.98350  0.74390  0.22920  Biso   1.000  H
  H40      1.0000 0.01650  0.24390  0.77080  Biso   1.000  H
  C51      1.0000 0.24580  0.66170  0.22230  Biso   1.000  C
  C52      1.0000 0.75420  0.16170  0.77770  Biso   1.000  C
  C53      1.0000 0.31420  0.60080  0.17570  Biso   1.000  C
  C54      1.0000 0.68580  0.10080  0.82430  Biso   1.000  C
  C55      1.0000 0.85490  0.46640  0.04492  Biso   1.000  C
  C56      1.0000 0.14510  0.96640  0.95508  Biso   1.000  C
  H41      1.0000 0.84670  0.35030  0.06860  Biso   1.000  H
  H42      1.0000 0.15330  0.85030  0.93140  Biso   1.000  H
  C57      1.0000 0.94130  0.42830  0.99930  Biso   1.000  C
  C58      1.0000 0.05870  0.92830  0.00070  Biso   1.000  C
  C59      1.0000 0.73230  0.52480  0.01050  Biso   1.000  C
  C60      1.0000 0.26770  0.02480  0.98950  Biso   1.000  C
  H43      1.0000 0.68410  0.54520  0.04260  Biso   1.000  H
  H44      1.0000 0.31590  0.04520  0.95740  Biso   1.000  H
  H45      1.0000 0.69840  0.42810  0.98080  Biso   1.000  H
  H46      1.0000 0.30160  0.92810  0.01920  Biso   1.000  H
  H47      1.0000 0.73720  0.63780  0.98640  Biso   1.000  H
  H48      1.0000 0.26280  0.13780  0.01360  Biso   1.000  H
  N1       1.0000 0.37810  0.19940  0.29822  Biso   1.000  N
  N2       1.0000 0.62190  0.69940  0.70178  Biso   1.000  N
  N3       1.0000 0.25360  0.32180  0.38402  Biso   1.000  N
  N4       1.0000 0.74640  0.82180  0.61598  Biso   1.000  N
  N5       1.0000 0.59960  0.27100  0.40416  Biso   1.000  N
  N6       1.0000 0.40040  0.77100  0.59584  Biso   1.000  N
  H49      1.0000 0.62160  0.15770  0.39230  Biso   1.000  H
  H50      1.0000 0.37840  0.65770  0.60770  Biso   1.000  H
  H51      1.0000 0.62510  0.35720  0.37860  Biso   1.000  H
  H52      1.0000 0.37490  0.85720  0.62140  Biso   1.000  H
  N7       1.0000 0.12900  0.67120  0.20094  Biso   1.000  N
  N8       1.0000 0.87100  0.17120  0.79906  Biso   1.000  N
  N9       1.0000 0.25380  0.55750  0.11550  Biso   1.000  N
  N10      1.0000 0.74620  0.05750  0.88450  Biso   1.000  N
  N11      1.0000 0.90900  0.60700  0.09470  Biso   1.000  N
  N12      1.0000 0.09100  0.10700  0.90530  Biso   1.000  N
  H53      1.0000 0.88710  0.58440  0.13330  Biso   1.000  H
  H54      1.0000 0.11290  0.08440  0.86670  Biso   1.000  H
  H55      1.0000 0.88460  0.72210  0.08130  Biso   1.000  H
  H56      1.0000 0.11540  0.22210  0.91870  Biso   1.000  H
  O1       1.0000 0.46200  0.44510  0.47003  Biso   1.000  O
  O2       1.0000 0.53800  0.94510  0.52997  Biso   1.000  O
  O3       1.0000 0.60070  0.51170  0.55502  Biso   1.000  O
  O4       1.0000 0.39930  0.01170  0.44498  Biso   1.000  O
  O5       1.0000 0.04830  0.45050  0.02423  Biso   1.000  O
  O6       1.0000 0.95170  0.95050  0.97577  Biso   1.000  O
  O7       1.0000 0.90210  0.37180  0.94332  Biso   1.000  O
  O8       1.0000 0.09790  0.87180  0.05668  Biso   1.000  O
  O9       1.0000 0.70110  0.87610  0.39790  Biso   1.000  O
  O10      1.0000 0.29890  0.37610  0.60210  Biso   1.000  O
  O11      1.0000 0.89600  0.83900  0.42370  Biso   1.000  O
  O12      1.0000 0.10400  0.33900  0.57630  Biso   1.000  O
  O13      1.0000 0.79460  0.66720  0.34350  Biso   1.000  O
  O14      1.0000 0.20540  0.16720  0.65650  Biso   1.000  O
  O15      1.0000 0.81130  0.97500  0.32650  Biso   1.000  O
  O16      1.0000 0.18870  0.47500  0.67350  Biso   1.000  O
  O17      1.0000 0.80320  0.00690  0.10700  Biso   1.000  O
  O18      1.0000 0.19680  0.50690  0.89300  Biso   1.000  O
  O19      1.0000 0.71660  0.22310  0.15370  Biso   1.000  O
  O20      1.0000 0.28340  0.72310  0.84630  Biso   1.000  O
  O21      1.0000 0.66430  0.94870  0.17550  Biso   1.000  O
  O22      1.0000 0.33570  0.44870  0.82450  Biso   1.000  O
  O23      1.0000 0.60730  0.04100  0.07550  Biso   1.000  O
  O24      1.0000 0.39270  0.54100  0.92450  Biso   1.000  O
  O25      1.0000 0.78740  0.60630  0.21060  Biso   1.000  O
  O26      1.0000 0.21260  0.10630  0.78940  Biso   1.000  O
  H57      1.0000 0.81710  0.65970  0.25440  Biso   1.000  H
  H58      1.0000 0.18290  0.15970  0.74560  Biso   1.000  H
  H59      1.0000 0.75590  0.72530  0.18630  Biso   1.000  H
  H60      1.0000 0.24410  0.22530  0.81370  Biso   1.000  H
  O27      1.0000 0.71580  0.31600  0.28680  Biso   1.000  O
  O28      1.0000 0.28420  0.81600  0.71320  Biso   1.000  O
  H61      1.0000 0.74520  0.21100  0.29920  Biso   1.000  H
  H62      1.0000 0.25480  0.71100  0.70080  Biso   1.000  H
  H63      1.0000 0.76870  0.35180  0.25610  Biso   1.000  H
  H64      1.0000 0.23130  0.85180  0.74390  Biso   1.000  H
