data_image0
_cell_length_a       14.611
_cell_length_b       15.551
_cell_length_c       8.837
_cell_angle_alpha    90
_cell_angle_beta     102.36
_cell_angle_gamma    90

_symmetry_space_group_name_H-M    "P 1"
_symmetry_int_tables_number       1

loop_
  _symmetry_equiv_pos_as_xyz
  'x, y, z'

loop_
  _atom_site_label
  _atom_site_occupancy
  _atom_site_fract_x
  _atom_site_fract_y
  _atom_site_fract_z
  _atom_site_thermal_displace_type
  _atom_site_B_iso_or_equiv
  _atom_site_type_symbol
  Cu1      1.0000 0.80121  0.15361  0.18856  Biso   1.000  Cu
  Cu2      1.0000 0.19879  0.65361  0.31144  Biso   1.000  Cu
  Cu3      1.0000 0.19879  0.84639  0.81144  Biso   1.000  Cu
  Cu4      1.0000 0.80121  0.34639  0.68856  Biso   1.000  Cu
  Cl1      1.0000 0.80052  0.92143  0.29860  Biso   1.000  Cl
  Cl2      1.0000 0.19948  0.42143  0.20140  Biso   1.000  Cl
  Cl3      1.0000 0.19948  0.07857  0.70140  Biso   1.000  Cl
  Cl4      1.0000 0.80052  0.57857  0.79860  Biso   1.000  Cl
  O1       1.0000 0.80730  0.19940  0.38940  Biso   1.000  O
  O2       1.0000 0.19270  0.69940  0.11060  Biso   1.000  O
  O3       1.0000 0.19270  0.80060  0.61060  Biso   1.000  O
  O4       1.0000 0.80730  0.30060  0.88940  Biso   1.000  O
  N1       1.0000 0.67190  0.12300  0.19580  Biso   1.000  N
  N2       1.0000 0.32810  0.62300  0.30420  Biso   1.000  N
  N3       1.0000 0.32810  0.87700  0.80420  Biso   1.000  N
  N4       1.0000 0.67190  0.37700  0.69580  Biso   1.000  N
  N5       1.0000 0.85980  0.09580  0.92800  Biso   1.000  N
  N6       1.0000 0.14020  0.59580  0.57200  Biso   1.000  N
  N7       1.0000 0.14020  0.90420  0.07200  Biso   1.000  N
  N8       1.0000 0.85980  0.40420  0.42800  Biso   1.000  N
  O5       1.0000 0.71660  0.22140  0.55580  Biso   1.000  O
  O6       1.0000 0.28340  0.72140  0.94420  Biso   1.000  O
  O7       1.0000 0.28340  0.77860  0.44420  Biso   1.000  O
  O8       1.0000 0.71660  0.27860  0.05580  Biso   1.000  O
  N9       1.0000 0.60730  0.08170  0.08420  Biso   1.000  N
  N10      1.0000 0.39270  0.58170  0.41580  Biso   1.000  N
  N11      1.0000 0.39270  0.91830  0.91580  Biso   1.000  N
  N12      1.0000 0.60730  0.41830  0.58420  Biso   1.000  N
  H1       1.0000 0.55030  0.07590  0.10080  Biso   1.000  H
  H2       1.0000 0.44970  0.57590  0.39920  Biso   1.000  H
  H3       1.0000 0.44970  0.92410  0.89920  Biso   1.000  H
  H4       1.0000 0.55030  0.42410  0.60080  Biso   1.000  H
  N13      1.0000 0.78590  0.09880  0.99520  Biso   1.000  N
  N14      1.0000 0.21410  0.59880  0.50480  Biso   1.000  N
  N15      1.0000 0.21410  0.90120  0.00480  Biso   1.000  N
  N16      1.0000 0.78590  0.40120  0.49520  Biso   1.000  N
  N17      1.0000 0.93150  0.15980  0.15880  Biso   1.000  N
  N18      1.0000 0.06850  0.65980  0.34120  Biso   1.000  N
  N19      1.0000 0.06850  0.84020  0.84120  Biso   1.000  N
  N20      1.0000 0.93150  0.34020  0.65880  Biso   1.000  N
  C1       1.0000 0.64620  0.15360  0.31830  Biso   1.000  C
  C2       1.0000 0.35380  0.65360  0.18170  Biso   1.000  C
  C3       1.0000 0.35380  0.84640  0.68170  Biso   1.000  C
  C4       1.0000 0.64620  0.34640  0.81830  Biso   1.000  C
  C5       1.0000 0.94640  0.12700  0.02200  Biso   1.000  C
  C6       1.0000 0.05360  0.62700  0.47800  Biso   1.000  C
  C7       1.0000 0.05360  0.87300  0.97800  Biso   1.000  C
  C8       1.0000 0.94640  0.37300  0.52200  Biso   1.000  C
  O9       1.0000 0.56130  0.00960  0.86240  Biso   1.000  O
  O10      1.0000 0.43870  0.50960  0.63760  Biso   1.000  O
  O11      1.0000 0.43870  0.99040  0.13760  Biso   1.000  O
  O12      1.0000 0.56130  0.49040  0.36240  Biso   1.000  O
  C9       1.0000 0.72920  0.19490  0.43140  Biso   1.000  C
  C10      1.0000 0.27080  0.69490  0.06860  Biso   1.000  C
  C11      1.0000 0.27080  0.80510  0.56860  Biso   1.000  C
  C12      1.0000 0.72920  0.30510  0.93140  Biso   1.000  C
  C13      1.0000 0.55300  0.15480  0.34820  Biso   1.000  C
  C14      1.0000 0.44700  0.65480  0.15180  Biso   1.000  C
  C15      1.0000 0.44700  0.84520  0.65180  Biso   1.000  C
  C16      1.0000 0.55300  0.34520  0.84820  Biso   1.000  C
  C17      1.0000 0.53050  0.11480  0.47670  Biso   1.000  C
  C18      1.0000 0.46950  0.61480  0.02330  Biso   1.000  C
  C19      1.0000 0.46950  0.88520  0.52330  Biso   1.000  C
  C20      1.0000 0.53050  0.38520  0.97670  Biso   1.000  C
  H5       1.0000 0.57730  0.08360  0.54640  Biso   1.000  H
  H6       1.0000 0.42270  0.58360  0.95360  Biso   1.000  H
  H7       1.0000 0.42270  0.91640  0.45360  Biso   1.000  H
  H8       1.0000 0.57730  0.41640  0.04640  Biso   1.000  H
  C21      1.0000 0.71460  0.06070  0.90320  Biso   1.000  C
  C22      1.0000 0.28540  0.56070  0.59680  Biso   1.000  C
  C23      1.0000 0.28540  0.93930  0.09680  Biso   1.000  C
  C24      1.0000 0.71460  0.43930  0.40320  Biso   1.000  C
  C25      1.0000 0.03130  0.12410  0.98450  Biso   1.000  C
  C26      1.0000 0.96870  0.62410  0.51550  Biso   1.000  C
  C27      1.0000 0.96870  0.87590  0.01550  Biso   1.000  C
  C28      1.0000 0.03130  0.37590  0.48450  Biso   1.000  C
  H9       1.0000 0.03840  0.10240  0.88710  Biso   1.000  H
  H10      1.0000 0.96160  0.60240  0.61290  Biso   1.000  H
  H11      1.0000 0.96160  0.89760  0.11290  Biso   1.000  H
  H12      1.0000 0.03840  0.39760  0.38710  Biso   1.000  H
  C29      1.0000 0.10740  0.15360  0.09270  Biso   1.000  C
  C30      1.0000 0.89260  0.65360  0.40730  Biso   1.000  C
  C31      1.0000 0.89260  0.84640  0.90730  Biso   1.000  C
  C32      1.0000 0.10740  0.34640  0.59270  Biso   1.000  C
  H13      1.0000 0.16790  0.15270  0.06960  Biso   1.000  H
  H14      1.0000 0.83210  0.65270  0.43040  Biso   1.000  H
  H15      1.0000 0.83210  0.84730  0.93040  Biso   1.000  H
  H16      1.0000 0.16790  0.34730  0.56960  Biso   1.000  H
  C33      1.0000 0.83630  0.05640  0.78650  Biso   1.000  C
  C34      1.0000 0.16370  0.55640  0.71350  Biso   1.000  C
  C35      1.0000 0.16370  0.94360  0.21350  Biso   1.000  C
  C36      1.0000 0.83630  0.44360  0.28650  Biso   1.000  C
  C37      1.0000 0.62400  0.04850  0.94760  Biso   1.000  C
  C38      1.0000 0.37600  0.54850  0.55240  Biso   1.000  C
  C39      1.0000 0.37600  0.95150  0.05240  Biso   1.000  C
  C40      1.0000 0.62400  0.45150  0.44760  Biso   1.000  C
  O13      1.0000 0.73460  0.95740  0.37470  Biso   1.000  O
  O14      1.0000 0.26540  0.45740  0.12530  Biso   1.000  O
  O15      1.0000 0.26540  0.04260  0.62530  Biso   1.000  O
  O16      1.0000 0.73460  0.54260  0.87470  Biso   1.000  O
  C41      1.0000 0.00720  0.18570  0.26150  Biso   1.000  C
  C42      1.0000 0.99280  0.68570  0.23850  Biso   1.000  C
  C43      1.0000 0.99280  0.81430  0.73850  Biso   1.000  C
  C44      1.0000 0.00720  0.31430  0.76150  Biso   1.000  C
  H17      1.0000 0.99930  0.20600  0.35930  Biso   1.000  H
  H18      1.0000 0.00070  0.70600  0.14070  Biso   1.000  H
  H19      1.0000 0.00070  0.79400  0.64070  Biso   1.000  H
  H20      1.0000 0.99930  0.29400  0.85930  Biso   1.000  H
  C45      1.0000 0.44140  0.11990  0.50420  Biso   1.000  C
  C46      1.0000 0.55860  0.61990  0.99580  Biso   1.000  C
  C47      1.0000 0.55860  0.88010  0.49580  Biso   1.000  C
  C48      1.0000 0.44140  0.38010  0.00420  Biso   1.000  C
  H21      1.0000 0.42680  0.09150  0.59120  Biso   1.000  H
  H22      1.0000 0.57320  0.59150  0.90880  Biso   1.000  H
  H23      1.0000 0.57320  0.90850  0.40880  Biso   1.000  H
  H24      1.0000 0.42680  0.40850  0.09120  Biso   1.000  H
  C49      1.0000 0.74470  0.03340  0.77040  Biso   1.000  C
  C50      1.0000 0.25530  0.53340  0.72960  Biso   1.000  C
  C51      1.0000 0.25530  0.96660  0.22960  Biso   1.000  C
  C52      1.0000 0.74470  0.46660  0.27040  Biso   1.000  C
  H25      1.0000 0.70770  0.00410  0.68430  Biso   1.000  H
  H26      1.0000 0.29230  0.50410  0.81570  Biso   1.000  H
  H27      1.0000 0.29230  0.99590  0.31570  Biso   1.000  H
  H28      1.0000 0.70770  0.49590  0.18430  Biso   1.000  H
  C53      1.0000 0.09650  0.18430  0.23300  Biso   1.000  C
  C54      1.0000 0.90350  0.68430  0.26700  Biso   1.000  C
  C55      1.0000 0.90350  0.81570  0.76700  Biso   1.000  C
  C56      1.0000 0.09650  0.31570  0.73300  Biso   1.000  C
  H29      1.0000 0.14870  0.20410  0.30840  Biso   1.000  H
  H30      1.0000 0.85130  0.70410  0.19160  Biso   1.000  H
  H31      1.0000 0.85130  0.79590  0.69160  Biso   1.000  H
  H32      1.0000 0.14870  0.29590  0.80840  Biso   1.000  H
  C57      1.0000 0.48260  0.19910  0.24880  Biso   1.000  C
  C58      1.0000 0.51740  0.69910  0.25120  Biso   1.000  C
  C59      1.0000 0.51740  0.80090  0.75120  Biso   1.000  C
  C60      1.0000 0.48260  0.30090  0.74880  Biso   1.000  C
  H33      1.0000 0.49550  0.22550  0.15870  Biso   1.000  H
  H34      1.0000 0.50450  0.72550  0.34130  Biso   1.000  H
  H35      1.0000 0.50450  0.77450  0.84130  Biso   1.000  H
  H36      1.0000 0.49550  0.27450  0.65870  Biso   1.000  H
  O17      1.0000 0.86350  0.98830  0.27720  Biso   1.000  O
  O18      1.0000 0.13650  0.48830  0.22280  Biso   1.000  O
  O19      1.0000 0.13650  0.01170  0.72280  Biso   1.000  O
  O20      1.0000 0.86350  0.51170  0.77720  Biso   1.000  O
  C61      1.0000 0.89890  0.04670  0.67790  Biso   1.000  C
  C62      1.0000 0.10110  0.54670  0.82210  Biso   1.000  C
  C63      1.0000 0.10110  0.95330  0.32210  Biso   1.000  C
  C64      1.0000 0.89890  0.45330  0.17790  Biso   1.000  C
  H37      1.0000 0.86450  0.02000  0.58200  Biso   1.000  H
  H38      1.0000 0.13550  0.52000  0.91800  Biso   1.000  H
  H39      1.0000 0.13550  0.98000  0.41800  Biso   1.000  H
  H40      1.0000 0.86450  0.48000  0.08200  Biso   1.000  H
  H41      1.0000 0.95210  0.01010  0.72470  Biso   1.000  H
  H42      1.0000 0.04790  0.51010  0.77530  Biso   1.000  H
  H43      1.0000 0.04790  0.98990  0.27530  Biso   1.000  H
  H44      1.0000 0.95210  0.48990  0.22470  Biso   1.000  H
  H45      1.0000 0.92180  0.10330  0.65460  Biso   1.000  H
  H46      1.0000 0.07820  0.60330  0.84540  Biso   1.000  H
  H47      1.0000 0.07820  0.89670  0.34540  Biso   1.000  H
  H48      1.0000 0.92180  0.39670  0.15460  Biso   1.000  H
  C65      1.0000 0.37460  0.16540  0.40700  Biso   1.000  C
  C66      1.0000 0.62540  0.66540  0.09300  Biso   1.000  C
  C67      1.0000 0.62540  0.83460  0.59300  Biso   1.000  C
  C68      1.0000 0.37460  0.33460  0.90700  Biso   1.000  C
  H49      1.0000 0.31340  0.17010  0.42690  Biso   1.000  H
  H50      1.0000 0.68660  0.67010  0.07310  Biso   1.000  H
  H51      1.0000 0.68660  0.82990  0.57310  Biso   1.000  H
  H52      1.0000 0.31340  0.32990  0.92690  Biso   1.000  H
  C69      1.0000 0.39580  0.20520  0.27850  Biso   1.000  C
  C70      1.0000 0.60420  0.70520  0.22150  Biso   1.000  C
  C71      1.0000 0.60420  0.79480  0.72150  Biso   1.000  C
  C72      1.0000 0.39580  0.29480  0.77850  Biso   1.000  C
  H53      1.0000 0.34880  0.23720  0.21050  Biso   1.000  H
  H54      1.0000 0.65120  0.73720  0.28950  Biso   1.000  H
  H55      1.0000 0.65120  0.76280  0.78950  Biso   1.000  H
  H56      1.0000 0.34880  0.26280  0.71050  Biso   1.000  H
  O21      1.0000 0.84880  0.85780  0.39300  Biso   1.000  O
  O22      1.0000 0.15120  0.35780  0.10700  Biso   1.000  O
  O23      1.0000 0.15120  0.14220  0.60700  Biso   1.000  O
  O24      1.0000 0.84880  0.64220  0.89300  Biso   1.000  O
  O25      1.0000 0.75580  0.89010  0.15380  Biso   1.000  O
  O26      1.0000 0.24420  0.39010  0.34620  Biso   1.000  O
  O27      1.0000 0.24420  0.10990  0.84620  Biso   1.000  O
  O28      1.0000 0.75580  0.60990  0.65380  Biso   1.000  O
