data_image0
_cell_length_a       15.0825
_cell_length_b       8.2354
_cell_length_c       15.4752
_cell_angle_alpha    90
_cell_angle_beta     107.587
_cell_angle_gamma    90

_symmetry_space_group_name_H-M    "P 1"
_symmetry_int_tables_number       1

loop_
  _symmetry_equiv_pos_as_xyz
  'x, y, z'

loop_
  _atom_site_label
  _atom_site_occupancy
  _atom_site_fract_x
  _atom_site_fract_y
  _atom_site_fract_z
  _atom_site_thermal_displace_type
  _atom_site_B_iso_or_equiv
  _atom_site_type_symbol
  Cu1      1.0000 0.81644  0.26364  0.63771  Biso   1.000  Cu
  Cu2      1.0000 0.68356  0.76364  0.86229  Biso   1.000  Cu
  Cu3      1.0000 0.18356  0.73636  0.36229  Biso   1.000  Cu
  Cu4      1.0000 0.31644  0.23636  0.13771  Biso   1.000  Cu
  O1       1.0000 0.80750  0.05389  0.68591  Biso   1.000  O
  O2       1.0000 0.69250  0.55389  0.81409  Biso   1.000  O
  O3       1.0000 0.19250  0.94611  0.31409  Biso   1.000  O
  O4       1.0000 0.30750  0.44611  0.18591  Biso   1.000  O
  N1       1.0000 0.67999  0.27127  0.61375  Biso   1.000  N
  N2       1.0000 0.82001  0.77127  0.88625  Biso   1.000  N
  N3       1.0000 0.32001  0.72873  0.38625  Biso   1.000  N
  N4       1.0000 0.17999  0.22873  0.11375  Biso   1.000  N
  O5       1.0000 0.70063  0.88970  0.71141  Biso   1.000  O
  O6       1.0000 0.79937  0.38970  0.78859  Biso   1.000  O
  O7       1.0000 0.29937  0.11030  0.28859  Biso   1.000  O
  O8       1.0000 0.20063  0.61030  0.21141  Biso   1.000  O
  O9       1.0000 0.58589  0.64349  0.51511  Biso   1.000  O
  O10      1.0000 0.91411  0.14349  0.98489  Biso   1.000  O
  O11      1.0000 0.41411  0.35651  0.48489  Biso   1.000  O
  O12      1.0000 0.08589  0.85651  0.01511  Biso   1.000  O
  N5       1.0000 0.81309  0.48082  0.59789  Biso   1.000  N
  N6       1.0000 0.68691  0.98082  0.90211  Biso   1.000  N
  N7       1.0000 0.18691  0.51918  0.40211  Biso   1.000  N
  N8       1.0000 0.31309  0.01918  0.09789  Biso   1.000  N
  N9       1.0000 0.89363  0.55044  0.59792  Biso   1.000  N
  N10      1.0000 0.60637  0.05044  0.90208  Biso   1.000  N
  N11      1.0000 0.10637  0.44956  0.40208  Biso   1.000  N
  N12      1.0000 0.39363  0.94956  0.09792  Biso   1.000  N
  C1       1.0000 0.51421  0.24790  0.68960  Biso   1.000  C
  C2       1.0000 0.98579  0.74790  0.81040  Biso   1.000  C
  C3       1.0000 0.48579  0.75210  0.31040  Biso   1.000  C
  C4       1.0000 0.01421  0.25210  0.18960  Biso   1.000  C
  H1       1.0000 0.54840  0.33950  0.71480  Biso   1.000  H
  H2       1.0000 0.95160  0.83950  0.78520  Biso   1.000  H
  H3       1.0000 0.45160  0.66050  0.28520  Biso   1.000  H
  H4       1.0000 0.04840  0.16050  0.21480  Biso   1.000  H
  O13      1.0000 0.81334  0.14620  0.49408  Biso   1.000  O
  O14      1.0000 0.68666  0.64620  0.00592  Biso   1.000  O
  O15      1.0000 0.18666  0.85380  0.50592  Biso   1.000  O
  O16      1.0000 0.31334  0.35380  0.99408  Biso   1.000  O
  N13      1.0000 0.62103  0.39550  0.57317  Biso   1.000  N
  N14      1.0000 0.87897  0.89550  0.92683  Biso   1.000  N
  N15      1.0000 0.37897  0.60450  0.42683  Biso   1.000  N
  N16      1.0000 0.12103  0.10450  0.07317  Biso   1.000  N
  H5       1.0000 0.56240  0.37780  0.56150  Biso   1.000  H
  H6       1.0000 0.93760  0.87780  0.93850  Biso   1.000  H
  H7       1.0000 0.43760  0.62220  0.43850  Biso   1.000  H
  H8       1.0000 0.06240  0.12220  0.06150  Biso   1.000  H
  N17      1.0000 0.95325  0.30460  0.66056  Biso   1.000  N
  N18      1.0000 0.54675  0.80460  0.83944  Biso   1.000  N
  N19      1.0000 0.04675  0.69540  0.33944  Biso   1.000  N
  N20      1.0000 0.45325  0.19540  0.16056  Biso   1.000  N
  C5       1.0000 0.11344  0.23160  0.69619  Biso   1.000  C
  C6       1.0000 0.38656  0.73160  0.80381  Biso   1.000  C
  C7       1.0000 0.88656  0.76840  0.30381  Biso   1.000  C
  C8       1.0000 0.61344  0.26840  0.19619  Biso   1.000  C
  H9       1.0000 0.16070  0.15670  0.71990  Biso   1.000  H
  H10      1.0000 0.33930  0.65670  0.78010  Biso   1.000  H
  H11      1.0000 0.83930  0.84330  0.28010  Biso   1.000  H
  H12      1.0000 0.66070  0.34330  0.21990  Biso   1.000  H
  C9       1.0000 0.74568  0.58716  0.56467  Biso   1.000  C
  C10      1.0000 0.75432  0.08716  0.93533  Biso   1.000  C
  C11      1.0000 0.25432  0.41284  0.43533  Biso   1.000  C
  C12      1.0000 0.24568  0.91284  0.06467  Biso   1.000  C
  C13      1.0000 0.55430  0.12740  0.65044  Biso   1.000  C
  C14      1.0000 0.94570  0.62740  0.84956  Biso   1.000  C
  C15      1.0000 0.44570  0.87260  0.34956  Biso   1.000  C
  C16      1.0000 0.05430  0.37260  0.15044  Biso   1.000  C
  C17      1.0000 0.42369  0.23130  0.69096  Biso   1.000  C
  C18      1.0000 0.07631  0.73130  0.80904  Biso   1.000  C
  C19      1.0000 0.57631  0.76870  0.30904  Biso   1.000  C
  C20      1.0000 0.92369  0.26870  0.19096  Biso   1.000  C
  H13      1.0000 0.39710  0.31110  0.71770  Biso   1.000  H
  H14      1.0000 0.10290  0.81110  0.78230  Biso   1.000  H
  H15      1.0000 0.60290  0.68890  0.28230  Biso   1.000  H
  H16      1.0000 0.89710  0.18890  0.21770  Biso   1.000  H
  O17      1.0000 0.81517  0.15630  0.35504  Biso   1.000  O
  O18      1.0000 0.68483  0.65630  0.14496  Biso   1.000  O
  O19      1.0000 0.18483  0.84370  0.64496  Biso   1.000  O
  O20      1.0000 0.31517  0.34370  0.85504  Biso   1.000  O
  C21      1.0000 0.64979  0.14678  0.64666  Biso   1.000  C
  C22      1.0000 0.85021  0.64678  0.85334  Biso   1.000  C
  C23      1.0000 0.35021  0.85322  0.35334  Biso   1.000  C
  C24      1.0000 0.14979  0.35322  0.14666  Biso   1.000  C
  N21      1.0000 0.79271  0.21780  0.41871  Biso   1.000  N
  N22      1.0000 0.70729  0.71780  0.08129  Biso   1.000  N
  N23      1.0000 0.20729  0.78220  0.58129  Biso   1.000  N
  N24      1.0000 0.29271  0.28220  0.91871  Biso   1.000  N
  O21      1.0000 0.74876  0.34560  0.40848  Biso   1.000  O
  O22      1.0000 0.75124  0.84560  0.09152  Biso   1.000  O
  O23      1.0000 0.25124  0.65440  0.59152  Biso   1.000  O
  O24      1.0000 0.24876  0.15440  0.90848  Biso   1.000  O
  C25      1.0000 0.72433  0.01689  0.68478  Biso   1.000  C
  C26      1.0000 0.77567  0.51689  0.81522  Biso   1.000  C
  C27      1.0000 0.27567  0.98311  0.31522  Biso   1.000  C
  C28      1.0000 0.22433  0.48311  0.18478  Biso   1.000  C
  C29      1.0000 0.78385  0.73117  0.54358  Biso   1.000  C
  C30      1.0000 0.71615  0.23117  0.95642  Biso   1.000  C
  C31      1.0000 0.21615  0.26883  0.45642  Biso   1.000  C
  C32      1.0000 0.28385  0.76883  0.04358  Biso   1.000  C
  H17      1.0000 0.75170  0.82550  0.52000  Biso   1.000  H
  H18      1.0000 0.74830  0.32550  0.98000  Biso   1.000  H
  H19      1.0000 0.24830  0.17450  0.48000  Biso   1.000  H
  H20      1.0000 0.25170  0.67450  0.02000  Biso   1.000  H
  C33      1.0000 0.97317  0.44842  0.63017  Biso   1.000  C
  C34      1.0000 0.52683  0.94842  0.86983  Biso   1.000  C
  C35      1.0000 0.02683  0.55158  0.36983  Biso   1.000  C
  C36      1.0000 0.47317  0.05158  0.13017  Biso   1.000  C
  C37      1.0000 0.87792  0.70622  0.56441  Biso   1.000  C
  C38      1.0000 0.62208  0.20622  0.93559  Biso   1.000  C
  C39      1.0000 0.12208  0.29378  0.43559  Biso   1.000  C
  C40      1.0000 0.37792  0.79378  0.06441  Biso   1.000  C
  C41      1.0000 0.02279  0.19850  0.69322  Biso   1.000  C
  C42      1.0000 0.47721  0.69850  0.80678  Biso   1.000  C
  C43      1.0000 0.97721  0.80150  0.30678  Biso   1.000  C
  C44      1.0000 0.52279  0.30150  0.19322  Biso   1.000  C
  H21      1.0000 0.00950  0.09880  0.71470  Biso   1.000  H
  H22      1.0000 0.49050  0.59880  0.78530  Biso   1.000  H
  H23      1.0000 0.99050  0.90120  0.28530  Biso   1.000  H
  H24      1.0000 0.50950  0.40120  0.21470  Biso   1.000  H
  C45      1.0000 0.64676  0.54468  0.54960  Biso   1.000  C
  C46      1.0000 0.85324  0.04468  0.95040  Biso   1.000  C
  C47      1.0000 0.35324  0.45532  0.45040  Biso   1.000  C
  C48      1.0000 0.14676  0.95532  0.04960  Biso   1.000  C
  C49      1.0000 0.50323  0.98930  0.61453  Biso   1.000  C
  C50      1.0000 0.99677  0.48930  0.88547  Biso   1.000  C
  C51      1.0000 0.49677  0.01070  0.38547  Biso   1.000  C
  C52      1.0000 0.00323  0.51070  0.11453  Biso   1.000  C
  H25      1.0000 0.53040  0.90670  0.59030  Biso   1.000  H
  H26      1.0000 0.96960  0.40670  0.90970  Biso   1.000  H
  H27      1.0000 0.46960  0.09330  0.40970  Biso   1.000  H
  H28      1.0000 0.03040  0.59330  0.09030  Biso   1.000  H
  C53      1.0000 0.06139  0.48990  0.62961  Biso   1.000  C
  C54      1.0000 0.43861  0.98990  0.87039  Biso   1.000  C
  C55      1.0000 0.93861  0.51010  0.37039  Biso   1.000  C
  C56      1.0000 0.56139  0.01010  0.12961  Biso   1.000  C
  H29      1.0000 0.07330  0.58990  0.60740  Biso   1.000  H
  H30      1.0000 0.42670  0.08990  0.89260  Biso   1.000  H
  H31      1.0000 0.92670  0.41010  0.39260  Biso   1.000  H
  H32      1.0000 0.57330  0.91010  0.10740  Biso   1.000  H
  C57      1.0000 0.95111  0.82060  0.55518  Biso   1.000  C
  C58      1.0000 0.54889  0.32060  0.94482  Biso   1.000  C
  C59      1.0000 0.04889  0.17940  0.44482  Biso   1.000  C
  C60      1.0000 0.45111  0.67940  0.05518  Biso   1.000  C
  H33      1.0000 0.99710  0.83460  0.61310  Biso   1.000  H
  H34      1.0000 0.50290  0.33460  0.88690  Biso   1.000  H
  H35      1.0000 0.00290  0.16540  0.38690  Biso   1.000  H
  H36      1.0000 0.49710  0.66540  0.11310  Biso   1.000  H
  H37      1.0000 0.92330  0.92370  0.53370  Biso   1.000  H
  H38      1.0000 0.57670  0.42370  0.96630  Biso   1.000  H
  H39      1.0000 0.07670  0.07630  0.46630  Biso   1.000  H
  H40      1.0000 0.42330  0.57630  0.03370  Biso   1.000  H
  H41      1.0000 0.98000  0.77730  0.51280  Biso   1.000  H
  H42      1.0000 0.52000  0.27730  0.98720  Biso   1.000  H
  H43      1.0000 0.02000  0.22270  0.48720  Biso   1.000  H
  H44      1.0000 0.48000  0.72270  0.01280  Biso   1.000  H
  C61      1.0000 0.41214  0.97530  0.61504  Biso   1.000  C
  C62      1.0000 0.08786  0.47530  0.88496  Biso   1.000  C
  C63      1.0000 0.58786  0.02470  0.38496  Biso   1.000  C
  C64      1.0000 0.91214  0.52470  0.11504  Biso   1.000  C
  H45      1.0000 0.37750  0.88410  0.59000  Biso   1.000  H
  H46      1.0000 0.12250  0.38410  0.91000  Biso   1.000  H
  H47      1.0000 0.62250  0.11590  0.41000  Biso   1.000  H
  H48      1.0000 0.87750  0.61590  0.09000  Biso   1.000  H
  C65      1.0000 0.13180  0.37810  0.66320  Biso   1.000  C
  C66      1.0000 0.36820  0.87810  0.83680  Biso   1.000  C
  C67      1.0000 0.86820  0.62190  0.33680  Biso   1.000  C
  C68      1.0000 0.63180  0.12190  0.16320  Biso   1.000  C
  H49      1.0000 0.19210  0.40250  0.66340  Biso   1.000  H
  H50      1.0000 0.30790  0.90250  0.83660  Biso   1.000  H
  H51      1.0000 0.80790  0.59750  0.33660  Biso   1.000  H
  H52      1.0000 0.69210  0.09750  0.16340  Biso   1.000  H
  C69      1.0000 0.37247  0.09670  0.65279  Biso   1.000  C
  C70      1.0000 0.12753  0.59670  0.84721  Biso   1.000  C
  C71      1.0000 0.62753  0.90330  0.34721  Biso   1.000  C
  C72      1.0000 0.87247  0.40330  0.15279  Biso   1.000  C
  H53      1.0000 0.31090  0.08750  0.65240  Biso   1.000  H
  H54      1.0000 0.18910  0.58750  0.84760  Biso   1.000  H
  H55      1.0000 0.68910  0.91250  0.34760  Biso   1.000  H
  H56      1.0000 0.81090  0.41250  0.15240  Biso   1.000  H
