data_image0
_cell_length_a       9.307
_cell_length_b       10.086
_cell_length_c       16.385
_cell_angle_alpha    90
_cell_angle_beta     90
_cell_angle_gamma    91.7

_symmetry_space_group_name_H-M    "P 1"
_symmetry_int_tables_number       1

loop_
  _symmetry_equiv_pos_as_xyz
  'x, y, z'

loop_
  _atom_site_label
  _atom_site_occupancy
  _atom_site_fract_x
  _atom_site_fract_y
  _atom_site_fract_z
  _atom_site_thermal_displace_type
  _atom_site_B_iso_or_equiv
  _atom_site_type_symbol
  Cu1      1.0000 0.08420  0.32210  0.21170  Biso   1.000  Cu
  Cu2      1.0000 0.41580  0.67790  0.71170  Biso   1.000  Cu
  Cu3      1.0000 0.91580  0.67790  0.78830  Biso   1.000  Cu
  Cu4      1.0000 0.58420  0.32210  0.28830  Biso   1.000  Cu
  Cl1      1.0000 0.29520  0.51440  0.09650  Biso   1.000  Cl
  Cl2      1.0000 0.20480  0.48560  0.59650  Biso   1.000  Cl
  Cl3      1.0000 0.70480  0.48560  0.90350  Biso   1.000  Cl
  Cl4      1.0000 0.79520  0.51440  0.40350  Biso   1.000  Cl
  Cl5      1.0000 0.66140  0.66740  0.09920  Biso   1.000  Cl
  Cl6      1.0000 0.83860  0.33260  0.59920  Biso   1.000  Cl
  Cl7      1.0000 0.33860  0.33260  0.90080  Biso   1.000  Cl
  Cl8      1.0000 0.16140  0.66740  0.40080  Biso   1.000  Cl
  Cl9      1.0000 0.06000  0.22620  0.41570  Biso   1.000  Cl
  Cl10     1.0000 0.44000  0.77380  0.91570  Biso   1.000  Cl
  Cl11     1.0000 0.94000  0.77380  0.58430  Biso   1.000  Cl
  Cl12     1.0000 0.56000  0.22620  0.08430  Biso   1.000  Cl
  Cl13     1.0000 0.37260  0.86920  0.17580  Biso   1.000  Cl
  Cl14     1.0000 0.12740  0.13080  0.67580  Biso   1.000  Cl
  Cl15     1.0000 0.62740  0.13080  0.82420  Biso   1.000  Cl
  Cl16     1.0000 0.87260  0.86920  0.32420  Biso   1.000  Cl
  O1       1.0000 0.66870  0.44550  0.20960  Biso   1.000  O
  O2       1.0000 0.83130  0.55450  0.70960  Biso   1.000  O
  O3       1.0000 0.33130  0.55450  0.79040  Biso   1.000  O
  O4       1.0000 0.16870  0.44550  0.29040  Biso   1.000  O
  O5       1.0000 0.86150  0.33780  0.23950  Biso   1.000  O
  O6       1.0000 0.63850  0.66220  0.73950  Biso   1.000  O
  O7       1.0000 0.13850  0.66220  0.76050  Biso   1.000  O
  O8       1.0000 0.36150  0.33780  0.26050  Biso   1.000  O
  O9       1.0000 0.09100  0.20760  0.11830  Biso   1.000  O
  O10      1.0000 0.40900  0.79240  0.61830  Biso   1.000  O
  O11      1.0000 0.90900  0.79240  0.88170  Biso   1.000  O
  O12      1.0000 0.59100  0.20760  0.38170  Biso   1.000  O
  O13      1.0000 0.16280  0.01370  0.07720  Biso   1.000  O
  O14      1.0000 0.33720  0.98630  0.57720  Biso   1.000  O
  O15      1.0000 0.83720  0.98630  0.92280  Biso   1.000  O
  O16      1.0000 0.66280  0.01370  0.42280  Biso   1.000  O
  N1       1.0000 0.02840  0.48110  0.14410  Biso   1.000  N
  N2       1.0000 0.47160  0.51890  0.64410  Biso   1.000  N
  N3       1.0000 0.97160  0.51890  0.85590  Biso   1.000  N
  N4       1.0000 0.52840  0.48110  0.35590  Biso   1.000  N
  N5       1.0000 0.13530  0.15160  0.26880  Biso   1.000  N
  N6       1.0000 0.36470  0.84840  0.76880  Biso   1.000  N
  N7       1.0000 0.86470  0.84840  0.73120  Biso   1.000  N
  N8       1.0000 0.63530  0.15160  0.23120  Biso   1.000  N
  C1       1.0000 0.80340  0.42570  0.20160  Biso   1.000  C
  C2       1.0000 0.69660  0.57430  0.70160  Biso   1.000  C
  C3       1.0000 0.19660  0.57430  0.79840  Biso   1.000  C
  C4       1.0000 0.30340  0.42570  0.29840  Biso   1.000  C
  C5       1.0000 0.88630  0.51540  0.14470  Biso   1.000  C
  C6       1.0000 0.61370  0.48460  0.64470  Biso   1.000  C
  C7       1.0000 0.11370  0.48460  0.85530  Biso   1.000  C
  C8       1.0000 0.38630  0.51540  0.35530  Biso   1.000  C
  C9       1.0000 0.11610  0.56240  0.09430  Biso   1.000  C
  C10      1.0000 0.38390  0.43760  0.59430  Biso   1.000  C
  C11      1.0000 0.88390  0.43760  0.90570  Biso   1.000  C
  C12      1.0000 0.61610  0.56240  0.40570  Biso   1.000  C
  C13      1.0000 0.08270  0.66510  0.05420  Biso   1.000  C
  C14      1.0000 0.41730  0.33490  0.55420  Biso   1.000  C
  C15      1.0000 0.91730  0.33490  0.94580  Biso   1.000  C
  C16      1.0000 0.58270  0.66510  0.44580  Biso   1.000  C
  C17      1.0000 0.93210  0.70100  0.05330  Biso   1.000  C
  C18      1.0000 0.56790  0.29900  0.55330  Biso   1.000  C
  C19      1.0000 0.06790  0.29900  0.94670  Biso   1.000  C
  C20      1.0000 0.43210  0.70100  0.44670  Biso   1.000  C
  C21      1.0000 0.83970  0.62290  0.10240  Biso   1.000  C
  C22      1.0000 0.66030  0.37710  0.60240  Biso   1.000  C
  C23      1.0000 0.16030  0.37710  0.89760  Biso   1.000  C
  C24      1.0000 0.33970  0.62290  0.39760  Biso   1.000  C
  C25      1.0000 0.14480  0.09750  0.12660  Biso   1.000  C
  C26      1.0000 0.35520  0.90250  0.62660  Biso   1.000  C
  C27      1.0000 0.85520  0.90250  0.87340  Biso   1.000  C
  C28      1.0000 0.64480  0.09750  0.37340  Biso   1.000  C
  C29      1.0000 0.19490  0.07390  0.21340  Biso   1.000  C
  C30      1.0000 0.30510  0.92610  0.71340  Biso   1.000  C
  C31      1.0000 0.80510  0.92610  0.78660  Biso   1.000  C
  C32      1.0000 0.69490  0.07390  0.28660  Biso   1.000  C
  C33      1.0000 0.15510  0.13160  0.35000  Biso   1.000  C
  C34      1.0000 0.34490  0.86840  0.85000  Biso   1.000  C
  C35      1.0000 0.84490  0.86840  0.65000  Biso   1.000  C
  C36      1.0000 0.65510  0.13160  0.15000  Biso   1.000  C
  C37      1.0000 0.24400  0.03580  0.38260  Biso   1.000  C
  C38      1.0000 0.25600  0.96420  0.88260  Biso   1.000  C
  C39      1.0000 0.75600  0.96420  0.61740  Biso   1.000  C
  C40      1.0000 0.74400  0.03580  0.11740  Biso   1.000  C
  C41      1.0000 0.31410  0.95960  0.32290  Biso   1.000  C
  C42      1.0000 0.18590  0.04040  0.82290  Biso   1.000  C
  C43      1.0000 0.68590  0.04040  0.67710  Biso   1.000  C
  C44      1.0000 0.81410  0.95960  0.17710  Biso   1.000  C
  C45      1.0000 0.28400  0.96980  0.24100  Biso   1.000  C
  C46      1.0000 0.21600  0.03020  0.74100  Biso   1.000  C
  C47      1.0000 0.71600  0.03020  0.75900  Biso   1.000  C
  C48      1.0000 0.78400  0.96980  0.25900  Biso   1.000  C
