data_image0
_cell_length_a       9.962
_cell_length_b       14.709
_cell_length_c       13.73
_cell_angle_alpha    90
_cell_angle_beta     104.982
_cell_angle_gamma    90

_symmetry_space_group_name_H-M    "P 1"
_symmetry_int_tables_number       1

loop_
  _symmetry_equiv_pos_as_xyz
  'x, y, z'

loop_
  _atom_site_label
  _atom_site_occupancy
  _atom_site_fract_x
  _atom_site_fract_y
  _atom_site_fract_z
  _atom_site_thermal_displace_type
  _atom_site_B_iso_or_equiv
  _atom_site_type_symbol
  O1       1.0000 0.03970  0.53440  0.64610  Biso   1.000  O
  O2       1.0000 0.96030  0.03440  0.85390  Biso   1.000  O
  O3       1.0000 0.96030  0.46560  0.35390  Biso   1.000  O
  O4       1.0000 0.03970  0.96560  0.14610  Biso   1.000  O
  H1       1.0000 0.01850  0.57290  0.68490  Biso   1.000  H
  H2       1.0000 0.98150  0.07290  0.81510  Biso   1.000  H
  H3       1.0000 0.98150  0.42710  0.31510  Biso   1.000  H
  H4       1.0000 0.01850  0.92710  0.18490  Biso   1.000  H
  H5       1.0000 0.05850  0.48200  0.66820  Biso   1.000  H
  H6       1.0000 0.94150  0.98200  0.83180  Biso   1.000  H
  H7       1.0000 0.94150  0.51800  0.33180  Biso   1.000  H
  H8       1.0000 0.05850  0.01800  0.16820  Biso   1.000  H
  O5       1.0000 0.01390  0.50494  0.84610  Biso   1.000  O
  O6       1.0000 0.98610  0.00494  0.65390  Biso   1.000  O
  O7       1.0000 0.98610  0.49506  0.15390  Biso   1.000  O
  O8       1.0000 0.01390  0.99506  0.34610  Biso   1.000  O
  H9       1.0000 0.97990  0.54010  0.87090  Biso   1.000  H
  H10      1.0000 0.02010  0.04010  0.62910  Biso   1.000  H
  H11      1.0000 0.02010  0.45990  0.12910  Biso   1.000  H
  H12      1.0000 0.97990  0.95990  0.37090  Biso   1.000  H
  H13      1.0000 0.05320  0.45540  0.86790  Biso   1.000  H
  H14      1.0000 0.94680  0.95540  0.63210  Biso   1.000  H
  H15      1.0000 0.94680  0.54460  0.13210  Biso   1.000  H
  H16      1.0000 0.05320  0.04460  0.36790  Biso   1.000  H
  C1       1.0000 0.87190  0.74130  0.24800  Biso   1.000  C
  C2       1.0000 0.12810  0.24130  0.25200  Biso   1.000  C
  C3       1.0000 0.12810  0.25870  0.75200  Biso   1.000  C
  C4       1.0000 0.87190  0.75870  0.74800  Biso   1.000  C
  C5       1.0000 0.00210  0.72010  0.32900  Biso   1.000  C
  C6       1.0000 0.99790  0.22010  0.17100  Biso   1.000  C
  C7       1.0000 0.99790  0.27990  0.67100  Biso   1.000  C
  C8       1.0000 0.00210  0.77990  0.82900  Biso   1.000  C
  C9       1.0000 0.10780  0.66840  0.30730  Biso   1.000  C
  C10      1.0000 0.89220  0.16840  0.19270  Biso   1.000  C
  C11      1.0000 0.89220  0.33160  0.69270  Biso   1.000  C
  C12      1.0000 0.10780  0.83160  0.80730  Biso   1.000  C
  H17      1.0000 0.09820  0.64700  0.24220  Biso   1.000  H
  H18      1.0000 0.90180  0.14700  0.25780  Biso   1.000  H
  H19      1.0000 0.90180  0.35300  0.75780  Biso   1.000  H
  H20      1.0000 0.09820  0.85300  0.74220  Biso   1.000  H
  C13      1.0000 0.22760  0.64860  0.38240  Biso   1.000  C
  C14      1.0000 0.77240  0.14860  0.11760  Biso   1.000  C
  C15      1.0000 0.77240  0.35140  0.61760  Biso   1.000  C
  C16      1.0000 0.22760  0.85140  0.88240  Biso   1.000  C
  H21      1.0000 0.29720  0.61330  0.36750  Biso   1.000  H
  H22      1.0000 0.70280  0.11330  0.13250  Biso   1.000  H
  H23      1.0000 0.70280  0.38670  0.63250  Biso   1.000  H
  H24      1.0000 0.29720  0.88670  0.86750  Biso   1.000  H
  C17      1.0000 0.24330  0.68120  0.47860  Biso   1.000  C
  C18      1.0000 0.75670  0.18120  0.02140  Biso   1.000  C
  C19      1.0000 0.75670  0.31880  0.52140  Biso   1.000  C
  C20      1.0000 0.24330  0.81880  0.97860  Biso   1.000  C
  H25      1.0000 0.32400  0.66820  0.52830  Biso   1.000  H
  H26      1.0000 0.67600  0.16820  0.97170  Biso   1.000  H
  H27      1.0000 0.67600  0.33180  0.47170  Biso   1.000  H
  H28      1.0000 0.32400  0.83180  0.02830  Biso   1.000  H
  C21      1.0000 0.14050  0.73300  0.50200  Biso   1.000  C
  C22      1.0000 0.85950  0.23300  0.99800  Biso   1.000  C
  C23      1.0000 0.85950  0.26700  0.49800  Biso   1.000  C
  C24      1.0000 0.14050  0.76700  0.00200  Biso   1.000  C
  H29      1.0000 0.15240  0.75460  0.56740  Biso   1.000  H
  H30      1.0000 0.84760  0.25460  0.93260  Biso   1.000  H
  H31      1.0000 0.84760  0.24540  0.43260  Biso   1.000  H
  H32      1.0000 0.15240  0.74540  0.06740  Biso   1.000  H
  C25      1.0000 0.01820  0.75310  0.42810  Biso   1.000  C
  C26      1.0000 0.98180  0.25310  0.07190  Biso   1.000  C
  C27      1.0000 0.98180  0.24690  0.57190  Biso   1.000  C
  C28      1.0000 0.01820  0.74690  0.92810  Biso   1.000  C
  C29      1.0000 0.90570  0.80250  0.46230  Biso   1.000  C
  C30      1.0000 0.09430  0.30250  0.03770  Biso   1.000  C
  C31      1.0000 0.09430  0.19750  0.53770  Biso   1.000  C
  C32      1.0000 0.90570  0.69750  0.96230  Biso   1.000  C
  C33      1.0000 0.58690  0.58510  0.20730  Biso   1.000  C
  C34      1.0000 0.41310  0.08510  0.29270  Biso   1.000  C
  C35      1.0000 0.41310  0.41490  0.79270  Biso   1.000  C
  C36      1.0000 0.58690  0.91490  0.70730  Biso   1.000  C
  H33      1.0000 0.67270  0.59710  0.25180  Biso   1.000  H
  H34      1.0000 0.32730  0.09710  0.24820  Biso   1.000  H
  H35      1.0000 0.32730  0.40290  0.74820  Biso   1.000  H
  H36      1.0000 0.67270  0.90290  0.75180  Biso   1.000  H
  C37      1.0000 0.48970  0.53580  0.24160  Biso   1.000  C
  C38      1.0000 0.51030  0.03580  0.25840  Biso   1.000  C
  C39      1.0000 0.51030  0.46420  0.75840  Biso   1.000  C
  C40      1.0000 0.48970  0.96420  0.74160  Biso   1.000  C
  H37      1.0000 0.50950  0.51600  0.30810  Biso   1.000  H
  H38      1.0000 0.49050  0.01600  0.19190  Biso   1.000  H
  H39      1.0000 0.49050  0.48400  0.69190  Biso   1.000  H
  H40      1.0000 0.50950  0.98400  0.80810  Biso   1.000  H
  C41      1.0000 0.36310  0.51670  0.17540  Biso   1.000  C
  C42      1.0000 0.63690  0.01670  0.32460  Biso   1.000  C
  C43      1.0000 0.63690  0.48330  0.82460  Biso   1.000  C
  C44      1.0000 0.36310  0.98330  0.67540  Biso   1.000  C
  H41      1.0000 0.29630  0.48350  0.19650  Biso   1.000  H
  H42      1.0000 0.70370  0.98350  0.30350  Biso   1.000  H
  H43      1.0000 0.70370  0.51650  0.80350  Biso   1.000  H
  H44      1.0000 0.29630  0.01650  0.69650  Biso   1.000  H
  C45      1.0000 0.33680  0.54760  0.07660  Biso   1.000  C
  C46      1.0000 0.66320  0.04760  0.42340  Biso   1.000  C
  C47      1.0000 0.66320  0.45240  0.92340  Biso   1.000  C
  C48      1.0000 0.33680  0.95240  0.57660  Biso   1.000  C
  H45      1.0000 0.25190  0.53560  0.03110  Biso   1.000  H
  H46      1.0000 0.74810  0.03560  0.46890  Biso   1.000  H
  H47      1.0000 0.74810  0.46440  0.96890  Biso   1.000  H
  H48      1.0000 0.25190  0.96440  0.53110  Biso   1.000  H
  C49      1.0000 0.43810  0.59650  0.04650  Biso   1.000  C
  C50      1.0000 0.56190  0.09650  0.45350  Biso   1.000  C
  C51      1.0000 0.56190  0.40350  0.95350  Biso   1.000  C
  C52      1.0000 0.43810  0.90350  0.54650  Biso   1.000  C
  C53      1.0000 0.42260  0.63230  0.94320  Biso   1.000  C
  C54      1.0000 0.57740  0.13230  0.55680  Biso   1.000  C
  C55      1.0000 0.57740  0.36770  0.05680  Biso   1.000  C
  C56      1.0000 0.42260  0.86770  0.44320  Biso   1.000  C
  C57      1.0000 0.30750  0.61680  0.86270  Biso   1.000  C
  C58      1.0000 0.69250  0.11680  0.63730  Biso   1.000  C
  C59      1.0000 0.69250  0.38320  0.13730  Biso   1.000  C
  C60      1.0000 0.30750  0.88320  0.36270  Biso   1.000  C
  H49      1.0000 0.23360  0.58180  0.87130  Biso   1.000  H
  H50      1.0000 0.76640  0.08180  0.62870  Biso   1.000  H
  H51      1.0000 0.76640  0.41820  0.12870  Biso   1.000  H
  H52      1.0000 0.23360  0.91820  0.37130  Biso   1.000  H
  C61      1.0000 0.30460  0.65420  0.76950  Biso   1.000  C
  C62      1.0000 0.69540  0.15420  0.73050  Biso   1.000  C
  C63      1.0000 0.69540  0.34580  0.23050  Biso   1.000  C
  C64      1.0000 0.30460  0.84580  0.26950  Biso   1.000  C
  H53      1.0000 0.22800  0.64510  0.71490  Biso   1.000  H
  H54      1.0000 0.77200  0.14510  0.78510  Biso   1.000  H
  H55      1.0000 0.77200  0.35490  0.28510  Biso   1.000  H
  H56      1.0000 0.22800  0.85490  0.21490  Biso   1.000  H
  C65      1.0000 0.41550  0.70470  0.75840  Biso   1.000  C
  C66      1.0000 0.58450  0.20470  0.74160  Biso   1.000  C
  C67      1.0000 0.58450  0.29530  0.24160  Biso   1.000  C
  C68      1.0000 0.41550  0.79530  0.25840  Biso   1.000  C
  H57      1.0000 0.41480  0.73060  0.69650  Biso   1.000  H
  H58      1.0000 0.58520  0.23060  0.80350  Biso   1.000  H
  H59      1.0000 0.58520  0.26940  0.30350  Biso   1.000  H
  H60      1.0000 0.41480  0.76940  0.19650  Biso   1.000  H
  C69      1.0000 0.52870  0.71650  0.84110  Biso   1.000  C
  C70      1.0000 0.47130  0.21650  0.65890  Biso   1.000  C
  C71      1.0000 0.47130  0.28350  0.15890  Biso   1.000  C
  C72      1.0000 0.52870  0.78350  0.34110  Biso   1.000  C
  H61      1.0000 0.60430  0.75030  0.83350  Biso   1.000  H
  H62      1.0000 0.39570  0.25030  0.66650  Biso   1.000  H
  H63      1.0000 0.39570  0.24970  0.16650  Biso   1.000  H
  H64      1.0000 0.60430  0.74970  0.33350  Biso   1.000  H
  Cu1      1.0000 0.68999  0.69378  0.05410  Biso   1.000  Cu
  Cu2      1.0000 0.31001  0.19378  0.44590  Biso   1.000  Cu
  Cu3      1.0000 0.31001  0.30622  0.94590  Biso   1.000  Cu
  Cu4      1.0000 0.68999  0.80622  0.55410  Biso   1.000  Cu
  N1       1.0000 0.53220  0.68070  0.93150  Biso   1.000  N
  N2       1.0000 0.46780  0.18070  0.56850  Biso   1.000  N
  N3       1.0000 0.46780  0.31930  0.06850  Biso   1.000  N
  N4       1.0000 0.53220  0.81930  0.43150  Biso   1.000  N
  N5       1.0000 0.56210  0.61630  0.11220  Biso   1.000  N
  N6       1.0000 0.43790  0.11630  0.38780  Biso   1.000  N
  N7       1.0000 0.43790  0.38370  0.88780  Biso   1.000  N
  N8       1.0000 0.56210  0.88370  0.61220  Biso   1.000  N
  O9       1.0000 0.80080  0.80800  0.25820  Biso   1.000  O
  O10      1.0000 0.19920  0.30800  0.24180  Biso   1.000  O
  O11      1.0000 0.19920  0.19200  0.74180  Biso   1.000  O
  O12      1.0000 0.80080  0.69200  0.75820  Biso   1.000  O
  O13      1.0000 0.84440  0.68584  0.17380  Biso   1.000  O
  O14      1.0000 0.15560  0.18584  0.32620  Biso   1.000  O
  O15      1.0000 0.15560  0.31416  0.82620  Biso   1.000  O
  O16      1.0000 0.84440  0.81416  0.67380  Biso   1.000  O
  O17      1.0000 0.81110  0.74982  0.47850  Biso   1.000  O
  O18      1.0000 0.18890  0.24982  0.02150  Biso   1.000  O
  O19      1.0000 0.18890  0.25018  0.52150  Biso   1.000  O
  O20      1.0000 0.81110  0.75018  0.97850  Biso   1.000  O
  O21      1.0000 0.91220  0.88500  0.48010  Biso   1.000  O
  O22      1.0000 0.08780  0.38500  0.01990  Biso   1.000  O
  O23      1.0000 0.08780  0.11500  0.51990  Biso   1.000  O
  O24      1.0000 0.91220  0.61500  0.98010  Biso   1.000  O
  O25      1.0000 0.60970  0.84390  0.08540  Biso   1.000  O
  O26      1.0000 0.39030  0.34390  0.41460  Biso   1.000  O
  O27      1.0000 0.39030  0.15610  0.91460  Biso   1.000  O
  O28      1.0000 0.60970  0.65610  0.58540  Biso   1.000  O
  H65      1.0000 0.53390  0.82800  0.08980  Biso   1.000  H
  H66      1.0000 0.46610  0.32800  0.41020  Biso   1.000  H
  H67      1.0000 0.46610  0.17200  0.91020  Biso   1.000  H
  H68      1.0000 0.53390  0.67200  0.58980  Biso   1.000  H
  H69      1.0000 0.66720  0.85580  0.13420  Biso   1.000  H
  H70      1.0000 0.33280  0.35580  0.36580  Biso   1.000  H
  H71      1.0000 0.33280  0.14420  0.86580  Biso   1.000  H
  H72      1.0000 0.66720  0.64420  0.63420  Biso   1.000  H
  O29      1.0000 0.80950  0.56150  0.46520  Biso   1.000  O
  O30      1.0000 0.19050  0.06150  0.03480  Biso   1.000  O
  O31      1.0000 0.19050  0.43850  0.53480  Biso   1.000  O
  O32      1.0000 0.80950  0.93850  0.96520  Biso   1.000  O
  H73      1.0000 0.81820  0.61670  0.45670  Biso   1.000  H
  H74      1.0000 0.18180  0.11670  0.04330  Biso   1.000  H
  H75      1.0000 0.18180  0.38330  0.54330  Biso   1.000  H
  H76      1.0000 0.81820  0.88330  0.95670  Biso   1.000  H
  H77      1.0000 0.84060  0.52790  0.41400  Biso   1.000  H
  H78      1.0000 0.15940  0.02790  0.08600  Biso   1.000  H
  H79      1.0000 0.15940  0.47210  0.58600  Biso   1.000  H
  H80      1.0000 0.84060  0.97210  0.91400  Biso   1.000  H
  O33      1.0000 0.55710  0.51270  0.49350  Biso   1.000  O
  O34      1.0000 0.44290  0.01270  0.00650  Biso   1.000  O
  O35      1.0000 0.44290  0.48730  0.50650  Biso   1.000  O
  O36      1.0000 0.55710  0.98730  0.99350  Biso   1.000  O
  H81      1.0000 0.64490  0.50480  0.49260  Biso   1.000  H
  H82      1.0000 0.35510  0.00480  0.00740  Biso   1.000  H
  H83      1.0000 0.35510  0.49520  0.50740  Biso   1.000  H
  H84      1.0000 0.64490  0.99520  0.99260  Biso   1.000  H
  H85      1.0000 0.53100  0.55480  0.44370  Biso   1.000  H
  H86      1.0000 0.46900  0.05480  0.05630  Biso   1.000  H
  H87      1.0000 0.46900  0.44520  0.55630  Biso   1.000  H
  H88      1.0000 0.53100  0.94520  0.94370  Biso   1.000  H
