data_image0
_cell_length_a       9.9585
_cell_length_b       14.8312
_cell_length_c       13.6875
_cell_angle_alpha    90
_cell_angle_beta     104.8
_cell_angle_gamma    90

_symmetry_space_group_name_H-M    "P 1"
_symmetry_int_tables_number       1

loop_
  _symmetry_equiv_pos_as_xyz
  'x, y, z'

loop_
  _atom_site_label
  _atom_site_occupancy
  _atom_site_fract_x
  _atom_site_fract_y
  _atom_site_fract_z
  _atom_site_thermal_displace_type
  _atom_site_B_iso_or_equiv
  _atom_site_type_symbol
  Cu1      1.0000 0.68980  0.80720  0.55590  Biso   1.000  Cu
  Cu2      1.0000 0.31020  0.30720  0.94410  Biso   1.000  Cu
  Cu3      1.0000 0.31020  0.19280  0.44410  Biso   1.000  Cu
  Cu4      1.0000 0.68980  0.69280  0.05590  Biso   1.000  Cu
  O1       1.0000 0.84230  0.81390  0.67550  Biso   1.000  O
  O2       1.0000 0.15770  0.31390  0.82450  Biso   1.000  O
  O3       1.0000 0.15770  0.18610  0.32450  Biso   1.000  O
  O4       1.0000 0.84230  0.68610  0.17550  Biso   1.000  O
  O5       1.0000 0.79870  0.69330  0.75850  Biso   1.000  O
  O6       1.0000 0.20130  0.19330  0.74150  Biso   1.000  O
  O7       1.0000 0.20130  0.30670  0.24150  Biso   1.000  O
  O8       1.0000 0.79870  0.80670  0.25850  Biso   1.000  O
  O9       1.0000 0.80990  0.74910  0.98090  Biso   1.000  O
  O10      1.0000 0.19010  0.24910  0.51910  Biso   1.000  O
  O11      1.0000 0.19010  0.25090  0.01910  Biso   1.000  O
  O12      1.0000 0.80990  0.75090  0.48090  Biso   1.000  O
  O13      1.0000 0.91070  0.61620  0.98020  Biso   1.000  O
  O14      1.0000 0.08930  0.11620  0.51980  Biso   1.000  O
  O15      1.0000 0.08930  0.38380  0.01980  Biso   1.000  O
  O16      1.0000 0.91070  0.88380  0.48020  Biso   1.000  O
  O17      1.0000 0.60510  0.65890  0.58960  Biso   1.000  O
  O18      1.0000 0.39490  0.15890  0.91040  Biso   1.000  O
  O19      1.0000 0.39490  0.34110  0.41040  Biso   1.000  O
  O20      1.0000 0.60510  0.84110  0.08960  Biso   1.000  O
  N1       1.0000 0.53230  0.81970  0.43380  Biso   1.000  N
  N2       1.0000 0.46770  0.31970  0.06620  Biso   1.000  N
  N3       1.0000 0.46770  0.18030  0.56620  Biso   1.000  N
  N4       1.0000 0.53230  0.68030  0.93380  Biso   1.000  N
  N5       1.0000 0.56240  0.88390  0.61340  Biso   1.000  N
  N6       1.0000 0.43760  0.38390  0.88660  Biso   1.000  N
  N7       1.0000 0.43760  0.11610  0.38660  Biso   1.000  N
  N8       1.0000 0.56240  0.61610  0.11340  Biso   1.000  N
  C1       1.0000 0.01530  0.74670  0.92890  Biso   1.000  C
  C2       1.0000 0.98470  0.24670  0.57110  Biso   1.000  C
  C3       1.0000 0.98470  0.25330  0.07110  Biso   1.000  C
  C4       1.0000 0.01530  0.75330  0.42890  Biso   1.000  C
  C5       1.0000 0.13700  0.76660  0.00220  Biso   1.000  C
  C6       1.0000 0.86300  0.26660  0.49780  Biso   1.000  C
  C7       1.0000 0.86300  0.23340  0.99780  Biso   1.000  C
  C8       1.0000 0.13700  0.73340  0.50220  Biso   1.000  C
  C9       1.0000 0.24000  0.81780  0.97950  Biso   1.000  C
  C10      1.0000 0.76000  0.31780  0.52050  Biso   1.000  C
  C11      1.0000 0.76000  0.18220  0.02050  Biso   1.000  C
  C12      1.0000 0.24000  0.68220  0.47950  Biso   1.000  C
  C13      1.0000 0.22310  0.85060  0.88280  Biso   1.000  C
  C14      1.0000 0.77690  0.35060  0.61720  Biso   1.000  C
  C15      1.0000 0.77690  0.14940  0.11720  Biso   1.000  C
  C16      1.0000 0.22310  0.64940  0.38280  Biso   1.000  C
  C17      1.0000 0.10420  0.83090  0.80940  Biso   1.000  C
  C18      1.0000 0.89580  0.33090  0.69060  Biso   1.000  C
  C19      1.0000 0.89580  0.16910  0.19060  Biso   1.000  C
  C20      1.0000 0.10420  0.66910  0.30940  Biso   1.000  C
  C21      1.0000 0.99870  0.77970  0.83050  Biso   1.000  C
  C22      1.0000 0.00130  0.27970  0.66950  Biso   1.000  C
  C23      1.0000 0.00130  0.22030  0.16950  Biso   1.000  C
  C24      1.0000 0.99870  0.72030  0.33050  Biso   1.000  C
  C25      1.0000 0.90360  0.69830  0.96330  Biso   1.000  C
  C26      1.0000 0.09640  0.19830  0.53670  Biso   1.000  C
  C27      1.0000 0.09640  0.30170  0.03670  Biso   1.000  C
  C28      1.0000 0.90360  0.80170  0.46330  Biso   1.000  C
  C29      1.0000 0.86930  0.75890  0.74930  Biso   1.000  C
  C30      1.0000 0.13070  0.25890  0.75070  Biso   1.000  C
  C31      1.0000 0.13070  0.24110  0.25070  Biso   1.000  C
  C32      1.0000 0.86930  0.74110  0.24930  Biso   1.000  C
  C33      1.0000 0.52770  0.78420  0.34390  Biso   1.000  C
  C34      1.0000 0.47230  0.28420  0.15610  Biso   1.000  C
  C35      1.0000 0.47230  0.21580  0.65610  Biso   1.000  C
  C36      1.0000 0.52770  0.71580  0.84390  Biso   1.000  C
  C37      1.0000 0.41510  0.79570  0.26210  Biso   1.000  C
  C38      1.0000 0.58490  0.29570  0.23790  Biso   1.000  C
  C39      1.0000 0.58490  0.20430  0.73790  Biso   1.000  C
  C40      1.0000 0.41510  0.70430  0.76210  Biso   1.000  C
  C41      1.0000 0.30590  0.84550  0.27230  Biso   1.000  C
  C42      1.0000 0.69410  0.34550  0.22770  Biso   1.000  C
  C43      1.0000 0.69410  0.15450  0.72770  Biso   1.000  C
  C44      1.0000 0.30590  0.65450  0.77230  Biso   1.000  C
  C45      1.0000 0.30830  0.88240  0.36500  Biso   1.000  C
  C46      1.0000 0.69170  0.38240  0.13500  Biso   1.000  C
  C47      1.0000 0.69170  0.11760  0.63500  Biso   1.000  C
  C48      1.0000 0.30830  0.61760  0.86500  Biso   1.000  C
  C49      1.0000 0.42370  0.86820  0.44560  Biso   1.000  C
  C50      1.0000 0.57630  0.36820  0.05440  Biso   1.000  C
  C51      1.0000 0.57630  0.13180  0.55440  Biso   1.000  C
  C52      1.0000 0.42370  0.63180  0.94560  Biso   1.000  C
  C53      1.0000 0.58730  0.91500  0.70850  Biso   1.000  C
  C54      1.0000 0.41270  0.41500  0.79150  Biso   1.000  C
  C55      1.0000 0.41270  0.08500  0.29150  Biso   1.000  C
  C56      1.0000 0.58730  0.58500  0.20850  Biso   1.000  C
  C57      1.0000 0.48980  0.96440  0.74150  Biso   1.000  C
  C58      1.0000 0.51020  0.46440  0.75850  Biso   1.000  C
  C59      1.0000 0.51020  0.03560  0.25850  Biso   1.000  C
  C60      1.0000 0.48980  0.53560  0.24150  Biso   1.000  C
  C61      1.0000 0.36450  0.98310  0.67600  Biso   1.000  C
  C62      1.0000 0.63550  0.48310  0.82400  Biso   1.000  C
  C63      1.0000 0.63550  0.01690  0.32400  Biso   1.000  C
  C64      1.0000 0.36450  0.51690  0.17600  Biso   1.000  C
  C65      1.0000 0.33850  0.95250  0.57810  Biso   1.000  C
  C66      1.0000 0.66150  0.45250  0.92190  Biso   1.000  C
  C67      1.0000 0.66150  0.04750  0.42190  Biso   1.000  C
  C68      1.0000 0.33850  0.54750  0.07810  Biso   1.000  C
  C69      1.0000 0.43890  0.90290  0.54850  Biso   1.000  C
  C70      1.0000 0.56110  0.40290  0.95150  Biso   1.000  C
  C71      1.0000 0.56110  0.09710  0.45150  Biso   1.000  C
  C72      1.0000 0.43890  0.59710  0.04850  Biso   1.000  C
  H1       1.0000 0.14870  0.74490  0.06760  Biso   1.000  H
  H2       1.0000 0.85130  0.24490  0.43240  Biso   1.000  H
  H3       1.0000 0.85130  0.25510  0.93240  Biso   1.000  H
  H4       1.0000 0.14870  0.75510  0.56760  Biso   1.000  H
  H5       1.0000 0.32080  0.83040  0.02930  Biso   1.000  H
  H6       1.0000 0.67920  0.33040  0.47070  Biso   1.000  H
  H7       1.0000 0.67920  0.16960  0.97070  Biso   1.000  H
  H8       1.0000 0.32080  0.66960  0.52930  Biso   1.000  H
  H9       1.0000 0.29210  0.88590  0.86740  Biso   1.000  H
  H10      1.0000 0.70790  0.38590  0.63260  Biso   1.000  H
  H11      1.0000 0.70790  0.11410  0.13260  Biso   1.000  H
  H12      1.0000 0.29210  0.61410  0.36740  Biso   1.000  H
  H13      1.0000 0.09430  0.85240  0.74410  Biso   1.000  H
  H14      1.0000 0.90570  0.35240  0.75590  Biso   1.000  H
  H15      1.0000 0.90570  0.14760  0.25590  Biso   1.000  H
  H16      1.0000 0.09430  0.64760  0.24410  Biso   1.000  H
  H17      1.0000 0.60300  0.75050  0.33590  Biso   1.000  H
  H18      1.0000 0.39700  0.25050  0.16410  Biso   1.000  H
  H19      1.0000 0.39700  0.24950  0.66410  Biso   1.000  H
  H20      1.0000 0.60300  0.74950  0.83590  Biso   1.000  H
  H21      1.0000 0.41410  0.76930  0.20020  Biso   1.000  H
  H22      1.0000 0.58590  0.26930  0.29980  Biso   1.000  H
  H23      1.0000 0.58590  0.23070  0.79980  Biso   1.000  H
  H24      1.0000 0.41410  0.73070  0.70020  Biso   1.000  H
  H25      1.0000 0.23000  0.85480  0.21730  Biso   1.000  H
  H26      1.0000 0.77000  0.35480  0.28270  Biso   1.000  H
  H27      1.0000 0.77000  0.14520  0.78270  Biso   1.000  H
  H28      1.0000 0.23000  0.64520  0.71730  Biso   1.000  H
  H29      1.0000 0.23370  0.91640  0.37360  Biso   1.000  H
  H30      1.0000 0.76630  0.41640  0.12640  Biso   1.000  H
  H31      1.0000 0.76630  0.08360  0.62640  Biso   1.000  H
  H32      1.0000 0.23370  0.58360  0.87360  Biso   1.000  H
  H33      1.0000 0.67270  0.90300  0.75340  Biso   1.000  H
  H34      1.0000 0.32730  0.40300  0.74660  Biso   1.000  H
  H35      1.0000 0.32730  0.09700  0.24660  Biso   1.000  H
  H36      1.0000 0.67270  0.59700  0.25340  Biso   1.000  H
  H37      1.0000 0.50930  0.98470  0.80790  Biso   1.000  H
  H38      1.0000 0.49070  0.48470  0.69210  Biso   1.000  H
  H39      1.0000 0.49070  0.01530  0.19210  Biso   1.000  H
  H40      1.0000 0.50930  0.51530  0.30790  Biso   1.000  H
  H41      1.0000 0.29780  0.01600  0.69720  Biso   1.000  H
  H42      1.0000 0.70220  0.51600  0.80280  Biso   1.000  H
  H43      1.0000 0.70220  0.98400  0.30280  Biso   1.000  H
  H44      1.0000 0.29780  0.48400  0.19720  Biso   1.000  H
  H45      1.0000 0.25410  0.96500  0.53210  Biso   1.000  H
  H46      1.0000 0.74590  0.46500  0.96790  Biso   1.000  H
  H47      1.0000 0.74590  0.03500  0.46790  Biso   1.000  H
  H48      1.0000 0.25410  0.53500  0.03210  Biso   1.000  H
  O21      1.0000 0.80930  0.56350  0.46520  Biso   1.000  O
  O22      1.0000 0.19070  0.06350  0.03480  Biso   1.000  O
  O23      1.0000 0.19070  0.43650  0.53480  Biso   1.000  O
  O24      1.0000 0.80930  0.93650  0.96520  Biso   1.000  O
  O25      1.0000 0.03990  0.96620  0.14790  Biso   1.000  O
  O26      1.0000 0.96010  0.46620  0.35210  Biso   1.000  O
  O27      1.0000 0.96010  0.03380  0.85210  Biso   1.000  O
  O28      1.0000 0.03990  0.53380  0.64790  Biso   1.000  O
  O29      1.0000 0.01370  0.99540  0.34860  Biso   1.000  O
  O30      1.0000 0.98630  0.49540  0.15140  Biso   1.000  O
  O31      1.0000 0.98630  0.00460  0.65140  Biso   1.000  O
  O32      1.0000 0.01370  0.50460  0.84860  Biso   1.000  O
  O33      1.0000 0.56240  0.51360  0.49760  Biso   1.000  O
  O34      1.0000 0.43760  0.01360  0.00240  Biso   1.000  O
  O35      1.0000 0.43760  0.48640  0.50240  Biso   1.000  O
  O36      1.0000 0.56240  0.98640  0.99760  Biso   1.000  O
