data_image0
_cell_length_a       7.7326
_cell_length_b       9.2236
_cell_length_c       20.987
_cell_angle_alpha    90
_cell_angle_beta     90
_cell_angle_gamma    90

_symmetry_space_group_name_H-M    "P 1"
_symmetry_int_tables_number       1

loop_
  _symmetry_equiv_pos_as_xyz
  'x, y, z'

loop_
  _atom_site_label
  _atom_site_occupancy
  _atom_site_fract_x
  _atom_site_fract_y
  _atom_site_fract_z
  _atom_site_thermal_displace_type
  _atom_site_B_iso_or_equiv
  _atom_site_type_symbol
  Cu1      1.0000 0.99920  0.68416  0.02824  Biso   1.000  Cu
  Cu2      1.0000 0.50080  0.31584  0.52824  Biso   1.000  Cu
  Cu3      1.0000 0.00080  0.18416  0.47176  Biso   1.000  Cu
  Cu4      1.0000 0.49920  0.81584  0.97176  Biso   1.000  Cu
  C1       1.0000 0.00060  0.87470  0.13400  Biso   1.000  C
  C2       1.0000 0.49940  0.12530  0.63400  Biso   1.000  C
  C3       1.0000 0.99940  0.37470  0.36600  Biso   1.000  C
  C4       1.0000 0.50060  0.62530  0.86600  Biso   1.000  C
  C5       1.0000 0.97960  0.02130  0.15360  Biso   1.000  C
  C6       1.0000 0.52040  0.97870  0.65360  Biso   1.000  C
  C7       1.0000 0.02040  0.52130  0.34640  Biso   1.000  C
  C8       1.0000 0.47960  0.47870  0.84640  Biso   1.000  C
  H1       1.0000 0.90030  0.08170  0.13140  Biso   1.000  H
  H2       1.0000 0.59970  0.91830  0.63140  Biso   1.000  H
  H3       1.0000 0.09970  0.58170  0.36860  Biso   1.000  H
  H4       1.0000 0.40030  0.41830  0.86860  Biso   1.000  H
  C9       1.0000 0.07020  0.07660  0.20320  Biso   1.000  C
  C10      1.0000 0.42980  0.92340  0.70320  Biso   1.000  C
  C11      1.0000 0.92980  0.57660  0.29680  Biso   1.000  C
  C12      1.0000 0.57020  0.42340  0.79680  Biso   1.000  C
  H5       1.0000 0.05030  0.17430  0.21550  Biso   1.000  H
  H6       1.0000 0.44970  0.82570  0.71550  Biso   1.000  H
  H7       1.0000 0.94970  0.67430  0.28450  Biso   1.000  H
  H8       1.0000 0.55030  0.32570  0.78450  Biso   1.000  H
  C13      1.0000 0.19270  0.99450  0.23710  Biso   1.000  C
  C14      1.0000 0.30730  0.00550  0.73710  Biso   1.000  C
  C15      1.0000 0.80730  0.49450  0.26290  Biso   1.000  C
  C16      1.0000 0.69270  0.50550  0.76290  Biso   1.000  C
  C17      1.0000 0.29020  0.05420  0.28700  Biso   1.000  C
  C18      1.0000 0.20980  0.94580  0.78700  Biso   1.000  C
  C19      1.0000 0.70980  0.55420  0.21300  Biso   1.000  C
  C20      1.0000 0.79020  0.44580  0.71300  Biso   1.000  C
  H9       1.0000 0.27230  0.15280  0.29830  Biso   1.000  H
  H10      1.0000 0.22770  0.84720  0.79830  Biso   1.000  H
  H11      1.0000 0.72770  0.65280  0.20170  Biso   1.000  H
  H12      1.0000 0.77230  0.34720  0.70170  Biso   1.000  H
  C21      1.0000 0.41010  0.97500  0.31980  Biso   1.000  C
  C22      1.0000 0.08990  0.02500  0.81980  Biso   1.000  C
  C23      1.0000 0.58990  0.47500  0.18020  Biso   1.000  C
  C24      1.0000 0.91010  0.52500  0.68020  Biso   1.000  C
  H13      1.0000 0.47480  0.01730  0.35350  Biso   1.000  H
  H14      1.0000 0.02520  0.98270  0.85350  Biso   1.000  H
  H15      1.0000 0.52520  0.51730  0.14650  Biso   1.000  H
  H16      1.0000 0.97480  0.48270  0.64650  Biso   1.000  H
  C25      1.0000 0.43520  0.83090  0.30250  Biso   1.000  C
  C26      1.0000 0.06480  0.16910  0.80250  Biso   1.000  C
  C27      1.0000 0.56480  0.33090  0.19750  Biso   1.000  C
  C28      1.0000 0.93520  0.66910  0.69750  Biso   1.000  C
  H17      1.0000 0.52020  0.77520  0.32420  Biso   1.000  H
  H18      1.0000 0.97980  0.22480  0.82420  Biso   1.000  H
  H19      1.0000 0.47980  0.27520  0.17580  Biso   1.000  H
  H20      1.0000 0.02020  0.72480  0.67580  Biso   1.000  H
  C29      1.0000 0.33950  0.76680  0.25460  Biso   1.000  C
  C30      1.0000 0.16050  0.23320  0.75460  Biso   1.000  C
  C31      1.0000 0.66050  0.26680  0.24540  Biso   1.000  C
  C32      1.0000 0.83950  0.73320  0.74540  Biso   1.000  C
  H21      1.0000 0.35770  0.66740  0.24470  Biso   1.000  H
  H22      1.0000 0.14230  0.33260  0.74470  Biso   1.000  H
  H23      1.0000 0.64230  0.16740  0.25530  Biso   1.000  H
  H24      1.0000 0.85770  0.83260  0.75530  Biso   1.000  H
  C33      1.0000 0.21690  0.84550  0.22040  Biso   1.000  C
  C34      1.0000 0.28310  0.15450  0.72040  Biso   1.000  C
  C35      1.0000 0.78310  0.34550  0.27960  Biso   1.000  C
  C36      1.0000 0.71690  0.65450  0.77960  Biso   1.000  C
  C37      1.0000 0.11690  0.78650  0.16810  Biso   1.000  C
  C38      1.0000 0.38310  0.21350  0.66810  Biso   1.000  C
  C39      1.0000 0.88310  0.28650  0.33190  Biso   1.000  C
  C40      1.0000 0.61690  0.71350  0.83190  Biso   1.000  C
  C41      1.0000 0.12610  0.63370  0.15400  Biso   1.000  C
  C42      1.0000 0.37390  0.36630  0.65400  Biso   1.000  C
  C43      1.0000 0.87390  0.13370  0.34600  Biso   1.000  C
  C44      1.0000 0.62610  0.86630  0.84600  Biso   1.000  C
  H25      1.0000 0.17490  0.57300  0.18590  Biso   1.000  H
  H26      1.0000 0.32510  0.42700  0.68590  Biso   1.000  H
  H27      1.0000 0.82510  0.07300  0.31410  Biso   1.000  H
  H28      1.0000 0.67490  0.92700  0.81410  Biso   1.000  H
  C45      1.0000 0.07850  0.41120  0.10140  Biso   1.000  C
  C46      1.0000 0.42150  0.58880  0.60140  Biso   1.000  C
  C47      1.0000 0.92150  0.91120  0.39860  Biso   1.000  C
  C48      1.0000 0.57850  0.08880  0.89860  Biso   1.000  C
  H29      1.0000 0.95860  0.37360  0.10120  Biso   1.000  H
  H30      1.0000 0.54140  0.62640  0.60120  Biso   1.000  H
  H31      1.0000 0.04140  0.87360  0.39880  Biso   1.000  H
  H32      1.0000 0.45860  0.12640  0.89880  Biso   1.000  H
  H33      1.0000 0.13690  0.37430  0.14010  Biso   1.000  H
  H34      1.0000 0.36310  0.62570  0.64010  Biso   1.000  H
  H35      1.0000 0.86310  0.87430  0.35990  Biso   1.000  H
  H36      1.0000 0.63690  0.12570  0.85990  Biso   1.000  H
  C49      1.0000 0.17330  0.35690  0.04250  Biso   1.000  C
  C50      1.0000 0.32670  0.64310  0.54250  Biso   1.000  C
  C51      1.0000 0.82670  0.85690  0.45750  Biso   1.000  C
  C52      1.0000 0.67330  0.14310  0.95750  Biso   1.000  C
  H37      1.0000 0.29060  0.40000  0.04190  Biso   1.000  H
  H38      1.0000 0.20940  0.60000  0.54190  Biso   1.000  H
  H39      1.0000 0.70940  0.90000  0.45810  Biso   1.000  H
  H40      1.0000 0.79060  0.10000  0.95810  Biso   1.000  H
  H41      1.0000 0.18680  0.25050  0.04580  Biso   1.000  H
  H42      1.0000 0.31320  0.74950  0.54580  Biso   1.000  H
  H43      1.0000 0.81320  0.75050  0.45420  Biso   1.000  H
  H44      1.0000 0.68680  0.24950  0.95420  Biso   1.000  H
  C53      1.0000 0.08430  0.39190  0.98010  Biso   1.000  C
  C54      1.0000 0.41570  0.60810  0.48010  Biso   1.000  C
  C55      1.0000 0.91570  0.89190  0.51990  Biso   1.000  C
  C56      1.0000 0.58430  0.10810  0.01990  Biso   1.000  C
  H45      1.0000 0.13840  0.33400  0.94570  Biso   1.000  H
  H46      1.0000 0.36160  0.66600  0.44570  Biso   1.000  H
  H47      1.0000 0.86160  0.83400  0.55430  Biso   1.000  H
  H48      1.0000 0.63840  0.16600  0.05430  Biso   1.000  H
  H49      1.0000 0.96140  0.36260  0.98310  Biso   1.000  H
  H50      1.0000 0.53860  0.63740  0.48310  Biso   1.000  H
  H51      1.0000 0.03860  0.86260  0.51690  Biso   1.000  H
  H52      1.0000 0.46140  0.13740  0.01690  Biso   1.000  H
  C57      1.0000 0.01630  0.56690  0.89850  Biso   1.000  C
  C58      1.0000 0.48370  0.43310  0.39850  Biso   1.000  C
  C59      1.0000 0.98370  0.06690  0.60150  Biso   1.000  C
  C60      1.0000 0.51630  0.93310  0.10150  Biso   1.000  C
  H53      1.0000 0.07790  0.50590  0.86770  Biso   1.000  H
  H54      1.0000 0.42210  0.49410  0.36770  Biso   1.000  H
  H55      1.0000 0.92210  0.00590  0.63230  Biso   1.000  H
  H56      1.0000 0.57790  0.99410  0.13230  Biso   1.000  H
  H57      1.0000 0.02630  0.66880  0.88580  Biso   1.000  H
  H58      1.0000 0.47370  0.33120  0.38580  Biso   1.000  H
  H59      1.0000 0.97370  0.16880  0.61420  Biso   1.000  H
  H60      1.0000 0.52630  0.83120  0.11420  Biso   1.000  H
  H61      1.0000 0.89400  0.53910  0.89950  Biso   1.000  H
  H62      1.0000 0.60600  0.46090  0.39950  Biso   1.000  H
  H63      1.0000 0.10600  0.03910  0.60050  Biso   1.000  H
  H64      1.0000 0.39400  0.96090  0.10050  Biso   1.000  H
  N1       1.0000 0.07510  0.57210  0.10290  Biso   1.000  N
  N2       1.0000 0.42490  0.42790  0.60290  Biso   1.000  N
  N3       1.0000 0.92490  0.07210  0.39710  Biso   1.000  N
  N4       1.0000 0.57510  0.92790  0.89710  Biso   1.000  N
  N5       1.0000 0.09320  0.54710  0.96280  Biso   1.000  N
  N6       1.0000 0.40680  0.45290  0.46280  Biso   1.000  N
  N7       1.0000 0.90680  0.04710  0.53720  Biso   1.000  N
  N8       1.0000 0.59320  0.95290  0.03720  Biso   1.000  N
  N9       1.0000 0.13270  0.91400  0.97720  Biso   1.000  N
  N10      1.0000 0.36730  0.08600  0.47720  Biso   1.000  N
  N11      1.0000 0.86730  0.41400  0.52280  Biso   1.000  N
  N12      1.0000 0.63270  0.58600  0.02280  Biso   1.000  N
  O1       1.0000 0.91190  0.82790  0.08470  Biso   1.000  O
  O2       1.0000 0.58810  0.17210  0.58470  Biso   1.000  O
  O3       1.0000 0.08810  0.32790  0.41530  Biso   1.000  O
  O4       1.0000 0.41190  0.67210  0.91530  Biso   1.000  O
  O5       1.0000 0.98500  0.86170  0.96160  Biso   1.000  O
  O6       1.0000 0.51500  0.13830  0.46160  Biso   1.000  O
  O7       1.0000 0.01500  0.36170  0.53840  Biso   1.000  O
  O8       1.0000 0.48500  0.63830  0.03840  Biso   1.000  O
  O9       1.0000 0.23080  0.86100  0.00860  Biso   1.000  O
  O10      1.0000 0.26920  0.13900  0.50860  Biso   1.000  O
  O11      1.0000 0.76920  0.36100  0.49140  Biso   1.000  O
  O12      1.0000 0.73080  0.63900  0.99140  Biso   1.000  O
  O13      1.0000 0.14560  0.05270  0.96030  Biso   1.000  O
  O14      1.0000 0.35440  0.94730  0.46030  Biso   1.000  O
  O15      1.0000 0.85440  0.55270  0.53970  Biso   1.000  O
  O16      1.0000 0.64560  0.44730  0.03970  Biso   1.000  O
