data_image0
_cell_length_a       12.4835
_cell_length_b       14.4246
_cell_length_c       10.7333
_cell_angle_alpha    90
_cell_angle_beta     102.871
_cell_angle_gamma    90

_symmetry_space_group_name_H-M    "P 1"
_symmetry_int_tables_number       1

loop_
  _symmetry_equiv_pos_as_xyz
  'x, y, z'

loop_
  _atom_site_label
  _atom_site_occupancy
  _atom_site_fract_x
  _atom_site_fract_y
  _atom_site_fract_z
  _atom_site_thermal_displace_type
  _atom_site_B_iso_or_equiv
  _atom_site_type_symbol
  Cu1      1.0000 0.68510  0.82530  0.67830  Biso   1.000  Cu
  Cu2      1.0000 0.31490  0.32530  0.82170  Biso   1.000  Cu
  Cu3      1.0000 0.31490  0.17470  0.32170  Biso   1.000  Cu
  Cu4      1.0000 0.68510  0.67470  0.17830  Biso   1.000  Cu
  Cu5      1.0000 0.74010  0.81180  0.39950  Biso   1.000  Cu
  Cu6      1.0000 0.25990  0.31180  0.10050  Biso   1.000  Cu
  Cu7      1.0000 0.25990  0.18820  0.60050  Biso   1.000  Cu
  Cu8      1.0000 0.74010  0.68820  0.89950  Biso   1.000  Cu
  O1       1.0000 0.79380  0.80110  0.57950  Biso   1.000  O
  O2       1.0000 0.20620  0.30110  0.92050  Biso   1.000  O
  O3       1.0000 0.20620  0.19890  0.42050  Biso   1.000  O
  O4       1.0000 0.79380  0.69890  0.07950  Biso   1.000  O
  C1       1.0000 0.54200  0.80470  0.85410  Biso   1.000  C
  C2       1.0000 0.45800  0.30470  0.64590  Biso   1.000  C
  C3       1.0000 0.45800  0.19530  0.14590  Biso   1.000  C
  C4       1.0000 0.54200  0.69530  0.35410  Biso   1.000  C
  C5       1.0000 0.44000  0.83500  0.89200  Biso   1.000  C
  C6       1.0000 0.56000  0.33500  0.60800  Biso   1.000  C
  C7       1.0000 0.56000  0.16500  0.10800  Biso   1.000  C
  C8       1.0000 0.44000  0.66500  0.39200  Biso   1.000  C
  O5       1.0000 0.60320  0.74700  0.92680  Biso   1.000  O
  O6       1.0000 0.39680  0.24700  0.57320  Biso   1.000  O
  O7       1.0000 0.39680  0.25300  0.07320  Biso   1.000  O
  O8       1.0000 0.60320  0.75300  0.42680  Biso   1.000  O
  O9       1.0000 0.56200  0.83900  0.75000  Biso   1.000  O
  O10      1.0000 0.43800  0.33900  0.75000  Biso   1.000  O
  O11      1.0000 0.43800  0.16100  0.25000  Biso   1.000  O
  O12      1.0000 0.56200  0.66100  0.25000  Biso   1.000  O
  C9       1.0000 0.66670  0.99920  0.52930  Biso   1.000  C
  C10      1.0000 0.33330  0.49920  0.97070  Biso   1.000  C
  C11      1.0000 0.33330  0.00080  0.47070  Biso   1.000  C
  C12      1.0000 0.66670  0.50080  0.02930  Biso   1.000  C
  C13      1.0000 0.63500  0.09900  0.52400  Biso   1.000  C
  C14      1.0000 0.36500  0.59900  0.97600  Biso   1.000  C
  C15      1.0000 0.36500  0.90100  0.47600  Biso   1.000  C
  C16      1.0000 0.63500  0.40100  0.02400  Biso   1.000  C
  O13      1.0000 0.67560  0.95810  0.63590  Biso   1.000  O
  O14      1.0000 0.32440  0.45810  0.86410  Biso   1.000  O
  O15      1.0000 0.32440  0.04190  0.36410  Biso   1.000  O
  O16      1.0000 0.67560  0.54190  0.13590  Biso   1.000  O
  O17      1.0000 0.68300  0.96100  0.42600  Biso   1.000  O
  O18      1.0000 0.31700  0.46100  0.07400  Biso   1.000  O
  O19      1.0000 0.31700  0.03900  0.57400  Biso   1.000  O
  O20      1.0000 0.68300  0.53900  0.92600  Biso   1.000  O
  C17      1.0000 0.90090  0.85990  0.93440  Biso   1.000  C
  C18      1.0000 0.09910  0.35990  0.56560  Biso   1.000  C
  C19      1.0000 0.09910  0.14010  0.06560  Biso   1.000  C
  C20      1.0000 0.90090  0.64010  0.43440  Biso   1.000  C
  C21      1.0000 0.97900  0.88250  0.85200  Biso   1.000  C
  C22      1.0000 0.02100  0.38250  0.64800  Biso   1.000  C
  C23      1.0000 0.02100  0.11750  0.14800  Biso   1.000  C
  C24      1.0000 0.97900  0.61750  0.35200  Biso   1.000  C
  O21      1.0000 0.93980  0.85550  0.05430  Biso   1.000  O
  O22      1.0000 0.06020  0.35550  0.44570  Biso   1.000  O
  O23      1.0000 0.06020  0.14450  0.94570  Biso   1.000  O
  O24      1.0000 0.93980  0.64450  0.55430  Biso   1.000  O
  O25      1.0000 0.79900  0.84600  0.87900  Biso   1.000  O
  O26      1.0000 0.20100  0.34600  0.62100  Biso   1.000  O
  O27      1.0000 0.20100  0.15400  0.12100  Biso   1.000  O
  O28      1.0000 0.79900  0.65400  0.37900  Biso   1.000  O
  C25      1.0000 0.97120  0.87700  0.41200  Biso   1.000  C
  C26      1.0000 0.02880  0.37700  0.08800  Biso   1.000  C
  C27      1.0000 0.02880  0.12300  0.58800  Biso   1.000  C
  C28      1.0000 0.97120  0.62300  0.91200  Biso   1.000  C
  C29      1.0000 0.97900  0.88300  0.55300  Biso   1.000  C
  C30      1.0000 0.02100  0.38300  0.94700  Biso   1.000  C
  C31      1.0000 0.02100  0.11700  0.44700  Biso   1.000  C
  C32      1.0000 0.97900  0.61700  0.05300  Biso   1.000  C
  O29      1.0000 0.87990  0.85080  0.34300  Biso   1.000  O
  O30      1.0000 0.12010  0.35080  0.15700  Biso   1.000  O
  O31      1.0000 0.12010  0.14920  0.65700  Biso   1.000  O
  O32      1.0000 0.87990  0.64920  0.84300  Biso   1.000  O
  O33      1.0000 0.05800  0.89900  0.37000  Biso   1.000  O
  O34      1.0000 0.94200  0.39900  0.13000  Biso   1.000  O
  O35      1.0000 0.94200  0.10100  0.63000  Biso   1.000  O
  O36      1.0000 0.05800  0.60100  0.87000  Biso   1.000  O
  Cu9      1.0000 0.80800  0.66130  0.62500  Biso   1.000  Cu
  Cu10     1.0000 0.19200  0.16130  0.87500  Biso   1.000  Cu
  Cu11     1.0000 0.19200  0.33870  0.37500  Biso   1.000  Cu
  Cu12     1.0000 0.80800  0.83870  0.12500  Biso   1.000  Cu
  O37      1.0000 0.69570  0.68690  0.71090  Biso   1.000  O
  O38      1.0000 0.30430  0.18690  0.78910  Biso   1.000  O
  O39      1.0000 0.30430  0.31310  0.28910  Biso   1.000  O
  O40      1.0000 0.69570  0.81310  0.21090  Biso   1.000  O
  O41      1.0000 0.76080  0.52570  0.60060  Biso   1.000  O
  O42      1.0000 0.23920  0.02570  0.89940  Biso   1.000  O
  O43      1.0000 0.23920  0.47430  0.39940  Biso   1.000  O
  O44      1.0000 0.76080  0.97430  0.10060  Biso   1.000  O
  O45      1.0000 0.48210  0.07050  0.80500  Biso   1.000  O
  O46      1.0000 0.51790  0.57050  0.69500  Biso   1.000  O
  O47      1.0000 0.51790  0.92950  0.19500  Biso   1.000  O
  O48      1.0000 0.48210  0.42950  0.30500  Biso   1.000  O
  O49      1.0000 0.83450  0.28000  0.35750  Biso   1.000  O
  O50      1.0000 0.16550  0.78000  0.14250  Biso   1.000  O
  O51      1.0000 0.16550  0.72000  0.64250  Biso   1.000  O
  O52      1.0000 0.83450  0.22000  0.85750  Biso   1.000  O
  O53      1.0000 0.29120  0.55570  0.62980  Biso   1.000  O
  O54      1.0000 0.70880  0.05570  0.87020  Biso   1.000  O
  O55      1.0000 0.70880  0.44430  0.37020  Biso   1.000  O
  O56      1.0000 0.29120  0.94430  0.12980  Biso   1.000  O
  O57      1.0000 0.80990  0.08080  0.31040  Biso   1.000  O
  O58      1.0000 0.19010  0.58080  0.18960  Biso   1.000  O
  O59      1.0000 0.19010  0.91920  0.68960  Biso   1.000  O
  O60      1.0000 0.80990  0.41920  0.81040  Biso   1.000  O
