data_image0
_cell_length_a       42.46
_cell_length_b       8.054
_cell_length_c       18.087
_cell_angle_alpha    90
_cell_angle_beta     98.341
_cell_angle_gamma    90

_symmetry_space_group_name_H-M    "P 1"
_symmetry_int_tables_number       1

loop_
  _symmetry_equiv_pos_as_xyz
  'x, y, z'

loop_
  _atom_site_label
  _atom_site_occupancy
  _atom_site_fract_x
  _atom_site_fract_y
  _atom_site_fract_z
  _atom_site_thermal_displace_type
  _atom_site_B_iso_or_equiv
  _atom_site_type_symbol
  Cu1      1.0000 0.50000  0.53913  0.75000  Biso   1.000  Cu
  Cu2      1.0000 0.00000  0.03913  0.75000  Biso   1.000  Cu
  Cu3      1.0000 0.50000  0.46087  0.25000  Biso   1.000  Cu
  Cu4      1.0000 0.00000  0.96087  0.25000  Biso   1.000  Cu
  Si1      1.0000 0.50000  0.04620  0.75000  Biso   1.000  Si
  Si2      1.0000 0.00000  0.54620  0.75000  Biso   1.000  Si
  Si3      1.0000 0.50000  0.95380  0.25000  Biso   1.000  Si
  Si4      1.0000 0.00000  0.45380  0.25000  Biso   1.000  Si
  F1       1.0000 0.65726  0.42400  0.85210  Biso   1.000  F
  F2       1.0000 0.34274  0.42400  0.64790  Biso   1.000  F
  F3       1.0000 0.15726  0.92400  0.85210  Biso   1.000  F
  F4       1.0000 0.84274  0.92400  0.64790  Biso   1.000  F
  F5       1.0000 0.34274  0.57600  0.14790  Biso   1.000  F
  F6       1.0000 0.65726  0.57600  0.35210  Biso   1.000  F
  F7       1.0000 0.84274  0.07600  0.14790  Biso   1.000  F
  F8       1.0000 0.15726  0.07600  0.35210  Biso   1.000  F
  F9       1.0000 0.70330  0.46000  0.77060  Biso   1.000  F
  F10      1.0000 0.29670  0.46000  0.72940  Biso   1.000  F
  F11      1.0000 0.20330  0.96000  0.77060  Biso   1.000  F
  F12      1.0000 0.79670  0.96000  0.72940  Biso   1.000  F
  F13      1.0000 0.29670  0.54000  0.22940  Biso   1.000  F
  F14      1.0000 0.70330  0.54000  0.27060  Biso   1.000  F
  F15      1.0000 0.79670  0.04000  0.22940  Biso   1.000  F
  F16      1.0000 0.20330  0.04000  0.27060  Biso   1.000  F
  F17      1.0000 0.73170  0.75380  0.75600  Biso   1.000  F
  F18      1.0000 0.26830  0.75380  0.74400  Biso   1.000  F
  F19      1.0000 0.23170  0.25380  0.75600  Biso   1.000  F
  F20      1.0000 0.76830  0.25380  0.74400  Biso   1.000  F
  F21      1.0000 0.26830  0.24620  0.24400  Biso   1.000  F
  F22      1.0000 0.73170  0.24620  0.25600  Biso   1.000  F
  F23      1.0000 0.76830  0.74620  0.24400  Biso   1.000  F
  F24      1.0000 0.23170  0.74620  0.25600  Biso   1.000  F
  F25      1.0000 0.71200  0.01810  0.82500  Biso   1.000  F
  F26      1.0000 0.28800  0.01810  0.67500  Biso   1.000  F
  F27      1.0000 0.21200  0.51810  0.82500  Biso   1.000  F
  F28      1.0000 0.78800  0.51810  0.67500  Biso   1.000  F
  F29      1.0000 0.28800  0.98190  0.17500  Biso   1.000  F
  F30      1.0000 0.71200  0.98190  0.32500  Biso   1.000  F
  F31      1.0000 0.78800  0.48190  0.17500  Biso   1.000  F
  F32      1.0000 0.21200  0.48190  0.32500  Biso   1.000  F
  F33      1.0000 0.66665  0.99140  0.91310  Biso   1.000  F
  F34      1.0000 0.33335  0.99140  0.58690  Biso   1.000  F
  F35      1.0000 0.16665  0.49140  0.91310  Biso   1.000  F
  F36      1.0000 0.83335  0.49140  0.58690  Biso   1.000  F
  F37      1.0000 0.33335  0.00860  0.08690  Biso   1.000  F
  F38      1.0000 0.66665  0.00860  0.41310  Biso   1.000  F
  F39      1.0000 0.83335  0.50860  0.08690  Biso   1.000  F
  F40      1.0000 0.16665  0.50860  0.41310  Biso   1.000  F
  F41      1.0000 0.33352  0.30040  0.86260  Biso   1.000  F
  F42      1.0000 0.66648  0.30040  0.63740  Biso   1.000  F
  F43      1.0000 0.83352  0.80040  0.86260  Biso   1.000  F
  F44      1.0000 0.16648  0.80040  0.63740  Biso   1.000  F
  F45      1.0000 0.66648  0.69960  0.13740  Biso   1.000  F
  F46      1.0000 0.33352  0.69960  0.36260  Biso   1.000  F
  F47      1.0000 0.16648  0.19960  0.13740  Biso   1.000  F
  F48      1.0000 0.83352  0.19960  0.36260  Biso   1.000  F
  F49      1.0000 0.27690  0.34240  0.91110  Biso   1.000  F
  F50      1.0000 0.72310  0.34240  0.58890  Biso   1.000  F
  F51      1.0000 0.77690  0.84240  0.91110  Biso   1.000  F
  F52      1.0000 0.22310  0.84240  0.58890  Biso   1.000  F
  F53      1.0000 0.72310  0.65760  0.08890  Biso   1.000  F
  F54      1.0000 0.27690  0.65760  0.41110  Biso   1.000  F
  F55      1.0000 0.22310  0.15760  0.08890  Biso   1.000  F
  F56      1.0000 0.77690  0.15760  0.41110  Biso   1.000  F
  F57      1.0000 0.24411  0.08260  0.94840  Biso   1.000  F
  F58      1.0000 0.75589  0.08260  0.55160  Biso   1.000  F
  F59      1.0000 0.74411  0.58260  0.94840  Biso   1.000  F
  F60      1.0000 0.25589  0.58260  0.55160  Biso   1.000  F
  F61      1.0000 0.75589  0.91740  0.05160  Biso   1.000  F
  F62      1.0000 0.24411  0.91740  0.44840  Biso   1.000  F
  F63      1.0000 0.25589  0.41740  0.05160  Biso   1.000  F
  F64      1.0000 0.74411  0.41740  0.44840  Biso   1.000  F
  F65      1.0000 0.26781  0.77210  0.93590  Biso   1.000  F
  F66      1.0000 0.73219  0.77210  0.56410  Biso   1.000  F
  F67      1.0000 0.76781  0.27210  0.93590  Biso   1.000  F
  F68      1.0000 0.23219  0.27210  0.56410  Biso   1.000  F
  F69      1.0000 0.73219  0.22790  0.06410  Biso   1.000  F
  F70      1.0000 0.26781  0.22790  0.43590  Biso   1.000  F
  F71      1.0000 0.23219  0.72790  0.06410  Biso   1.000  F
  F72      1.0000 0.76781  0.72790  0.43590  Biso   1.000  F
  F73      1.0000 0.32370  0.72630  0.88790  Biso   1.000  F
  F74      1.0000 0.67630  0.72630  0.61210  Biso   1.000  F
  F75      1.0000 0.82370  0.22630  0.88790  Biso   1.000  F
  F76      1.0000 0.17630  0.22630  0.61210  Biso   1.000  F
  F77      1.0000 0.67630  0.27370  0.11210  Biso   1.000  F
  F78      1.0000 0.32370  0.27370  0.38790  Biso   1.000  F
  F79      1.0000 0.17630  0.77370  0.11210  Biso   1.000  F
  F80      1.0000 0.82370  0.77370  0.38790  Biso   1.000  F
  F81      1.0000 0.50000  0.25490  0.75000  Biso   1.000  F
  F82      1.0000 0.00000  0.75490  0.75000  Biso   1.000  F
  F83      1.0000 0.50000  0.74510  0.25000  Biso   1.000  F
  F84      1.0000 0.00000  0.24510  0.25000  Biso   1.000  F
  F85      1.0000 0.46201  0.04460  0.71610  Biso   1.000  F
  F86      1.0000 0.53799  0.04460  0.78390  Biso   1.000  F
  F87      1.0000 0.96201  0.54460  0.71610  Biso   1.000  F
  F88      1.0000 0.03799  0.54460  0.78390  Biso   1.000  F
  F89      1.0000 0.53799  0.95540  0.28390  Biso   1.000  F
  F90      1.0000 0.46201  0.95540  0.21610  Biso   1.000  F
  F91      1.0000 0.03799  0.45540  0.28390  Biso   1.000  F
  F92      1.0000 0.96201  0.45540  0.21610  Biso   1.000  F
  F93      1.0000 0.50000  0.83700  0.75000  Biso   1.000  F
  F94      1.0000 0.00000  0.33700  0.75000  Biso   1.000  F
  F95      1.0000 0.50000  0.16300  0.25000  Biso   1.000  F
  F96      1.0000 0.00000  0.66300  0.25000  Biso   1.000  F
  F97      1.0000 0.48980  0.04420  0.83430  Biso   1.000  F
  F98      1.0000 0.51020  0.04420  0.66570  Biso   1.000  F
  F99      1.0000 0.98980  0.54420  0.83430  Biso   1.000  F
  F100     1.0000 0.01020  0.54420  0.66570  Biso   1.000  F
  F101     1.0000 0.51020  0.95580  0.16570  Biso   1.000  F
  F102     1.0000 0.48980  0.95580  0.33430  Biso   1.000  F
  F103     1.0000 0.01020  0.45580  0.16570  Biso   1.000  F
  F104     1.0000 0.98980  0.45580  0.33430  Biso   1.000  F
  N1       1.0000 0.52298  0.53990  0.85580  Biso   1.000  N
  N2       1.0000 0.47702  0.53990  0.64420  Biso   1.000  N
  N3       1.0000 0.02298  0.03990  0.85580  Biso   1.000  N
  N4       1.0000 0.97702  0.03990  0.64420  Biso   1.000  N
  N5       1.0000 0.47702  0.46010  0.14420  Biso   1.000  N
  N6       1.0000 0.52298  0.46010  0.35580  Biso   1.000  N
  N7       1.0000 0.97702  0.96010  0.14420  Biso   1.000  N
  N8       1.0000 0.02298  0.96010  0.35580  Biso   1.000  N
  C1       1.0000 0.51803  0.41630  0.90250  Biso   1.000  C
  C2       1.0000 0.48197  0.41630  0.59750  Biso   1.000  C
  C3       1.0000 0.01803  0.91630  0.90250  Biso   1.000  C
  C4       1.0000 0.98197  0.91630  0.59750  Biso   1.000  C
  C5       1.0000 0.48197  0.58370  0.09750  Biso   1.000  C
  C6       1.0000 0.51803  0.58370  0.40250  Biso   1.000  C
  C7       1.0000 0.98197  0.08370  0.09750  Biso   1.000  C
  C8       1.0000 0.01803  0.08370  0.40250  Biso   1.000  C
  H1       1.0000 0.50340  0.33370  0.88590  Biso   1.000  H
  H2       1.0000 0.49660  0.33370  0.61410  Biso   1.000  H
  H3       1.0000 0.00340  0.83370  0.88590  Biso   1.000  H
  H4       1.0000 0.99660  0.83370  0.61410  Biso   1.000  H
  H5       1.0000 0.49660  0.66630  0.11410  Biso   1.000  H
  H6       1.0000 0.50340  0.66630  0.38590  Biso   1.000  H
  H7       1.0000 0.99660  0.16630  0.11410  Biso   1.000  H
  H8       1.0000 0.00340  0.16630  0.38590  Biso   1.000  H
  C9       1.0000 0.53390  0.40810  0.97370  Biso   1.000  C
  C10      1.0000 0.46610  0.40810  0.52630  Biso   1.000  C
  C11      1.0000 0.03390  0.90810  0.97370  Biso   1.000  C
  C12      1.0000 0.96610  0.90810  0.52630  Biso   1.000  C
  C13      1.0000 0.46610  0.59190  0.02630  Biso   1.000  C
  C14      1.0000 0.53390  0.59190  0.47370  Biso   1.000  C
  C15      1.0000 0.96610  0.09190  0.02630  Biso   1.000  C
  C16      1.0000 0.03390  0.09190  0.47370  Biso   1.000  C
  H9       1.0000 0.52950  0.32380  0.00590  Biso   1.000  H
  H10      1.0000 0.47050  0.32380  0.49410  Biso   1.000  H
  H11      1.0000 0.02950  0.82380  0.00590  Biso   1.000  H
  H12      1.0000 0.97050  0.82380  0.49410  Biso   1.000  H
  H13      1.0000 0.47050  0.67620  0.99410  Biso   1.000  H
  H14      1.0000 0.52950  0.67620  0.50590  Biso   1.000  H
  H15      1.0000 0.97050  0.17620  0.99410  Biso   1.000  H
  H16      1.0000 0.02950  0.17620  0.50590  Biso   1.000  H
  C17      1.0000 0.55670  0.52840  0.99740  Biso   1.000  C
  C18      1.0000 0.44330  0.52840  0.50260  Biso   1.000  C
  C19      1.0000 0.05670  0.02840  0.99740  Biso   1.000  C
  C20      1.0000 0.94330  0.02840  0.50260  Biso   1.000  C
  C21      1.0000 0.44330  0.47160  0.00260  Biso   1.000  C
  C22      1.0000 0.55670  0.47160  0.49740  Biso   1.000  C
  C23      1.0000 0.94330  0.97160  0.00260  Biso   1.000  C
  C24      1.0000 0.05670  0.97160  0.49740  Biso   1.000  C
  H17      1.0000 0.56820  0.52280  0.04520  Biso   1.000  H
  H18      1.0000 0.43180  0.52280  0.45480  Biso   1.000  H
  H19      1.0000 0.06820  0.02280  0.04520  Biso   1.000  H
  H20      1.0000 0.93180  0.02280  0.45480  Biso   1.000  H
  H21      1.0000 0.43180  0.47720  0.95480  Biso   1.000  H
  H22      1.0000 0.56820  0.47720  0.54520  Biso   1.000  H
  H23      1.0000 0.93180  0.97720  0.95480  Biso   1.000  H
  H24      1.0000 0.06820  0.97720  0.54520  Biso   1.000  H
  C25      1.0000 0.56225  0.65540  0.95000  Biso   1.000  C
  C26      1.0000 0.43775  0.65540  0.55000  Biso   1.000  C
  C27      1.0000 0.06225  0.15540  0.95000  Biso   1.000  C
  C28      1.0000 0.93775  0.15540  0.55000  Biso   1.000  C
  C29      1.0000 0.43775  0.34460  0.05000  Biso   1.000  C
  C30      1.0000 0.56225  0.34460  0.45000  Biso   1.000  C
  C31      1.0000 0.93775  0.84460  0.05000  Biso   1.000  C
  C32      1.0000 0.06225  0.84460  0.45000  Biso   1.000  C
  C33      1.0000 0.54419  0.65740  0.88050  Biso   1.000  C
  C34      1.0000 0.45581  0.65740  0.61950  Biso   1.000  C
  C35      1.0000 0.04419  0.15740  0.88050  Biso   1.000  C
  C36      1.0000 0.95581  0.15740  0.61950  Biso   1.000  C
  C37      1.0000 0.45581  0.34260  0.11950  Biso   1.000  C
  C38      1.0000 0.54419  0.34260  0.38050  Biso   1.000  C
  C39      1.0000 0.95581  0.84260  0.11950  Biso   1.000  C
  C40      1.0000 0.04419  0.84260  0.38050  Biso   1.000  C
  H25      1.0000 0.54690  0.74560  0.84890  Biso   1.000  H
  H26      1.0000 0.45310  0.74560  0.65110  Biso   1.000  H
  H27      1.0000 0.04690  0.24560  0.84890  Biso   1.000  H
  H28      1.0000 0.95310  0.24560  0.65110  Biso   1.000  H
  H29      1.0000 0.45310  0.25440  0.15110  Biso   1.000  H
  H30      1.0000 0.54690  0.25440  0.34890  Biso   1.000  H
  H31      1.0000 0.95310  0.75440  0.15110  Biso   1.000  H
  H32      1.0000 0.04690  0.75440  0.34890  Biso   1.000  H
  C41      1.0000 0.58580  0.78970  0.97360  Biso   1.000  C
  C42      1.0000 0.41420  0.78970  0.52640  Biso   1.000  C
  C43      1.0000 0.08580  0.28970  0.97360  Biso   1.000  C
  C44      1.0000 0.91420  0.28970  0.52640  Biso   1.000  C
  C45      1.0000 0.41420  0.21030  0.02640  Biso   1.000  C
  C46      1.0000 0.58580  0.21030  0.47360  Biso   1.000  C
  C47      1.0000 0.91420  0.71030  0.02640  Biso   1.000  C
  C48      1.0000 0.08580  0.71030  0.47360  Biso   1.000  C
  H33      1.0000 0.57480  0.89560  0.97100  Biso   1.000  H
  H34      1.0000 0.42520  0.89560  0.52900  Biso   1.000  H
  H35      1.0000 0.07480  0.39560  0.97100  Biso   1.000  H
  H36      1.0000 0.92520  0.39560  0.52900  Biso   1.000  H
  H37      1.0000 0.42520  0.10440  0.02900  Biso   1.000  H
  H38      1.0000 0.57480  0.10440  0.47100  Biso   1.000  H
  H39      1.0000 0.92520  0.60440  0.02900  Biso   1.000  H
  H40      1.0000 0.07480  0.60440  0.47100  Biso   1.000  H
  H41      1.0000 0.59510  0.77130  0.02510  Biso   1.000  H
  H42      1.0000 0.40490  0.77130  0.47490  Biso   1.000  H
  H43      1.0000 0.09510  0.27130  0.02510  Biso   1.000  H
  H44      1.0000 0.90490  0.27130  0.47490  Biso   1.000  H
  H45      1.0000 0.40490  0.22870  0.97490  Biso   1.000  H
  H46      1.0000 0.59510  0.22870  0.52510  Biso   1.000  H
  H47      1.0000 0.90490  0.72870  0.97490  Biso   1.000  H
  H48      1.0000 0.09510  0.72870  0.52510  Biso   1.000  H
  N9       1.0000 0.61113  0.79770  0.92750  Biso   1.000  N
  N10      1.0000 0.38887  0.79770  0.57250  Biso   1.000  N
  N11      1.0000 0.11113  0.29770  0.92750  Biso   1.000  N
  N12      1.0000 0.88887  0.29770  0.57250  Biso   1.000  N
  N13      1.0000 0.38887  0.20230  0.07250  Biso   1.000  N
  N14      1.0000 0.61113  0.20230  0.42750  Biso   1.000  N
  N15      1.0000 0.88887  0.70230  0.07250  Biso   1.000  N
  N16      1.0000 0.11113  0.70230  0.42750  Biso   1.000  N
  H49      1.0000 0.61100  0.87690  0.89560  Biso   1.000  H
  H50      1.0000 0.38900  0.87690  0.60440  Biso   1.000  H
  H51      1.0000 0.11100  0.37690  0.89560  Biso   1.000  H
  H52      1.0000 0.88900  0.37690  0.60440  Biso   1.000  H
  H53      1.0000 0.38900  0.12310  0.10440  Biso   1.000  H
  H54      1.0000 0.61100  0.12310  0.39560  Biso   1.000  H
  H55      1.0000 0.88900  0.62310  0.10440  Biso   1.000  H
  H56      1.0000 0.11100  0.62310  0.39560  Biso   1.000  H
  C49      1.0000 0.63480  0.68420  0.93340  Biso   1.000  C
  C50      1.0000 0.36520  0.68420  0.56660  Biso   1.000  C
  C51      1.0000 0.13480  0.18420  0.93340  Biso   1.000  C
  C52      1.0000 0.86520  0.18420  0.56660  Biso   1.000  C
  C53      1.0000 0.36520  0.31580  0.06660  Biso   1.000  C
  C54      1.0000 0.63480  0.31580  0.43340  Biso   1.000  C
  C55      1.0000 0.86520  0.81580  0.06660  Biso   1.000  C
  C56      1.0000 0.13480  0.81580  0.43340  Biso   1.000  C
  O1       1.0000 0.63612  0.57040  0.97970  Biso   1.000  O
  O2       1.0000 0.36388  0.57040  0.52030  Biso   1.000  O
  O3       1.0000 0.13612  0.07040  0.97970  Biso   1.000  O
  O4       1.0000 0.86388  0.07040  0.52030  Biso   1.000  O
  O5       1.0000 0.36388  0.42960  0.02030  Biso   1.000  O
  O6       1.0000 0.63612  0.42960  0.47970  Biso   1.000  O
  O7       1.0000 0.86388  0.92960  0.02030  Biso   1.000  O
  O8       1.0000 0.13612  0.92960  0.47970  Biso   1.000  O
  C57      1.0000 0.66000  0.71020  0.88470  Biso   1.000  C
  C58      1.0000 0.34000  0.71020  0.61530  Biso   1.000  C
  C59      1.0000 0.16000  0.21020  0.88470  Biso   1.000  C
  C60      1.0000 0.84000  0.21020  0.61530  Biso   1.000  C
  C61      1.0000 0.34000  0.28980  0.11530  Biso   1.000  C
  C62      1.0000 0.66000  0.28980  0.38470  Biso   1.000  C
  C63      1.0000 0.84000  0.78980  0.11530  Biso   1.000  C
  C64      1.0000 0.16000  0.78980  0.38470  Biso   1.000  C
  C65      1.0000 0.67030  0.57800  0.84740  Biso   1.000  C
  C66      1.0000 0.32970  0.57800  0.65260  Biso   1.000  C
  C67      1.0000 0.17030  0.07800  0.84740  Biso   1.000  C
  C68      1.0000 0.82970  0.07800  0.65260  Biso   1.000  C
  C69      1.0000 0.32970  0.42200  0.15260  Biso   1.000  C
  C70      1.0000 0.67030  0.42200  0.34740  Biso   1.000  C
  C71      1.0000 0.82970  0.92200  0.15260  Biso   1.000  C
  C72      1.0000 0.17030  0.92200  0.34740  Biso   1.000  C
  C73      1.0000 0.69370  0.59300  0.80450  Biso   1.000  C
  C74      1.0000 0.30630  0.59300  0.69550  Biso   1.000  C
  C75      1.0000 0.19370  0.09300  0.80450  Biso   1.000  C
  C76      1.0000 0.80630  0.09300  0.69550  Biso   1.000  C
  C77      1.0000 0.30630  0.40700  0.19550  Biso   1.000  C
  C78      1.0000 0.69370  0.40700  0.30450  Biso   1.000  C
  C79      1.0000 0.80630  0.90700  0.19550  Biso   1.000  C
  C80      1.0000 0.19370  0.90700  0.30450  Biso   1.000  C
  C81      1.0000 0.70670  0.74100  0.79850  Biso   1.000  C
  C82      1.0000 0.29330  0.74100  0.70150  Biso   1.000  C
  C83      1.0000 0.20670  0.24100  0.79850  Biso   1.000  C
  C84      1.0000 0.79330  0.24100  0.70150  Biso   1.000  C
  C85      1.0000 0.29330  0.25900  0.20150  Biso   1.000  C
  C86      1.0000 0.70670  0.25900  0.29850  Biso   1.000  C
  C87      1.0000 0.79330  0.75900  0.20150  Biso   1.000  C
  C88      1.0000 0.20670  0.75900  0.29850  Biso   1.000  C
  C89      1.0000 0.69770  0.87300  0.83150  Biso   1.000  C
  C90      1.0000 0.30230  0.87300  0.66850  Biso   1.000  C
  C91      1.0000 0.19770  0.37300  0.83150  Biso   1.000  C
  C92      1.0000 0.80230  0.37300  0.66850  Biso   1.000  C
  C93      1.0000 0.30230  0.12700  0.16850  Biso   1.000  C
  C94      1.0000 0.69770  0.12700  0.33150  Biso   1.000  C
  C95      1.0000 0.80230  0.62700  0.16850  Biso   1.000  C
  C96      1.0000 0.19770  0.62700  0.33150  Biso   1.000  C
  C97      1.0000 0.67480  0.85470  0.87510  Biso   1.000  C
  C98      1.0000 0.32520  0.85470  0.62490  Biso   1.000  C
  C99      1.0000 0.17480  0.35470  0.87510  Biso   1.000  C
  C100     1.0000 0.82520  0.35470  0.62490  Biso   1.000  C
  C101     1.0000 0.32520  0.14530  0.12490  Biso   1.000  C
  C102     1.0000 0.67480  0.14530  0.37510  Biso   1.000  C
  C103     1.0000 0.82520  0.64530  0.12490  Biso   1.000  C
  C104     1.0000 0.17480  0.64530  0.37510  Biso   1.000  C
  N17      1.0000 0.45755  0.54950  0.78680  Biso   1.000  N
  N18      1.0000 0.54245  0.54950  0.71320  Biso   1.000  N
  N19      1.0000 0.95755  0.04950  0.78680  Biso   1.000  N
  N20      1.0000 0.04245  0.04950  0.71320  Biso   1.000  N
  N21      1.0000 0.54245  0.45050  0.21320  Biso   1.000  N
  N22      1.0000 0.45755  0.45050  0.28680  Biso   1.000  N
  N23      1.0000 0.04245  0.95050  0.21320  Biso   1.000  N
  N24      1.0000 0.95755  0.95050  0.28680  Biso   1.000  N
  C105     1.0000 0.44993  0.68920  0.82060  Biso   1.000  C
  C106     1.0000 0.55007  0.68920  0.67940  Biso   1.000  C
  C107     1.0000 0.94993  0.18920  0.82060  Biso   1.000  C
  C108     1.0000 0.05007  0.18920  0.67940  Biso   1.000  C
  C109     1.0000 0.55007  0.31080  0.17940  Biso   1.000  C
  C110     1.0000 0.44993  0.31080  0.32060  Biso   1.000  C
  C111     1.0000 0.05007  0.81080  0.17940  Biso   1.000  C
  C112     1.0000 0.94993  0.81080  0.32060  Biso   1.000  C
  H57      1.0000 0.46590  0.76730  0.83360  Biso   1.000  H
  H58      1.0000 0.53410  0.76730  0.66640  Biso   1.000  H
  H59      1.0000 0.96590  0.26730  0.83360  Biso   1.000  H
  H60      1.0000 0.03410  0.26730  0.66640  Biso   1.000  H
  H61      1.0000 0.53410  0.23270  0.16640  Biso   1.000  H
  H62      1.0000 0.46590  0.23270  0.33360  Biso   1.000  H
  H63      1.0000 0.03410  0.73270  0.16640  Biso   1.000  H
  H64      1.0000 0.96590  0.73270  0.33360  Biso   1.000  H
  C113     1.0000 0.41973  0.72480  0.83770  Biso   1.000  C
  C114     1.0000 0.58027  0.72480  0.66230  Biso   1.000  C
  C115     1.0000 0.91973  0.22480  0.83770  Biso   1.000  C
  C116     1.0000 0.08027  0.22480  0.66230  Biso   1.000  C
  C117     1.0000 0.58027  0.27520  0.16230  Biso   1.000  C
  C118     1.0000 0.41973  0.27520  0.33770  Biso   1.000  C
  C119     1.0000 0.08027  0.77520  0.16230  Biso   1.000  C
  C120     1.0000 0.91973  0.77520  0.33770  Biso   1.000  C
  C121     1.0000 0.39652  0.60550  0.82010  Biso   1.000  C
  C122     1.0000 0.60348  0.60550  0.67990  Biso   1.000  C
  C123     1.0000 0.89652  0.10550  0.82010  Biso   1.000  C
  C124     1.0000 0.10348  0.10550  0.67990  Biso   1.000  C
  C125     1.0000 0.60348  0.39450  0.17990  Biso   1.000  C
  C126     1.0000 0.39652  0.39450  0.32010  Biso   1.000  C
  C127     1.0000 0.10348  0.89450  0.17990  Biso   1.000  C
  C128     1.0000 0.89652  0.89450  0.32010  Biso   1.000  C
  H65      1.0000 0.37600  0.62510  0.83010  Biso   1.000  H
  H66      1.0000 0.62400  0.62510  0.66990  Biso   1.000  H
  H67      1.0000 0.87600  0.12510  0.83010  Biso   1.000  H
  H68      1.0000 0.12400  0.12510  0.66990  Biso   1.000  H
  H69      1.0000 0.62400  0.37490  0.16990  Biso   1.000  H
  H70      1.0000 0.37600  0.37490  0.33010  Biso   1.000  H
  H71      1.0000 0.12400  0.87490  0.16990  Biso   1.000  H
  H72      1.0000 0.87600  0.87490  0.33010  Biso   1.000  H
  C129     1.0000 0.40368  0.45550  0.78740  Biso   1.000  C
  C130     1.0000 0.59632  0.45550  0.71260  Biso   1.000  C
  C131     1.0000 0.90368  0.95550  0.78740  Biso   1.000  C
  C132     1.0000 0.09632  0.95550  0.71260  Biso   1.000  C
  C133     1.0000 0.59632  0.54450  0.21260  Biso   1.000  C
  C134     1.0000 0.40368  0.54450  0.28740  Biso   1.000  C
  C135     1.0000 0.09632  0.04450  0.21260  Biso   1.000  C
  C136     1.0000 0.90368  0.04450  0.28740  Biso   1.000  C
  H73      1.0000 0.38840  0.37250  0.77740  Biso   1.000  H
  H74      1.0000 0.61160  0.37250  0.72260  Biso   1.000  H
  H75      1.0000 0.88840  0.87250  0.77740  Biso   1.000  H
  H76      1.0000 0.11160  0.87250  0.72260  Biso   1.000  H
  H77      1.0000 0.61160  0.62750  0.22260  Biso   1.000  H
  H78      1.0000 0.38840  0.62750  0.27740  Biso   1.000  H
  H79      1.0000 0.11160  0.12750  0.22260  Biso   1.000  H
  H80      1.0000 0.88840  0.12750  0.27740  Biso   1.000  H
  C137     1.0000 0.43455  0.43450  0.77020  Biso   1.000  C
  C138     1.0000 0.56545  0.43450  0.72980  Biso   1.000  C
  C139     1.0000 0.93455  0.93450  0.77020  Biso   1.000  C
  C140     1.0000 0.06545  0.93450  0.72980  Biso   1.000  C
  C141     1.0000 0.56545  0.56550  0.22980  Biso   1.000  C
  C142     1.0000 0.43455  0.56550  0.27020  Biso   1.000  C
  C143     1.0000 0.06545  0.06550  0.22980  Biso   1.000  C
  C144     1.0000 0.93455  0.06550  0.27020  Biso   1.000  C
  H81      1.0000 0.43940  0.33730  0.74640  Biso   1.000  H
  H82      1.0000 0.56060  0.33730  0.75360  Biso   1.000  H
  H83      1.0000 0.93940  0.83730  0.74640  Biso   1.000  H
  H84      1.0000 0.06060  0.83730  0.75360  Biso   1.000  H
  H85      1.0000 0.56060  0.66270  0.25360  Biso   1.000  H
  H86      1.0000 0.43940  0.66270  0.24640  Biso   1.000  H
  H87      1.0000 0.06060  0.16270  0.25360  Biso   1.000  H
  H88      1.0000 0.93940  0.16270  0.24640  Biso   1.000  H
  C145     1.0000 0.41482  0.88810  0.87530  Biso   1.000  C
  C146     1.0000 0.58518  0.88810  0.62470  Biso   1.000  C
  C147     1.0000 0.91482  0.38810  0.87530  Biso   1.000  C
  C148     1.0000 0.08518  0.38810  0.62470  Biso   1.000  C
  C149     1.0000 0.58518  0.11190  0.12470  Biso   1.000  C
  C150     1.0000 0.41482  0.11190  0.37530  Biso   1.000  C
  C151     1.0000 0.08518  0.61190  0.12470  Biso   1.000  C
  C152     1.0000 0.91482  0.61190  0.37530  Biso   1.000  C
  H89      1.0000 0.42960  0.89390  0.92150  Biso   1.000  H
  H90      1.0000 0.57040  0.89390  0.57850  Biso   1.000  H
  H91      1.0000 0.92960  0.39390  0.92150  Biso   1.000  H
  H92      1.0000 0.07040  0.39390  0.57850  Biso   1.000  H
  H93      1.0000 0.57040  0.10610  0.07850  Biso   1.000  H
  H94      1.0000 0.42960  0.10610  0.42150  Biso   1.000  H
  H95      1.0000 0.07040  0.60610  0.07850  Biso   1.000  H
  H96      1.0000 0.92960  0.60610  0.42150  Biso   1.000  H
  H97      1.0000 0.42020  0.97730  0.84330  Biso   1.000  H
  H98      1.0000 0.57980  0.97730  0.65670  Biso   1.000  H
  H99      1.0000 0.92020  0.47730  0.84330  Biso   1.000  H
  H100     1.0000 0.07980  0.47730  0.65670  Biso   1.000  H
  H101     1.0000 0.57980  0.02270  0.15670  Biso   1.000  H
  H102     1.0000 0.42020  0.02270  0.34330  Biso   1.000  H
  H103     1.0000 0.07980  0.52270  0.15670  Biso   1.000  H
  H104     1.0000 0.92020  0.52270  0.34330  Biso   1.000  H
  N25      1.0000 0.38291  0.91600  0.89220  Biso   1.000  N
  N26      1.0000 0.61709  0.91600  0.60780  Biso   1.000  N
  N27      1.0000 0.88291  0.41600  0.89220  Biso   1.000  N
  N28      1.0000 0.11709  0.41600  0.60780  Biso   1.000  N
  N29      1.0000 0.61709  0.08400  0.10780  Biso   1.000  N
  N30      1.0000 0.38291  0.08400  0.39220  Biso   1.000  N
  N31      1.0000 0.11709  0.58400  0.10780  Biso   1.000  N
  N32      1.0000 0.88291  0.58400  0.39220  Biso   1.000  N
  H105     1.0000 0.37820  0.88000  0.93400  Biso   1.000  H
  H106     1.0000 0.62180  0.88000  0.56600  Biso   1.000  H
  H107     1.0000 0.87820  0.38000  0.93400  Biso   1.000  H
  H108     1.0000 0.12180  0.38000  0.56600  Biso   1.000  H
  H109     1.0000 0.62180  0.12000  0.06600  Biso   1.000  H
  H110     1.0000 0.37820  0.12000  0.43400  Biso   1.000  H
  H111     1.0000 0.12180  0.62000  0.06600  Biso   1.000  H
  H112     1.0000 0.87820  0.62000  0.43400  Biso   1.000  H
  C153     1.0000 0.36096  0.99300  0.84710  Biso   1.000  C
  C154     1.0000 0.63904  0.99300  0.65290  Biso   1.000  C
  C155     1.0000 0.86096  0.49300  0.84710  Biso   1.000  C
  C156     1.0000 0.13904  0.49300  0.65290  Biso   1.000  C
  C157     1.0000 0.63904  0.00700  0.15290  Biso   1.000  C
  C158     1.0000 0.36096  0.00700  0.34710  Biso   1.000  C
  C159     1.0000 0.13904  0.50700  0.15290  Biso   1.000  C
  C160     1.0000 0.86096  0.50700  0.34710  Biso   1.000  C
  O9       1.0000 0.36501  0.04650  0.78360  Biso   1.000  O
  O10      1.0000 0.63499  0.04650  0.71640  Biso   1.000  O
  O11      1.0000 0.86501  0.54650  0.78360  Biso   1.000  O
  O12      1.0000 0.13499  0.54650  0.71640  Biso   1.000  O
  O13      1.0000 0.63499  0.95350  0.21640  Biso   1.000  O
  O14      1.0000 0.36501  0.95350  0.28360  Biso   1.000  O
  O15      1.0000 0.13499  0.45350  0.21640  Biso   1.000  O
  O16      1.0000 0.86501  0.45350  0.28360  Biso   1.000  O
  C161     1.0000 0.33050  0.01480  0.87470  Biso   1.000  C
  C162     1.0000 0.66950  0.01480  0.62530  Biso   1.000  C
  C163     1.0000 0.83050  0.51480  0.87470  Biso   1.000  C
  C164     1.0000 0.16950  0.51480  0.62530  Biso   1.000  C
  C165     1.0000 0.66950  0.98520  0.12530  Biso   1.000  C
  C166     1.0000 0.33050  0.98520  0.37470  Biso   1.000  C
  C167     1.0000 0.16950  0.48520  0.12530  Biso   1.000  C
  C168     1.0000 0.83050  0.48520  0.37470  Biso   1.000  C
  C169     1.0000 0.31710  0.16620  0.88040  Biso   1.000  C
  C170     1.0000 0.68290  0.16620  0.61960  Biso   1.000  C
  C171     1.0000 0.81710  0.66620  0.88040  Biso   1.000  C
  C172     1.0000 0.18290  0.66620  0.61960  Biso   1.000  C
  C173     1.0000 0.68290  0.83380  0.11960  Biso   1.000  C
  C174     1.0000 0.31710  0.83380  0.38040  Biso   1.000  C
  C175     1.0000 0.18290  0.33380  0.11960  Biso   1.000  C
  C176     1.0000 0.81710  0.33380  0.38040  Biso   1.000  C
  C177     1.0000 0.28950  0.19900  0.90460  Biso   1.000  C
  C178     1.0000 0.71050  0.19900  0.59540  Biso   1.000  C
  C179     1.0000 0.78950  0.69900  0.90460  Biso   1.000  C
  C180     1.0000 0.21050  0.69900  0.59540  Biso   1.000  C
  C181     1.0000 0.71050  0.80100  0.09540  Biso   1.000  C
  C182     1.0000 0.28950  0.80100  0.40460  Biso   1.000  C
  C183     1.0000 0.21050  0.30100  0.09540  Biso   1.000  C
  C184     1.0000 0.78950  0.30100  0.40460  Biso   1.000  C
  C185     1.0000 0.27260  0.07500  0.92380  Biso   1.000  C
  C186     1.0000 0.72740  0.07500  0.57620  Biso   1.000  C
  C187     1.0000 0.77260  0.57500  0.92380  Biso   1.000  C
  C188     1.0000 0.22740  0.57500  0.57620  Biso   1.000  C
  C189     1.0000 0.72740  0.92500  0.07620  Biso   1.000  C
  C190     1.0000 0.27260  0.92500  0.42380  Biso   1.000  C
  C191     1.0000 0.22740  0.42500  0.07620  Biso   1.000  C
  C192     1.0000 0.77260  0.42500  0.42380  Biso   1.000  C
  C193     1.0000 0.28340  0.91500  0.91890  Biso   1.000  C
  C194     1.0000 0.71660  0.91500  0.58110  Biso   1.000  C
  C195     1.0000 0.78340  0.41500  0.91890  Biso   1.000  C
  C196     1.0000 0.21660  0.41500  0.58110  Biso   1.000  C
  C197     1.0000 0.71660  0.08500  0.08110  Biso   1.000  C
  C198     1.0000 0.28340  0.08500  0.41890  Biso   1.000  C
  C199     1.0000 0.21660  0.58500  0.08110  Biso   1.000  C
  C200     1.0000 0.78340  0.58500  0.41890  Biso   1.000  C
  C201     1.0000 0.31340  0.89010  0.89370  Biso   1.000  C
  C202     1.0000 0.68660  0.89010  0.60630  Biso   1.000  C
  C203     1.0000 0.81340  0.39010  0.89370  Biso   1.000  C
  C204     1.0000 0.18660  0.39010  0.60630  Biso   1.000  C
  C205     1.0000 0.68660  0.10990  0.10630  Biso   1.000  C
  C206     1.0000 0.31340  0.10990  0.39370  Biso   1.000  C
  C207     1.0000 0.18660  0.60990  0.10630  Biso   1.000  C
  C208     1.0000 0.81340  0.60990  0.39370  Biso   1.000  C
  O17      1.0000 0.40088  0.07380  0.67150  Biso   1.000  O
  O18      1.0000 0.59912  0.07380  0.82850  Biso   1.000  O
  O19      1.0000 0.90088  0.57380  0.67150  Biso   1.000  O
  O20      1.0000 0.09912  0.57380  0.82850  Biso   1.000  O
  O21      1.0000 0.59912  0.92620  0.32850  Biso   1.000  O
  O22      1.0000 0.40088  0.92620  0.17150  Biso   1.000  O
  O23      1.0000 0.09912  0.42620  0.32850  Biso   1.000  O
  O24      1.0000 0.90088  0.42620  0.17150  Biso   1.000  O
  O25      1.0000 0.38360  0.76290  0.02910  Biso   1.000  O
  O26      1.0000 0.61640  0.76290  0.47090  Biso   1.000  O
  O27      1.0000 0.88360  0.26290  0.02910  Biso   1.000  O
  O28      1.0000 0.11640  0.26290  0.47090  Biso   1.000  O
  O29      1.0000 0.61640  0.23710  0.97090  Biso   1.000  O
  O30      1.0000 0.38360  0.23710  0.52910  Biso   1.000  O
  O31      1.0000 0.11640  0.73710  0.97090  Biso   1.000  O
  O32      1.0000 0.88360  0.73710  0.52910  Biso   1.000  O
