data_image0
_cell_length_a       4.8692
_cell_length_b       47.735
_cell_length_c       6.2805
_cell_angle_alpha    90
_cell_angle_beta     91.129
_cell_angle_gamma    90

_symmetry_space_group_name_H-M    "P 1"
_symmetry_int_tables_number       1

loop_
  _symmetry_equiv_pos_as_xyz
  'x, y, z'

loop_
  _atom_site_label
  _atom_site_occupancy
  _atom_site_fract_x
  _atom_site_fract_y
  _atom_site_fract_z
  _atom_site_thermal_displace_type
  _atom_site_B_iso_or_equiv
  _atom_site_type_symbol
  Cu1      1.0000 0.90890  0.25000  0.50750  Biso   1.000  Cu
  Cu2      1.0000 0.09110  0.75000  0.49250  Biso   1.000  Cu
  S1       1.0000 0.46650  0.25000  0.82020  Biso   1.000  S
  S2       1.0000 0.53350  0.75000  0.17980  Biso   1.000  S
  F1       1.0000 0.65190  0.07904  0.29640  Biso   1.000  F
  F2       1.0000 0.34810  0.57904  0.70360  Biso   1.000  F
  F3       1.0000 0.34810  0.92096  0.70360  Biso   1.000  F
  F4       1.0000 0.65190  0.42096  0.29640  Biso   1.000  F
  F5       1.0000 0.83940  0.03006  0.16310  Biso   1.000  F
  F6       1.0000 0.16060  0.53006  0.83690  Biso   1.000  F
  F7       1.0000 0.16060  0.96994  0.83690  Biso   1.000  F
  F8       1.0000 0.83940  0.46994  0.16310  Biso   1.000  F
  F9       1.0000 0.68400  0.00918  0.78500  Biso   1.000  F
  F10      1.0000 0.31600  0.50918  0.21500  Biso   1.000  F
  F11      1.0000 0.31600  0.99082  0.21500  Biso   1.000  F
  F12      1.0000 0.68400  0.49082  0.78500  Biso   1.000  F
  F13      1.0000 0.31100  0.03759  0.53590  Biso   1.000  F
  F14      1.0000 0.68900  0.53759  0.46410  Biso   1.000  F
  F15      1.0000 0.68900  0.96241  0.46410  Biso   1.000  F
  F16      1.0000 0.31100  0.46241  0.53590  Biso   1.000  F
  F17      1.0000 0.13230  0.08762  0.66210  Biso   1.000  F
  F18      1.0000 0.86770  0.58762  0.33790  Biso   1.000  F
  F19      1.0000 0.86770  0.91238  0.33790  Biso   1.000  F
  F20      1.0000 0.13230  0.41238  0.66210  Biso   1.000  F
  N1       1.0000 0.84130  0.20814  0.49770  Biso   1.000  N
  N2       1.0000 0.15870  0.70814  0.50230  Biso   1.000  N
  N3       1.0000 0.15870  0.79186  0.50230  Biso   1.000  N
  N4       1.0000 0.84130  0.29186  0.49770  Biso   1.000  N
  C1       1.0000 0.94100  0.19117  0.65090  Biso   1.000  C
  C2       1.0000 0.05900  0.69117  0.34910  Biso   1.000  C
  C3       1.0000 0.05900  0.80883  0.34910  Biso   1.000  C
  C4       1.0000 0.94100  0.30883  0.65090  Biso   1.000  C
  H1       1.0000 0.06320  0.19820  0.75360  Biso   1.000  H
  H2       1.0000 0.93680  0.69820  0.24640  Biso   1.000  H
  H3       1.0000 0.93680  0.80180  0.24640  Biso   1.000  H
  H4       1.0000 0.06320  0.30180  0.75360  Biso   1.000  H
  C5       1.0000 0.86600  0.16360  0.65670  Biso   1.000  C
  C6       1.0000 0.13400  0.66360  0.34330  Biso   1.000  C
  C7       1.0000 0.13400  0.83640  0.34330  Biso   1.000  C
  C8       1.0000 0.86600  0.33640  0.65670  Biso   1.000  C
  H5       1.0000 0.93030  0.15240  0.76770  Biso   1.000  H
  H6       1.0000 0.06970  0.65240  0.23230  Biso   1.000  H
  H7       1.0000 0.06970  0.84760  0.23230  Biso   1.000  H
  H8       1.0000 0.93030  0.34760  0.76770  Biso   1.000  H
  C9       1.0000 0.70000  0.15250  0.50660  Biso   1.000  C
  C10      1.0000 0.30000  0.65250  0.49340  Biso   1.000  C
  C11      1.0000 0.30000  0.84750  0.49340  Biso   1.000  C
  C12      1.0000 0.70000  0.34750  0.50660  Biso   1.000  C
  H9       1.0000 0.65920  0.13340  0.50900  Biso   1.000  H
  H10      1.0000 0.34080  0.63340  0.49100  Biso   1.000  H
  H11      1.0000 0.34080  0.86660  0.49100  Biso   1.000  H
  H12      1.0000 0.65920  0.36660  0.50900  Biso   1.000  H
  C13      1.0000 0.59130  0.16952  0.34730  Biso   1.000  C
  C14      1.0000 0.40870  0.66952  0.65270  Biso   1.000  C
  C15      1.0000 0.40870  0.83048  0.65270  Biso   1.000  C
  C16      1.0000 0.59130  0.33048  0.34730  Biso   1.000  C
  C17      1.0000 0.67980  0.19724  0.34890  Biso   1.000  C
  C18      1.0000 0.32020  0.69724  0.65110  Biso   1.000  C
  C19      1.0000 0.32020  0.80276  0.65110  Biso   1.000  C
  C20      1.0000 0.67980  0.30276  0.34890  Biso   1.000  C
  H13      1.0000 0.62110  0.20880  0.23790  Biso   1.000  H
  H14      1.0000 0.37890  0.70880  0.76210  Biso   1.000  H
  H15      1.0000 0.37890  0.79120  0.76210  Biso   1.000  H
  H16      1.0000 0.62110  0.29120  0.23790  Biso   1.000  H
  C21      1.0000 0.39100  0.15971  0.17920  Biso   1.000  C
  C22      1.0000 0.60900  0.65971  0.82080  Biso   1.000  C
  C23      1.0000 0.60900  0.84029  0.82080  Biso   1.000  C
  C24      1.0000 0.39100  0.34029  0.17920  Biso   1.000  C
  H17      1.0000 0.20790  0.15930  0.23760  Biso   1.000  H
  H18      1.0000 0.79210  0.65930  0.76240  Biso   1.000  H
  H19      1.0000 0.79210  0.84070  0.76240  Biso   1.000  H
  H20      1.0000 0.20790  0.34070  0.23760  Biso   1.000  H
  H21      1.0000 0.38930  0.17280  0.06130  Biso   1.000  H
  H22      1.0000 0.61070  0.67280  0.93870  Biso   1.000  H
  H23      1.0000 0.61070  0.82720  0.93870  Biso   1.000  H
  H24      1.0000 0.38930  0.32720  0.06130  Biso   1.000  H
  N5       1.0000 0.46090  0.13186  0.10120  Biso   1.000  N
  N6       1.0000 0.53910  0.63186  0.89880  Biso   1.000  N
  N7       1.0000 0.53910  0.86814  0.89880  Biso   1.000  N
  N8       1.0000 0.46090  0.36814  0.10120  Biso   1.000  N
  H25      1.0000 0.63100  0.12760  0.08590  Biso   1.000  H
  H26      1.0000 0.36900  0.62760  0.91410  Biso   1.000  H
  H27      1.0000 0.36900  0.87240  0.91410  Biso   1.000  H
  H28      1.0000 0.63100  0.37240  0.08590  Biso   1.000  H
  C25      1.0000 0.26890  0.11276  0.05290  Biso   1.000  C
  C26      1.0000 0.73110  0.61276  0.94710  Biso   1.000  C
  C27      1.0000 0.73110  0.88724  0.94710  Biso   1.000  C
  C28      1.0000 0.26890  0.38724  0.05290  Biso   1.000  C
  O1       1.0000 0.02850  0.11678  0.05730  Biso   1.000  O
  O2       1.0000 0.97150  0.61678  0.94270  Biso   1.000  O
  O3       1.0000 0.97150  0.88322  0.94270  Biso   1.000  O
  O4       1.0000 0.02850  0.38322  0.05730  Biso   1.000  O
  C29      1.0000 0.38490  0.08492  0.98250  Biso   1.000  C
  C30      1.0000 0.61510  0.58492  0.01750  Biso   1.000  C
  C31      1.0000 0.61510  0.91508  0.01750  Biso   1.000  C
  C32      1.0000 0.38490  0.41508  0.98250  Biso   1.000  C
  C33      1.0000 0.56500  0.07010  0.10690  Biso   1.000  C
  C34      1.0000 0.43500  0.57010  0.89310  Biso   1.000  C
  C35      1.0000 0.43500  0.92990  0.89310  Biso   1.000  C
  C36      1.0000 0.56500  0.42990  0.10690  Biso   1.000  C
  C37      1.0000 0.67100  0.04440  0.03900  Biso   1.000  C
  C38      1.0000 0.32900  0.54440  0.96100  Biso   1.000  C
  C39      1.0000 0.32900  0.95560  0.96100  Biso   1.000  C
  C40      1.0000 0.67100  0.45560  0.03900  Biso   1.000  C
  C41      1.0000 0.58400  0.03390  0.85100  Biso   1.000  C
  C42      1.0000 0.41600  0.53390  0.14900  Biso   1.000  C
  C43      1.0000 0.41600  0.96610  0.14900  Biso   1.000  C
  C44      1.0000 0.58400  0.46610  0.85100  Biso   1.000  C
  C45      1.0000 0.40100  0.04790  0.72000  Biso   1.000  C
  C46      1.0000 0.59900  0.54790  0.28000  Biso   1.000  C
  C47      1.0000 0.59900  0.95210  0.28000  Biso   1.000  C
  C48      1.0000 0.40100  0.45210  0.72000  Biso   1.000  C
  C49      1.0000 0.29700  0.07370  0.79070  Biso   1.000  C
  C50      1.0000 0.70300  0.57370  0.20930  Biso   1.000  C
  C51      1.0000 0.70300  0.92630  0.20930  Biso   1.000  C
  C52      1.0000 0.29700  0.42630  0.79070  Biso   1.000  C
  O5       1.0000 0.34230  0.25000  0.60530  Biso   1.000  O
  O6       1.0000 0.65770  0.75000  0.39470  Biso   1.000  O
  O7       1.0000 0.39100  0.22517  0.93620  Biso   1.000  O
  O8       1.0000 0.60900  0.72517  0.06380  Biso   1.000  O
  O9       1.0000 0.60900  0.77483  0.06380  Biso   1.000  O
  O10      1.0000 0.39100  0.27483  0.93620  Biso   1.000  O
  O11      1.0000 0.77490  0.25000  0.80040  Biso   1.000  O
  O12      1.0000 0.22510  0.75000  0.19960  Biso   1.000  O
  O13      1.0000 0.99650  0.25000  0.20400  Biso   1.000  O
  O14      1.0000 0.00350  0.75000  0.79600  Biso   1.000  O
