data_image0
_cell_length_a       7.8548
_cell_length_b       12.6281
_cell_length_c       17.1032
_cell_angle_alpha    90
_cell_angle_beta     97.088
_cell_angle_gamma    90

_symmetry_space_group_name_H-M    "P 1"
_symmetry_int_tables_number       1

loop_
  _symmetry_equiv_pos_as_xyz
  'x, y, z'

loop_
  _atom_site_label
  _atom_site_occupancy
  _atom_site_fract_x
  _atom_site_fract_y
  _atom_site_fract_z
  _atom_site_thermal_displace_type
  _atom_site_B_iso_or_equiv
  _atom_site_type_symbol
  O1       1.0000 0.41670  0.56710  0.96320  Biso   1.000  O
  O2       1.0000 0.58330  0.06710  0.53680  Biso   1.000  O
  O3       1.0000 0.58330  0.43290  0.03680  Biso   1.000  O
  O4       1.0000 0.41670  0.93290  0.46320  Biso   1.000  O
  Cu1      1.0000 0.36680  0.49500  0.05600  Biso   1.000  Cu
  Cu2      1.0000 0.63320  0.99500  0.44400  Biso   1.000  Cu
  Cu3      1.0000 0.63320  0.50500  0.94400  Biso   1.000  Cu
  Cu4      1.0000 0.36680  0.00500  0.55600  Biso   1.000  Cu
  C1       1.0000 0.25100  0.41600  0.19630  Biso   1.000  C
  C2       1.0000 0.74900  0.91600  0.30370  Biso   1.000  C
  C3       1.0000 0.74900  0.58400  0.80370  Biso   1.000  C
  C4       1.0000 0.25100  0.08400  0.69630  Biso   1.000  C
  C5       1.0000 0.27520  0.34750  0.26430  Biso   1.000  C
  C6       1.0000 0.72480  0.84750  0.23570  Biso   1.000  C
  C7       1.0000 0.72480  0.65250  0.73570  Biso   1.000  C
  C8       1.0000 0.27520  0.15250  0.76430  Biso   1.000  C
  C9       1.0000 0.14460  0.33230  0.31070  Biso   1.000  C
  C10      1.0000 0.85540  0.83230  0.18930  Biso   1.000  C
  C11      1.0000 0.85540  0.66770  0.68930  Biso   1.000  C
  C12      1.0000 0.14460  0.16770  0.81070  Biso   1.000  C
  H1       1.0000 0.16350  0.28780  0.35570  Biso   1.000  H
  H2       1.0000 0.83650  0.78780  0.14430  Biso   1.000  H
  H3       1.0000 0.83650  0.71220  0.64430  Biso   1.000  H
  H4       1.0000 0.16350  0.21220  0.85570  Biso   1.000  H
  C13      1.0000 0.98640  0.38130  0.29230  Biso   1.000  C
  C14      1.0000 0.01360  0.88130  0.20770  Biso   1.000  C
  C15      1.0000 0.01360  0.61870  0.70770  Biso   1.000  C
  C16      1.0000 0.98640  0.11870  0.79230  Biso   1.000  C
  H5       1.0000 0.89770  0.36960  0.32440  Biso   1.000  H
  H6       1.0000 0.10230  0.86960  0.17560  Biso   1.000  H
  H7       1.0000 0.10230  0.63040  0.67560  Biso   1.000  H
  H8       1.0000 0.89770  0.13040  0.82440  Biso   1.000  H
  C17      1.0000 0.95800  0.44640  0.22820  Biso   1.000  C
  C18      1.0000 0.04200  0.94640  0.27180  Biso   1.000  C
  C19      1.0000 0.04200  0.55360  0.77180  Biso   1.000  C
  C20      1.0000 0.95800  0.05360  0.72820  Biso   1.000  C
  H9       1.0000 0.84880  0.47870  0.21590  Biso   1.000  H
  H10      1.0000 0.15120  0.97870  0.28410  Biso   1.000  H
  H11      1.0000 0.15120  0.52130  0.78410  Biso   1.000  H
  H12      1.0000 0.84880  0.02130  0.71590  Biso   1.000  H
  C21      1.0000 0.08950  0.46690  0.17920  Biso   1.000  C
  C22      1.0000 0.91050  0.96690  0.32080  Biso   1.000  C
  C23      1.0000 0.91050  0.53310  0.82080  Biso   1.000  C
  C24      1.0000 0.08950  0.03310  0.67920  Biso   1.000  C
  C25      1.0000 0.04870  0.53910  0.11540  Biso   1.000  C
  C26      1.0000 0.95130  0.03910  0.38460  Biso   1.000  C
  C27      1.0000 0.95130  0.46090  0.88460  Biso   1.000  C
  C28      1.0000 0.04870  0.96090  0.61540  Biso   1.000  C
  H13      1.0000 0.93820  0.57070  0.11050  Biso   1.000  H
  H14      1.0000 0.06180  0.07070  0.38950  Biso   1.000  H
  H15      1.0000 0.06180  0.42930  0.88950  Biso   1.000  H
  H16      1.0000 0.93820  0.92930  0.61050  Biso   1.000  H
  C29      1.0000 0.09050  0.64480  0.00620  Biso   1.000  C
  C30      1.0000 0.90950  0.14480  0.49380  Biso   1.000  C
  C31      1.0000 0.90950  0.35520  0.99380  Biso   1.000  C
  C32      1.0000 0.09050  0.85520  0.50620  Biso   1.000  C
  C33      1.0000 0.92080  0.68980  0.99300  Biso   1.000  C
  C34      1.0000 0.07920  0.18980  0.50700  Biso   1.000  C
  C35      1.0000 0.07920  0.31020  0.00700  Biso   1.000  C
  C36      1.0000 0.92080  0.81020  0.49300  Biso   1.000  C
  C37      1.0000 0.19090  0.69270  0.95600  Biso   1.000  C
  C38      1.0000 0.80910  0.19270  0.54400  Biso   1.000  C
  C39      1.0000 0.80910  0.30730  0.04400  Biso   1.000  C
  C40      1.0000 0.19090  0.80730  0.45600  Biso   1.000  C
  C41      1.0000 0.45740  0.21870  0.33370  Biso   1.000  C
  C42      1.0000 0.54260  0.71870  0.16630  Biso   1.000  C
  C43      1.0000 0.54260  0.78130  0.66630  Biso   1.000  C
  C44      1.0000 0.45740  0.28130  0.83370  Biso   1.000  C
  H17      1.0000 0.43460  0.24600  0.38500  Biso   1.000  H
  H18      1.0000 0.56540  0.74600  0.11500  Biso   1.000  H
  H19      1.0000 0.56540  0.75400  0.61500  Biso   1.000  H
  H20      1.0000 0.43460  0.25400  0.88500  Biso   1.000  H
  H21      1.0000 0.57580  0.19280  0.33760  Biso   1.000  H
  H22      1.0000 0.42420  0.69280  0.16240  Biso   1.000  H
  H23      1.0000 0.42420  0.80720  0.66240  Biso   1.000  H
  H24      1.0000 0.57580  0.30720  0.83760  Biso   1.000  H
  H25      1.0000 0.37820  0.16050  0.31780  Biso   1.000  H
  H26      1.0000 0.62180  0.66050  0.18220  Biso   1.000  H
  H27      1.0000 0.62180  0.83950  0.68220  Biso   1.000  H
  H28      1.0000 0.37820  0.33950  0.81780  Biso   1.000  H
  C45      1.0000 0.81790  0.85640  0.92510  Biso   1.000  C
  C46      1.0000 0.18210  0.35640  0.57490  Biso   1.000  C
  C47      1.0000 0.18210  0.14360  0.07490  Biso   1.000  C
  C48      1.0000 0.81790  0.64360  0.42510  Biso   1.000  C
  C49      1.0000 0.81720  0.92810  0.98460  Biso   1.000  C
  C50      1.0000 0.18280  0.42810  0.51540  Biso   1.000  C
  C51      1.0000 0.18280  0.07190  0.01540  Biso   1.000  C
  C52      1.0000 0.81720  0.57190  0.48460  Biso   1.000  C
  H29      1.0000 0.89020  0.91900  0.03270  Biso   1.000  H
  H30      1.0000 0.10980  0.41900  0.46730  Biso   1.000  H
  H31      1.0000 0.10980  0.08100  0.96730  Biso   1.000  H
  H32      1.0000 0.89020  0.58100  0.53270  Biso   1.000  H
  C53      1.0000 0.70800  0.01460  0.97370  Biso   1.000  C
  C54      1.0000 0.29200  0.51460  0.52630  Biso   1.000  C
  C55      1.0000 0.29200  0.98540  0.02630  Biso   1.000  C
  C56      1.0000 0.70800  0.48540  0.47370  Biso   1.000  C
  H33      1.0000 0.70720  0.06590  0.01430  Biso   1.000  H
  H34      1.0000 0.29280  0.56590  0.48570  Biso   1.000  H
  H35      1.0000 0.29280  0.93410  0.98570  Biso   1.000  H
  H36      1.0000 0.70720  0.43410  0.51430  Biso   1.000  H
  C57      1.0000 0.60140  0.02620  0.90470  Biso   1.000  C
  C58      1.0000 0.39860  0.52620  0.59530  Biso   1.000  C
  C59      1.0000 0.39860  0.97380  0.09530  Biso   1.000  C
  C60      1.0000 0.60140  0.47380  0.40470  Biso   1.000  C
  H37      1.0000 0.52570  0.08500  0.89790  Biso   1.000  H
  H38      1.0000 0.47430  0.58500  0.60210  Biso   1.000  H
  H39      1.0000 0.47430  0.91500  0.10210  Biso   1.000  H
  H40      1.0000 0.52570  0.41500  0.39790  Biso   1.000  H
  C61      1.0000 0.60270  0.95460  0.84600  Biso   1.000  C
  C62      1.0000 0.39730  0.45460  0.65400  Biso   1.000  C
  C63      1.0000 0.39730  0.04540  0.15400  Biso   1.000  C
  C64      1.0000 0.60270  0.54540  0.34600  Biso   1.000  C
  H41      1.0000 0.52880  0.96320  0.79810  Biso   1.000  H
  H42      1.0000 0.47120  0.46320  0.70190  Biso   1.000  H
  H43      1.0000 0.47120  0.03680  0.20190  Biso   1.000  H
  H44      1.0000 0.52880  0.53680  0.29810  Biso   1.000  H
  C65      1.0000 0.71220  0.86880  0.85620  Biso   1.000  C
  C66      1.0000 0.28780  0.36880  0.64380  Biso   1.000  C
  C67      1.0000 0.28780  0.13120  0.14380  Biso   1.000  C
  C68      1.0000 0.71220  0.63120  0.35620  Biso   1.000  C
  H45      1.0000 0.71380  0.81830  0.81520  Biso   1.000  H
  H46      1.0000 0.28620  0.31830  0.68480  Biso   1.000  H
  H47      1.0000 0.28620  0.18170  0.18480  Biso   1.000  H
  H48      1.0000 0.71380  0.68170  0.31520  Biso   1.000  H
  C69      1.0000 0.36890  0.67000  0.93910  Biso   1.000  C
  C70      1.0000 0.63110  0.17000  0.56090  Biso   1.000  C
  C71      1.0000 0.63110  0.33000  0.06090  Biso   1.000  C
  C72      1.0000 0.36890  0.83000  0.43910  Biso   1.000  C
  H49      1.0000 0.37540  0.67760  0.88200  Biso   1.000  H
  H50      1.0000 0.62460  0.17760  0.61800  Biso   1.000  H
  H51      1.0000 0.62460  0.32240  0.11800  Biso   1.000  H
  H52      1.0000 0.37540  0.82240  0.38200  Biso   1.000  H
  H53      1.0000 0.44920  0.72160  0.96740  Biso   1.000  H
  H54      1.0000 0.55080  0.22160  0.53260  Biso   1.000  H
  H55      1.0000 0.55080  0.27840  0.03260  Biso   1.000  H
  H56      1.0000 0.44920  0.77840  0.46740  Biso   1.000  H
  N1       1.0000 0.14900  0.56580  0.06310  Biso   1.000  N
  N2       1.0000 0.85100  0.06580  0.43690  Biso   1.000  N
  N3       1.0000 0.85100  0.43420  0.93690  Biso   1.000  N
  N4       1.0000 0.14900  0.93420  0.56310  Biso   1.000  N
  N5       1.0000 0.93100  0.76630  0.93580  Biso   1.000  N
  N6       1.0000 0.06900  0.26630  0.56420  Biso   1.000  N
  N7       1.0000 0.06900  0.23370  0.06420  Biso   1.000  N
  N8       1.0000 0.93100  0.73370  0.43580  Biso   1.000  N
  N9       1.0000 0.09780  0.77160  0.91660  Biso   1.000  N
  N10      1.0000 0.90220  0.27160  0.58340  Biso   1.000  N
  N11      1.0000 0.90220  0.22840  0.08340  Biso   1.000  N
  N12      1.0000 0.09780  0.72840  0.41660  Biso   1.000  N
  O5       1.0000 0.37720  0.42700  0.15460  Biso   1.000  O
  O6       1.0000 0.62280  0.92700  0.34540  Biso   1.000  O
  O7       1.0000 0.62280  0.57300  0.84540  Biso   1.000  O
  O8       1.0000 0.37720  0.07300  0.65460  Biso   1.000  O
  O9       1.0000 0.78740  0.67090  0.02270  Biso   1.000  O
  O10      1.0000 0.21260  0.17090  0.47730  Biso   1.000  O
  O11      1.0000 0.21260  0.32910  0.97730  Biso   1.000  O
  O12      1.0000 0.78740  0.82910  0.52270  Biso   1.000  O
  O13      1.0000 0.43360  0.30180  0.27620  Biso   1.000  O
  O14      1.0000 0.56640  0.80180  0.22380  Biso   1.000  O
  O15      1.0000 0.56640  0.69820  0.72380  Biso   1.000  O
  O16      1.0000 0.43360  0.19820  0.77620  Biso   1.000  O
  C73      1.0000 0.13240  0.82820  0.84700  Biso   1.000  C
  C74      1.0000 0.86760  0.32820  0.65300  Biso   1.000  C
  C75      1.0000 0.86760  0.17180  0.15300  Biso   1.000  C
  C76      1.0000 0.13240  0.67180  0.34700  Biso   1.000  C
  H57      1.0000 0.25650  0.83130  0.84530  Biso   1.000  H
  H58      1.0000 0.74350  0.33130  0.65470  Biso   1.000  H
  H59      1.0000 0.74350  0.16870  0.15470  Biso   1.000  H
  H60      1.0000 0.25650  0.66870  0.34530  Biso   1.000  H
  H61      1.0000 0.08660  0.90030  0.84840  Biso   1.000  H
  H62      1.0000 0.91340  0.40030  0.65160  Biso   1.000  H
  H63      1.0000 0.91340  0.09970  0.15160  Biso   1.000  H
  H64      1.0000 0.08660  0.59970  0.34840  Biso   1.000  H
  H65      1.0000 0.07740  0.79160  0.80000  Biso   1.000  H
  H66      1.0000 0.92260  0.29160  0.70000  Biso   1.000  H
  H67      1.0000 0.92260  0.20840  0.20000  Biso   1.000  H
  H68      1.0000 0.07740  0.70840  0.30000  Biso   1.000  H
  O17      1.0000 0.46410  0.74960  0.98080  Biso   1.000  O
  O18      1.0000 0.53590  0.24960  0.51920  Biso   1.000  O
  O19      1.0000 0.53590  0.25040  0.01920  Biso   1.000  O
  O20      1.0000 0.46410  0.75040  0.48080  Biso   1.000  O
  H69      1.0000 0.40700  0.59890  0.95850  Biso   1.000  H
  H70      1.0000 0.59300  0.09890  0.54150  Biso   1.000  H
  H71      1.0000 0.59300  0.40110  0.04150  Biso   1.000  H
  H72      1.0000 0.40700  0.90110  0.45850  Biso   1.000  H
  H73      1.0000 0.37790  0.67460  0.88200  Biso   1.000  H
  H74      1.0000 0.62210  0.17460  0.61800  Biso   1.000  H
  H75      1.0000 0.62210  0.32540  0.11800  Biso   1.000  H
  H76      1.0000 0.37790  0.82540  0.38200  Biso   1.000  H
