data_image0
_cell_length_a       12.2417
_cell_length_b       12.8209
_cell_length_c       20.5866
_cell_angle_alpha    94.519
_cell_angle_beta     90.329
_cell_angle_gamma    111.576

_symmetry_space_group_name_H-M    "P 1"
_symmetry_int_tables_number       1

loop_
  _symmetry_equiv_pos_as_xyz
  'x, y, z'

loop_
  _atom_site_label
  _atom_site_occupancy
  _atom_site_fract_x
  _atom_site_fract_y
  _atom_site_fract_z
  _atom_site_thermal_displace_type
  _atom_site_B_iso_or_equiv
  _atom_site_type_symbol
  C1       1.0000 0.55290  0.48610  0.48590  Biso   1.000  C
  C2       1.0000 0.44710  0.51390  0.51410  Biso   1.000  C
  C3       1.0000 0.52980  0.45660  0.00400  Biso   1.000  C
  C4       1.0000 0.47020  0.54340  0.99600  Biso   1.000  C
  C5       1.0000 0.75440  0.80630  0.18480  Biso   1.000  C
  C6       1.0000 0.24560  0.19370  0.81520  Biso   1.000  C
  H1       1.0000 0.71310  0.76170  0.21930  Biso   1.000  H
  H2       1.0000 0.28690  0.23830  0.78070  Biso   1.000  H
  H3       1.0000 0.78810  0.88470  0.20180  Biso   1.000  H
  H4       1.0000 0.21190  0.11530  0.79820  Biso   1.000  H
  C7       1.0000 0.84940  0.76620  0.15960  Biso   1.000  C
  C8       1.0000 0.15060  0.23380  0.84040  Biso   1.000  C
  H5       1.0000 0.89670  0.81690  0.12910  Biso   1.000  H
  H6       1.0000 0.10330  0.18310  0.87090  Biso   1.000  H
  H7       1.0000 0.90040  0.76480  0.19540  Biso   1.000  H
  H8       1.0000 0.09960  0.23520  0.80460  Biso   1.000  H
  C9       1.0000 0.85090  0.65080  0.33850  Biso   1.000  C
  C10      1.0000 0.14910  0.34920  0.66150  Biso   1.000  C
  H9       1.0000 0.79800  0.69150  0.34250  Biso   1.000  H
  H10      1.0000 0.20200  0.30850  0.65750  Biso   1.000  H
  H11      1.0000 0.90390  0.68060  0.30380  Biso   1.000  H
  H12      1.0000 0.09610  0.31940  0.69620  Biso   1.000  H
  C11      1.0000 0.91960  0.66920  0.40020  Biso   1.000  C
  C12      1.0000 0.08040  0.33080  0.59980  Biso   1.000  C
  H13      1.0000 0.99340  0.65990  0.39150  Biso   1.000  H
  H14      1.0000 0.00660  0.34010  0.60850  Biso   1.000  H
  H15      1.0000 0.93740  0.74580  0.41880  Biso   1.000  H
  H16      1.0000 0.06260  0.25420  0.58120  Biso   1.000  H
  C13      1.0000 0.71010  0.23060  0.44200  Biso   1.000  C
  C14      1.0000 0.28990  0.76940  0.55800  Biso   1.000  C
  H17      1.0000 0.75990  0.20600  0.41310  Biso   1.000  H
  H18      1.0000 0.24010  0.79400  0.58690  Biso   1.000  H
  H19      1.0000 0.69090  0.18340  0.47810  Biso   1.000  H
  H20      1.0000 0.30910  0.81660  0.52190  Biso   1.000  H
  C15      1.0000 0.60090  0.22160  0.40620  Biso   1.000  C
  C16      1.0000 0.39910  0.77840  0.59380  Biso   1.000  C
  H21      1.0000 0.56420  0.14700  0.38390  Biso   1.000  H
  H22      1.0000 0.43580  0.85300  0.61610  Biso   1.000  H
  H23      1.0000 0.54570  0.23450  0.43640  Biso   1.000  H
  H24      1.0000 0.45430  0.76550  0.56360  Biso   1.000  H
  Cu1      1.0000 0.64654  0.64293  0.08236  Biso   1.000  Cu
  Cu2      1.0000 0.35346  0.35707  0.91764  Biso   1.000  Cu
  Cu3      1.0000 0.75446  0.44793  0.40002  Biso   1.000  Cu
  Cu4      1.0000 0.24554  0.55207  0.59998  Biso   1.000  Cu
  N1       1.0000 0.67350  0.79200  0.12830  Biso   1.000  N
  N2       1.0000 0.32650  0.20800  0.87170  Biso   1.000  N
  H25      1.0000 0.70560  0.84670  0.10150  Biso   1.000  H
  H26      1.0000 0.29440  0.15330  0.89850  Biso   1.000  H
  H27      1.0000 0.60510  0.79560  0.14180  Biso   1.000  H
  H28      1.0000 0.39490  0.20440  0.85820  Biso   1.000  H
  N3       1.0000 0.79260  0.65320  0.12700  Biso   1.000  N
  N4       1.0000 0.20740  0.34680  0.87300  Biso   1.000  N
  H29      1.0000 0.77660  0.60190  0.15650  Biso   1.000  H
  H30      1.0000 0.22340  0.39810  0.84350  Biso   1.000  H
  H31      1.0000 0.84100  0.63890  0.09790  Biso   1.000  H
  H32      1.0000 0.15900  0.36110  0.90210  Biso   1.000  H
  N5       1.0000 0.78410  0.53400  0.32140  Biso   1.000  N
  N6       1.0000 0.21590  0.46600  0.67860  Biso   1.000  N
  H33      1.0000 0.82350  0.50590  0.29270  Biso   1.000  H
  H34      1.0000 0.17650  0.49410  0.70730  Biso   1.000  H
  H35      1.0000 0.71510  0.52640  0.30220  Biso   1.000  H
  H36      1.0000 0.28490  0.47360  0.69780  Biso   1.000  H
  N7       1.0000 0.85830  0.59350  0.44560  Biso   1.000  N
  N8       1.0000 0.14170  0.40650  0.55440  Biso   1.000  N
  H37      1.0000 0.81480  0.62370  0.47000  Biso   1.000  H
  H38      1.0000 0.18520  0.37630  0.53000  Biso   1.000  H
  H39      1.0000 0.91020  0.58160  0.47240  Biso   1.000  H
  H40      1.0000 0.08980  0.41840  0.52760  Biso   1.000  H
  N9       1.0000 0.77240  0.35080  0.46690  Biso   1.000  N
  N10      1.0000 0.22760  0.64920  0.53310  Biso   1.000  N
  H41      1.0000 0.84910  0.36460  0.47470  Biso   1.000  H
  H42      1.0000 0.15090  0.63540  0.52530  Biso   1.000  H
  H43      1.0000 0.74160  0.36570  0.50440  Biso   1.000  H
  H44      1.0000 0.25840  0.63430  0.49560  Biso   1.000  H
  N11      1.0000 0.63360  0.30780  0.35830  Biso   1.000  N
  N12      1.0000 0.36640  0.69220  0.64170  Biso   1.000  N
  H45      1.0000 0.56980  0.32140  0.34590  Biso   1.000  H
  H46      1.0000 0.43020  0.67860  0.65410  Biso   1.000  H
  H47      1.0000 0.66220  0.28290  0.32280  Biso   1.000  H
  H48      1.0000 0.33780  0.71710  0.67720  Biso   1.000  H
  O1       1.0000 0.53960  0.50790  0.28540  Biso   1.000  O
  O2       1.0000 0.46040  0.49210  0.71460  Biso   1.000  O
  O3       1.0000 0.41260  0.65000  0.26850  Biso   1.000  O
  O4       1.0000 0.58740  0.35000  0.73150  Biso   1.000  O
  O5       1.0000 0.36130  0.38260  0.37250  Biso   1.000  O
  O6       1.0000 0.63870  0.61740  0.62750  Biso   1.000  O
  O7       1.0000 0.24100  0.52190  0.36080  Biso   1.000  O
  O8       1.0000 0.75900  0.47810  0.63920  Biso   1.000  O
  O9       1.0000 0.64210  0.44310  0.18270  Biso   1.000  O
  O10      1.0000 0.35790  0.55690  0.81730  Biso   1.000  O
  O11      1.0000 0.45270  0.28540  0.24300  Biso   1.000  O
  O12      1.0000 0.54730  0.71460  0.75700  Biso   1.000  O
  O13      1.0000 0.48060  0.54780  0.16520  Biso   1.000  O
  O14      1.0000 0.51940  0.45220  0.83480  Biso   1.000  O
  O15      1.0000 0.40830  0.33000  0.12730  Biso   1.000  O
  O16      1.0000 0.59170  0.67000  0.87270  Biso   1.000  O
  O17      1.0000 0.35690  0.14820  0.03150  Biso   1.000  O
  O18      1.0000 0.64310  0.85180  0.96850  Biso   1.000  O
  O19      1.0000 0.23400  0.29570  0.03730  Biso   1.000  O
  O20      1.0000 0.76600  0.70430  0.96270  Biso   1.000  O
  O21      1.0000 0.12950  0.09480  0.07820  Biso   1.000  O
  O22      1.0000 0.87050  0.90520  0.92180  Biso   1.000  O
  O23      1.0000 0.30480  0.12750  0.16330  Biso   1.000  O
  O24      1.0000 0.69520  0.87250  0.83670  Biso   1.000  O
  O25      1.0000 0.16690  0.27160  0.15820  Biso   1.000  O
  O26      1.0000 0.83310  0.72840  0.84180  Biso   1.000  O
  O27      1.0000 0.31300  0.42310  0.23190  Biso   1.000  O
  O28      1.0000 0.68700  0.57690  0.76810  Biso   1.000  O
  O29      1.0000 0.28160  0.24180  0.46910  Biso   1.000  O
  O30      1.0000 0.71840  0.75820  0.53090  Biso   1.000  O
  O31      1.0000 0.13250  0.31060  0.39180  Biso   1.000  O
  O32      1.0000 0.86750  0.68940  0.60820  Biso   1.000  O
  O33      1.0000 0.12370  0.10200  0.36570  Biso   1.000  O
  O34      1.0000 0.87630  0.89800  0.63430  Biso   1.000  O
  O35      1.0000 0.05390  0.48450  0.44030  Biso   1.000  O
  O36      1.0000 0.94610  0.51550  0.55970  Biso   1.000  O
  O37      1.0000 0.93250  0.31240  0.34220  Biso   1.000  O
  O38      1.0000 0.06750  0.68760  0.65780  Biso   1.000  O
  O39      1.0000 0.03890  0.51570  0.30690  Biso   1.000  O
  O40      1.0000 0.96110  0.48430  0.69310  Biso   1.000  O
  O41      1.0000 0.09810  0.35420  0.25700  Biso   1.000  O
  O42      1.0000 0.90190  0.64580  0.74300  Biso   1.000  O
  O43      1.0000 0.74050  0.15770  0.27290  Biso   1.000  O
  O44      1.0000 0.25950  0.84230  0.72710  Biso   1.000  O
  O45      1.0000 0.88940  0.35830  0.22570  Biso   1.000  O
  O46      1.0000 0.11060  0.64170  0.77430  Biso   1.000  O
  O47      1.0000 0.96510  0.58220  0.19620  Biso   1.000  O
  O48      1.0000 0.03490  0.41780  0.80380  Biso   1.000  O
  O49      1.0000 0.04020  0.41930  0.13080  Biso   1.000  O
  O50      1.0000 0.95980  0.58070  0.86920  Biso   1.000  O
  O51      1.0000 0.19210  0.57310  0.21090  Biso   1.000  O
  O52      1.0000 0.80790  0.42690  0.78910  Biso   1.000  O
  O53      1.0000 0.91310  0.17190  0.17710  Biso   1.000  O
  O54      1.0000 0.08690  0.82810  0.82290  Biso   1.000  O
  O55      1.0000 0.95230  0.12240  0.29290  Biso   1.000  O
  O56      1.0000 0.04770  0.87760  0.70710  Biso   1.000  O
  O57      1.0000 0.00900  0.22630  0.06340  Biso   1.000  O
  O58      1.0000 0.99100  0.77370  0.93660  Biso   1.000  O
  O59      1.0000 0.10880  0.42690  0.00060  Biso   1.000  O
  O60      1.0000 0.89120  0.57310  0.99940  Biso   1.000  O
  O61      1.0000 0.26410  0.49020  0.10930  Biso   1.000  O
  O62      1.0000 0.73590  0.50980  0.89070  Biso   1.000  O
  O63      1.0000 0.96480  0.90620  0.29850  Biso   1.000  O
  O64      1.0000 0.03520  0.09380  0.70150  Biso   1.000  O
  O65      1.0000 0.34710  0.17180  0.34470  Biso   1.000  O
  O66      1.0000 0.65290  0.82820  0.65530  Biso   1.000  O
  O67      1.0000 0.02850  0.04170  0.19100  Biso   1.000  O
  O68      1.0000 0.97150  0.95830  0.80900  Biso   1.000  O
  O69      1.0000 0.88090  0.99830  0.07780  Biso   1.000  O
  O70      1.0000 0.11910  0.00170  0.92220  Biso   1.000  O
  O71      1.0000 0.19600  0.01480  0.26150  Biso   1.000  O
  O72      1.0000 0.80400  0.98520  0.73850  Biso   1.000  O
  O73      1.0000 0.21040  0.22790  0.26870  Biso   1.000  O
  O74      1.0000 0.78960  0.77210  0.73130  Biso   1.000  O
  O75      1.0000 0.39100  0.71760  0.14950  Biso   1.000  O
  O76      1.0000 0.60900  0.28240  0.85050  Biso   1.000  O
  O77      1.0000 0.43870  0.06000  0.25080  Biso   1.000  O
  O78      1.0000 0.56130  0.94000  0.74920  Biso   1.000  O
  O79      1.0000 0.39890  0.74200  0.40250  Biso   1.000  O
  O80      1.0000 0.60110  0.25800  0.59750  Biso   1.000  O
  O81      1.0000 0.63160  0.73150  0.39690  Biso   1.000  O
  O82      1.0000 0.36840  0.26850  0.60310  Biso   1.000  O
  O83      1.0000 0.58110  0.51460  0.43080  Biso   1.000  O
  O84      1.0000 0.41890  0.48540  0.56920  Biso   1.000  O
  O85      1.0000 0.59580  0.43520  0.52080  Biso   1.000  O
  O86      1.0000 0.40420  0.56480  0.47920  Biso   1.000  O
  O87      1.0000 0.49040  0.36500  0.97090  Biso   1.000  O
  O88      1.0000 0.50960  0.63500  0.02910  Biso   1.000  O
  O89      1.0000 0.62170  0.49280  0.04040  Biso   1.000  O
  O90      1.0000 0.37830  0.50720  0.95960  Biso   1.000  O
  P1       1.0000 0.19840  0.31990  0.22955  Biso   1.000  P
  P2       1.0000 0.80160  0.68010  0.77045  Biso   1.000  P
  Tb1      1.0000 0.44463  0.57701  0.36652  Biso   1.000  Tb
  Tb2      1.0000 0.55537  0.42299  0.63348  Biso   1.000  Tb
  W1       1.0000 0.50281  0.42839  0.20771  Biso   1.000  W
  W2       1.0000 0.49719  0.57161  0.79229  Biso   1.000  W
  W3       1.0000 0.29048  0.20544  0.08932  Biso   1.000  W
  W4       1.0000 0.70952  0.79456  0.91068  Biso   1.000  W
  W5       1.0000 0.34688  0.13425  0.25322  Biso   1.000  W
  W6       1.0000 0.65312  0.86575  0.74678  Biso   1.000  W
  W7       1.0000 0.25639  0.25257  0.38827  Biso   1.000  W
  W8       1.0000 0.74361  0.74743  0.61173  Biso   1.000  W
  W9       1.0000 0.05577  0.03938  0.28331  Biso   1.000  W
  W10      1.0000 0.94423  0.96062  0.71669  Biso   1.000  W
  W11      1.0000 0.09327  0.43434  0.36758  Biso   1.000  W
  W12      1.0000 0.90673  0.56566  0.63242  Biso   1.000  W
  W13      1.0000 0.88842  0.22496  0.26457  Biso   1.000  W
  W14      1.0000 0.11158  0.77504  0.73543  Biso   1.000  W
  W15      1.0000 0.02790  0.48776  0.21459  Biso   1.000  W
  W16      1.0000 0.97210  0.51224  0.78541  Biso   1.000  W
  W17      1.0000 0.99510  0.10801  0.11762  Biso   1.000  W
  W18      1.0000 0.00490  0.89199  0.88238  Biso   1.000  W
  W19      1.0000 0.13674  0.37453  0.07013  Biso   1.000  W
  W20      1.0000 0.86326  0.62547  0.92987  Biso   1.000  W
  W21      1.0000 0.35184  0.59618  0.18897  Biso   1.000  W
  W22      1.0000 0.64816  0.40382  0.81103  Biso   1.000  W
  C17      1.0000 0.62130  0.19750  0.13540  Biso   1.000  C
  C18      1.0000 0.37870  0.80250  0.86460  Biso   1.000  C
  H49      1.0000 0.54660  0.19600  0.11830  Biso   1.000  H
  H50      1.0000 0.45340  0.80400  0.88170  Biso   1.000  H
  H51      1.0000 0.62920  0.22470  0.18110  Biso   1.000  H
  H52      1.0000 0.37080  0.77530  0.81890  Biso   1.000  H
  C19      1.0000 0.62350  0.07970  0.12830  Biso   1.000  C
  C20      1.0000 0.37650  0.92030  0.87170  Biso   1.000  C
  H53      1.0000 0.67800  0.07390  0.16090  Biso   1.000  H
  H54      1.0000 0.32200  0.92610  0.83910  Biso   1.000  H
  H55      1.0000 0.54600  0.02580  0.13610  Biso   1.000  H
  H56      1.0000 0.45400  0.97420  0.86390  Biso   1.000  H
  Cu5      1.0000 0.74320  0.18936  0.01834  Biso   1.000  Cu
  Cu6      1.0000 0.25680  0.81064  0.98166  Biso   1.000  Cu
  N13      1.0000 0.78440  0.09680  0.94830  Biso   1.000  N
  N14      1.0000 0.21560  0.90320  0.05170  Biso   1.000  N
  H57      1.0000 0.82700  0.06080  0.96540  Biso   1.000  H
  H58      1.0000 0.17300  0.93920  0.03460  Biso   1.000  H
  H59      1.0000 0.71840  0.04480  0.92930  Biso   1.000  H
  H60      1.0000 0.28160  0.95520  0.07070  Biso   1.000  H
  N15      1.0000 0.83580  0.32110  0.96680  Biso   1.000  N
  N16      1.0000 0.16420  0.67890  0.03320  Biso   1.000  N
  H61      1.0000 0.79030  0.35950  0.95680  Biso   1.000  H
  H62      1.0000 0.20970  0.64050  0.04320  Biso   1.000  H
  H63      1.0000 0.89860  0.36830  0.99090  Biso   1.000  H
  H64      1.0000 0.10140  0.63170  0.00910  Biso   1.000  H
  N17      1.0000 0.72000  0.27560  0.09900  Biso   1.000  N
  N18      1.0000 0.28000  0.72440  0.90100  Biso   1.000  N
  H65      1.0000 0.78640  0.30220  0.12420  Biso   1.000  H
  H66      1.0000 0.21360  0.69780  0.87580  Biso   1.000  H
  H67      1.0000 0.70220  0.33440  0.08830  Biso   1.000  H
  H68      1.0000 0.29780  0.66560  0.91170  Biso   1.000  H
  N19      1.0000 0.65770  0.05250  0.06530  Biso   1.000  N
  N20      1.0000 0.34230  0.94750  0.93470  Biso   1.000  N
  H69      1.0000 0.59330  0.00840  0.04120  Biso   1.000  H
  H70      1.0000 0.40670  0.99160  0.95880  Biso   1.000  H
  H71      1.0000 0.70450  0.01300  0.06920  Biso   1.000  H
  H72      1.0000 0.29550  0.98700  0.93080  Biso   1.000  H
  O91      1.0000 0.56260  0.16740  0.96060  Biso   1.000  O
  O92      1.0000 0.43740  0.83260  0.03940  Biso   1.000  O
  C21      1.0000 0.87300  0.27930  0.90900  Biso   1.000  C
  C22      1.0000 0.12700  0.72070  0.09100  Biso   1.000  C
  H73      1.0000 0.83670  0.29850  0.87220  Biso   1.000  H
  H74      1.0000 0.16330  0.70150  0.12780  Biso   1.000  H
  H75      1.0000 0.95740  0.31810  0.90690  Biso   1.000  H
  H76      1.0000 0.04260  0.68190  0.09310  Biso   1.000  H
  C23      1.0000 0.84900  0.16500  0.90200  Biso   1.000  C
  C24      1.0000 0.15100  0.83500  0.09800  Biso   1.000  C
  H77      1.0000 0.92320  0.15470  0.89930  Biso   1.000  H
  H78      1.0000 0.07680  0.84530  0.10070  Biso   1.000  H
  H79      1.0000 0.80720  0.13610  0.86020  Biso   1.000  H
  H80      1.0000 0.19280  0.86390  0.13980  Biso   1.000  H
  O93      1.0000 0.55550  0.89860  0.25940  Biso   1.000  O
  O94      1.0000 0.44450  0.10140  0.74060  Biso   1.000  O
  O95      1.0000 0.71070  0.94600  0.36410  Biso   1.000  O
  O96      1.0000 0.28930  0.05400  0.63590  Biso   1.000  O
  O97      1.0000 0.22200  0.95450  0.43610  Biso   1.000  O
  O98      1.0000 0.77800  0.04550  0.56390  Biso   1.000  O
  O99      1.0000 0.24100  0.79100  0.32580  Biso   1.000  O
  O100     1.0000 0.75900  0.20900  0.67420  Biso   1.000  O
  O101     1.0000 0.43390  0.06240  0.52630  Biso   1.000  O
  O102     1.0000 0.56610  0.93760  0.47370  Biso   1.000  O
  O103     1.0000 0.92600  0.07800  0.45640  Biso   1.000  O
  O104     1.0000 0.07400  0.92200  0.54360  Biso   1.000  O
