data_image0
_cell_length_a       12.2921
_cell_length_b       17.4892
_cell_length_c       13.9748
_cell_angle_alpha    90
_cell_angle_beta     109.72
_cell_angle_gamma    90

_symmetry_space_group_name_H-M    "P 1"
_symmetry_int_tables_number       1

loop_
  _symmetry_equiv_pos_as_xyz
  'x, y, z'

loop_
  _atom_site_label
  _atom_site_occupancy
  _atom_site_fract_x
  _atom_site_fract_y
  _atom_site_fract_z
  _atom_site_thermal_displace_type
  _atom_site_B_iso_or_equiv
  _atom_site_type_symbol
  Cu1      1.0000 0.31064  0.21154  0.55911  Biso   1.000  Cu
  Cu2      1.0000 0.18936  0.71154  0.94089  Biso   1.000  Cu
  Cu3      1.0000 0.68936  0.78846  0.44089  Biso   1.000  Cu
  Cu4      1.0000 0.81064  0.28846  0.05911  Biso   1.000  Cu
  Cu5      1.0000 0.24199  0.74233  0.50990  Biso   1.000  Cu
  Cu6      1.0000 0.25801  0.24233  0.99010  Biso   1.000  Cu
  Cu7      1.0000 0.75801  0.25767  0.49010  Biso   1.000  Cu
  Cu8      1.0000 0.74199  0.75767  0.00990  Biso   1.000  Cu
  S1       1.0000 0.79157  0.46006  0.76008  Biso   1.000  S
  S2       1.0000 0.70843  0.96006  0.73992  Biso   1.000  S
  S3       1.0000 0.20843  0.53994  0.23992  Biso   1.000  S
  S4       1.0000 0.29157  0.03994  0.26008  Biso   1.000  S
  O1       1.0000 0.41850  0.29440  0.60140  Biso   1.000  O
  O2       1.0000 0.08150  0.79440  0.89860  Biso   1.000  O
  O3       1.0000 0.58150  0.70560  0.39860  Biso   1.000  O
  O4       1.0000 0.91850  0.20560  0.10140  Biso   1.000  O
  O5       1.0000 0.80310  0.46590  0.86570  Biso   1.000  O
  O6       1.0000 0.69690  0.96590  0.63430  Biso   1.000  O
  O7       1.0000 0.19690  0.53410  0.13430  Biso   1.000  O
  O8       1.0000 0.30310  0.03410  0.36570  Biso   1.000  O
  O9       1.0000 0.32780  0.64830  0.55880  Biso   1.000  O
  O10      1.0000 0.17220  0.14830  0.94120  Biso   1.000  O
  O11      1.0000 0.67220  0.35170  0.44120  Biso   1.000  O
  O12      1.0000 0.82780  0.85170  0.05880  Biso   1.000  O
  O13      1.0000 0.81470  0.38150  0.73860  Biso   1.000  O
  O14      1.0000 0.68530  0.88150  0.76140  Biso   1.000  O
  O15      1.0000 0.18530  0.61850  0.26140  Biso   1.000  O
  O16      1.0000 0.31470  0.11850  0.23860  Biso   1.000  O
  H1       1.0000 0.77360  0.35250  0.75740  Biso   1.000  H
  H2       1.0000 0.72640  0.85250  0.74260  Biso   1.000  H
  H3       1.0000 0.22640  0.64750  0.24260  Biso   1.000  H
  H4       1.0000 0.27360  0.14750  0.25740  Biso   1.000  H
  O17      1.0000 0.85940  0.51440  0.72970  Biso   1.000  O
  O18      1.0000 0.64060  0.01440  0.77030  Biso   1.000  O
  O19      1.0000 0.14060  0.48560  0.27030  Biso   1.000  O
  O20      1.0000 0.35940  0.98560  0.22970  Biso   1.000  O
  O21      1.0000 0.50530  0.69750  0.61960  Biso   1.000  O
  O22      1.0000 0.99470  0.19750  0.88040  Biso   1.000  O
  O23      1.0000 0.49470  0.30250  0.38040  Biso   1.000  O
  O24      1.0000 0.00530  0.80250  0.11960  Biso   1.000  O
  O25      1.0000 0.28110  0.36690  0.49620  Biso   1.000  O
  O26      1.0000 0.21890  0.86690  0.00380  Biso   1.000  O
  O27      1.0000 0.71890  0.63310  0.50380  Biso   1.000  O
  O28      1.0000 0.78110  0.13310  0.99620  Biso   1.000  O
  O29      1.0000 0.23180  0.24640  0.65880  Biso   1.000  O
  O30      1.0000 0.26820  0.74640  0.84120  Biso   1.000  O
  O31      1.0000 0.76820  0.75360  0.34120  Biso   1.000  O
  O32      1.0000 0.73180  0.25360  0.15880  Biso   1.000  O
  H5       1.0000 0.16710  0.22380  0.64530  Biso   1.000  H
  H6       1.0000 0.33290  0.72380  0.85470  Biso   1.000  H
  H7       1.0000 0.83290  0.77620  0.35470  Biso   1.000  H
  H8       1.0000 0.66710  0.27620  0.14530  Biso   1.000  H
  H9       1.0000 0.22100  0.29440  0.65330  Biso   1.000  H
  H10      1.0000 0.27900  0.79440  0.84670  Biso   1.000  H
  H11      1.0000 0.77900  0.70560  0.34670  Biso   1.000  H
  H12      1.0000 0.72100  0.20560  0.15330  Biso   1.000  H
  O33      1.0000 0.36330  0.19900  0.43790  Biso   1.000  O
  O34      1.0000 0.13670  0.69900  0.06210  Biso   1.000  O
  O35      1.0000 0.63670  0.80100  0.56210  Biso   1.000  O
  O36      1.0000 0.86330  0.30100  0.93790  Biso   1.000  O
  H13      1.0000 0.30990  0.17780  0.38980  Biso   1.000  H
  H14      1.0000 0.19010  0.67780  0.11020  Biso   1.000  H
  H15      1.0000 0.69010  0.82220  0.61020  Biso   1.000  H
  H16      1.0000 0.80990  0.32220  0.88980  Biso   1.000  H
  H17      1.0000 0.42340  0.17110  0.45450  Biso   1.000  H
  H18      1.0000 0.07660  0.67110  0.04550  Biso   1.000  H
  H19      1.0000 0.57660  0.82890  0.54550  Biso   1.000  H
  H20      1.0000 0.92340  0.32890  0.95450  Biso   1.000  H
  C1       1.0000 0.64380  0.47800  0.68880  Biso   1.000  C
  C2       1.0000 0.85620  0.97800  0.81120  Biso   1.000  C
  C3       1.0000 0.35620  0.52200  0.31120  Biso   1.000  C
  C4       1.0000 0.14380  0.02200  0.18880  Biso   1.000  C
  C5       1.0000 0.41240  0.50040  0.57950  Biso   1.000  C
  C6       1.0000 0.08760  0.00040  0.92050  Biso   1.000  C
  C7       1.0000 0.58760  0.49960  0.42050  Biso   1.000  C
  C8       1.0000 0.91240  0.99960  0.07950  Biso   1.000  C
  H21      1.0000 0.33500  0.50800  0.54130  Biso   1.000  H
  H22      1.0000 0.16500  0.00800  0.95870  Biso   1.000  H
  H23      1.0000 0.66500  0.49200  0.45870  Biso   1.000  H
  H24      1.0000 0.83500  0.99200  0.04130  Biso   1.000  H
  C9       1.0000 0.57200  0.41530  0.65570  Biso   1.000  C
  C10      1.0000 0.92800  0.91530  0.84430  Biso   1.000  C
  C11      1.0000 0.42800  0.58470  0.34430  Biso   1.000  C
  C12      1.0000 0.07200  0.08470  0.15570  Biso   1.000  C
  H25      1.0000 0.60120  0.36600  0.67080  Biso   1.000  H
  H26      1.0000 0.89880  0.86600  0.82920  Biso   1.000  H
  H27      1.0000 0.39880  0.63400  0.32920  Biso   1.000  H
  H28      1.0000 0.10120  0.13400  0.17080  Biso   1.000  H
  C13      1.0000 0.37800  0.35950  0.56150  Biso   1.000  C
  C14      1.0000 0.12200  0.85950  0.93850  Biso   1.000  C
  C15      1.0000 0.62200  0.64050  0.43850  Biso   1.000  C
  C16      1.0000 0.87800  0.14050  0.06150  Biso   1.000  C
  C17      1.0000 0.48410  0.56290  0.61630  Biso   1.000  C
  C18      1.0000 0.01590  0.06290  0.88370  Biso   1.000  C
  C19      1.0000 0.51590  0.43710  0.38370  Biso   1.000  C
  C20      1.0000 0.98410  0.93710  0.11630  Biso   1.000  C
  C21      1.0000 0.43710  0.64320  0.59660  Biso   1.000  C
  C22      1.0000 0.06290  0.14320  0.90340  Biso   1.000  C
  C23      1.0000 0.56290  0.35680  0.40340  Biso   1.000  C
  C24      1.0000 0.93710  0.85680  0.09660  Biso   1.000  C
  C25      1.0000 0.45560  0.42670  0.59960  Biso   1.000  C
  C26      1.0000 0.04440  0.92670  0.90040  Biso   1.000  C
  C27      1.0000 0.54440  0.57330  0.40040  Biso   1.000  C
  C28      1.0000 0.95560  0.07330  0.09960  Biso   1.000  C
  C29      1.0000 0.60150  0.55120  0.67040  Biso   1.000  C
  C30      1.0000 0.89850  0.05120  0.82960  Biso   1.000  C
  C31      1.0000 0.39850  0.44880  0.32960  Biso   1.000  C
  C32      1.0000 0.10150  0.94880  0.17040  Biso   1.000  C
  H29      1.0000 0.65060  0.59280  0.69370  Biso   1.000  H
  H30      1.0000 0.84940  0.09280  0.80630  Biso   1.000  H
  H31      1.0000 0.34940  0.40720  0.30630  Biso   1.000  H
  H32      1.0000 0.15060  0.90720  0.19370  Biso   1.000  H
  O37      1.0000 0.34350  0.79760  0.62950  Biso   1.000  O
  O38      1.0000 0.15650  0.29760  0.87050  Biso   1.000  O
  O39      1.0000 0.65650  0.20240  0.37050  Biso   1.000  O
  O40      1.0000 0.84350  0.70240  0.12950  Biso   1.000  O
  H33      1.0000 0.34770  0.84430  0.61430  Biso   1.000  H
  H34      1.0000 0.15230  0.34430  0.88570  Biso   1.000  H
  H35      1.0000 0.65230  0.15570  0.38570  Biso   1.000  H
  H36      1.0000 0.84770  0.65570  0.11430  Biso   1.000  H
  H37      1.0000 0.41060  0.77780  0.64820  Biso   1.000  H
  H38      1.0000 0.08940  0.27780  0.85180  Biso   1.000  H
  H39      1.0000 0.58940  0.22220  0.35180  Biso   1.000  H
  H40      1.0000 0.91060  0.72220  0.14820  Biso   1.000  H
  O41      1.0000 0.12200  0.67580  0.41370  Biso   1.000  O
  O42      1.0000 0.37800  0.17580  0.08630  Biso   1.000  O
  O43      1.0000 0.87800  0.32420  0.58630  Biso   1.000  O
  O44      1.0000 0.62200  0.82420  0.91370  Biso   1.000  O
  H41      1.0000 0.14130  0.66600  0.36200  Biso   1.000  H
  H42      1.0000 0.35870  0.16600  0.13800  Biso   1.000  H
  H43      1.0000 0.85870  0.33400  0.63800  Biso   1.000  H
  H44      1.0000 0.64130  0.83400  0.86200  Biso   1.000  H
  H45      1.0000 0.05740  0.69910  0.39490  Biso   1.000  H
  H46      1.0000 0.44260  0.19910  0.10510  Biso   1.000  H
  H47      1.0000 0.94260  0.30090  0.60510  Biso   1.000  H
  H48      1.0000 0.55740  0.80090  0.89490  Biso   1.000  H
  O45      1.0000 0.35660  0.77120  0.40350  Biso   1.000  O
  O46      1.0000 0.14340  0.27120  0.09650  Biso   1.000  O
  O47      1.0000 0.64340  0.22880  0.59650  Biso   1.000  O
  O48      1.0000 0.85660  0.72880  0.90350  Biso   1.000  O
  H49      1.0000 0.41100  0.73870  0.41480  Biso   1.000  H
  H50      1.0000 0.08900  0.23870  0.08520  Biso   1.000  H
  H51      1.0000 0.58900  0.26130  0.58520  Biso   1.000  H
  H52      1.0000 0.91100  0.76130  0.91480  Biso   1.000  H
  H53      1.0000 0.38500  0.81580  0.41720  Biso   1.000  H
  H54      1.0000 0.11500  0.31580  0.08280  Biso   1.000  H
  H55      1.0000 0.61500  0.18420  0.58280  Biso   1.000  H
  H56      1.0000 0.88500  0.68420  0.91720  Biso   1.000  H
  O49      1.0000 0.43210  0.13300  0.67960  Biso   1.000  O
  O50      1.0000 0.06790  0.63300  0.82040  Biso   1.000  O
  O51      1.0000 0.56790  0.86700  0.32040  Biso   1.000  O
  O52      1.0000 0.93210  0.36700  0.17960  Biso   1.000  O
  H57      1.0000 0.49610  0.15580  0.70800  Biso   1.000  H
  H58      1.0000 0.00390  0.65580  0.79200  Biso   1.000  H
  H59      1.0000 0.50390  0.84420  0.29200  Biso   1.000  H
  H60      1.0000 0.99610  0.34420  0.20800  Biso   1.000  H
  H61      1.0000 0.44390  0.09220  0.65150  Biso   1.000  H
  H62      1.0000 0.05610  0.59220  0.84850  Biso   1.000  H
  H63      1.0000 0.55610  0.90780  0.34850  Biso   1.000  H
  H64      1.0000 0.94390  0.40780  0.15150  Biso   1.000  H
  S5       1.0000 0.70801  0.03224  0.24900  Biso   1.000  S
  S6       1.0000 0.79199  0.53224  0.25100  Biso   1.000  S
  S7       1.0000 0.29199  0.96776  0.75100  Biso   1.000  S
  S8       1.0000 0.20801  0.46776  0.74900  Biso   1.000  S
  O53      1.0000 0.66020  0.96110  0.19810  Biso   1.000  O
  O54      1.0000 0.83980  0.46110  0.30190  Biso   1.000  O
  O55      1.0000 0.33980  0.03890  0.80190  Biso   1.000  O
  O56      1.0000 0.16020  0.53890  0.69810  Biso   1.000  O
  H65      1.0000 0.66900  0.92560  0.24150  Biso   1.000  H
  H66      1.0000 0.83100  0.42560  0.25850  Biso   1.000  H
  H67      1.0000 0.33100  0.07440  0.75850  Biso   1.000  H
  H68      1.0000 0.16900  0.57440  0.74150  Biso   1.000  H
  O57      1.0000 0.21750  0.12050  0.51840  Biso   1.000  O
  O58      1.0000 0.28250  0.62050  0.98160  Biso   1.000  O
  O59      1.0000 0.78250  0.87950  0.48160  Biso   1.000  O
  O60      1.0000 0.71750  0.37950  0.01840  Biso   1.000  O
  O61      1.0000 0.69810  0.09510  0.17930  Biso   1.000  O
  O62      1.0000 0.80190  0.59510  0.32070  Biso   1.000  O
  O63      1.0000 0.30190  0.90490  0.82070  Biso   1.000  O
  O64      1.0000 0.19810  0.40490  0.67930  Biso   1.000  O
  O65      1.0000 0.66210  0.05060  0.32980  Biso   1.000  O
  O66      1.0000 0.83790  0.55060  0.17020  Biso   1.000  O
  O67      1.0000 0.33790  0.94940  0.67020  Biso   1.000  O
  O68      1.0000 0.16210  0.44940  0.82980  Biso   1.000  O
  O69      1.0000 0.08750  0.19710  0.41440  Biso   1.000  O
  O70      1.0000 0.41250  0.69710  0.08560  Biso   1.000  O
  O71      1.0000 0.91250  0.80290  0.58560  Biso   1.000  O
  O72      1.0000 0.58750  0.30290  0.91440  Biso   1.000  O
  C33      1.0000 0.01480  0.92800  0.38530  Biso   1.000  C
  C34      1.0000 0.48520  0.42800  0.11470  Biso   1.000  C
  C35      1.0000 0.98520  0.07200  0.61470  Biso   1.000  C
  C36      1.0000 0.51480  0.57200  0.88530  Biso   1.000  C
  C37      1.0000 0.08620  0.98950  0.42550  Biso   1.000  C
  C38      1.0000 0.41380  0.48950  0.07450  Biso   1.000  C
  C39      1.0000 0.91380  0.01050  0.57450  Biso   1.000  C
  C40      1.0000 0.58620  0.51050  0.92550  Biso   1.000  C
  H69      1.0000 0.16270  0.98080  0.46560  Biso   1.000  H
  H70      1.0000 0.33730  0.48080  0.03440  Biso   1.000  H
  H71      1.0000 0.83730  0.01920  0.53440  Biso   1.000  H
  H72      1.0000 0.66270  0.51920  0.96560  Biso   1.000  H
  C41      1.0000 0.85770  0.01520  0.31160  Biso   1.000  C
  C42      1.0000 0.64230  0.51520  0.18840  Biso   1.000  C
  C43      1.0000 0.14230  0.98480  0.68840  Biso   1.000  C
  C44      1.0000 0.35770  0.48480  0.81160  Biso   1.000  C
  C45      1.0000 0.92930  0.07700  0.34860  Biso   1.000  C
  C46      1.0000 0.57070  0.57700  0.15140  Biso   1.000  C
  C47      1.0000 0.07070  0.92300  0.65140  Biso   1.000  C
  C48      1.0000 0.42930  0.42300  0.84860  Biso   1.000  C
  H73      1.0000 0.90090  0.12650  0.33490  Biso   1.000  H
  H74      1.0000 0.59910  0.62650  0.16510  Biso   1.000  H
  H75      1.0000 0.09910  0.87350  0.66510  Biso   1.000  H
  H76      1.0000 0.40090  0.37350  0.83490  Biso   1.000  H
  C49      1.0000 0.04550  0.06450  0.40700  Biso   1.000  C
  C50      1.0000 0.45450  0.56450  0.09300  Biso   1.000  C
  C51      1.0000 0.95450  0.93550  0.59300  Biso   1.000  C
  C52      1.0000 0.54550  0.43550  0.90700  Biso   1.000  C
  C53      1.0000 0.89870  0.94110  0.32670  Biso   1.000  C
  C54      1.0000 0.60130  0.44110  0.17330  Biso   1.000  C
  C55      1.0000 0.10130  0.05890  0.67330  Biso   1.000  C
  C56      1.0000 0.39870  0.55890  0.82670  Biso   1.000  C
  H77      1.0000 0.85000  0.90030  0.29830  Biso   1.000  H
  H78      1.0000 0.65000  0.40030  0.20170  Biso   1.000  H
  H79      1.0000 0.15000  0.09970  0.70170  Biso   1.000  H
  H80      1.0000 0.35000  0.59970  0.79830  Biso   1.000  H
  C57      1.0000 0.12070  0.13210  0.44800  Biso   1.000  C
  C58      1.0000 0.37930  0.63210  0.05200  Biso   1.000  C
  C59      1.0000 0.87930  0.86790  0.55200  Biso   1.000  C
  C60      1.0000 0.62070  0.36790  0.94800  Biso   1.000  C
  O73      1.0000 0.16040  0.83750  0.45980  Biso   1.000  O
  O74      1.0000 0.33960  0.33750  0.04020  Biso   1.000  O
  O75      1.0000 0.83960  0.16250  0.54020  Biso   1.000  O
  O76      1.0000 0.66040  0.66250  0.95980  Biso   1.000  O
  O77      1.0000 0.98710  0.79370  0.36560  Biso   1.000  O
  O78      1.0000 0.51290  0.29370  0.13440  Biso   1.000  O
  O79      1.0000 0.01290  0.20630  0.63440  Biso   1.000  O
  O80      1.0000 0.48710  0.70630  0.86560  Biso   1.000  O
  C61      1.0000 0.05700  0.84680  0.40470  Biso   1.000  C
  C62      1.0000 0.44300  0.34680  0.09530  Biso   1.000  C
  C63      1.0000 0.94300  0.15320  0.59530  Biso   1.000  C
  C64      1.0000 0.55700  0.65320  0.90470  Biso   1.000  C
  O81      1.0000 0.10990  0.71030  0.61710  Biso   1.000  O
  O82      1.0000 0.39010  0.21030  0.88290  Biso   1.000  O
  O83      1.0000 0.89010  0.28970  0.38290  Biso   1.000  O
  O84      1.0000 0.60990  0.78970  0.11710  Biso   1.000  O
  H81      1.0000 0.13980  0.74180  0.58680  Biso   1.000  H
  H82      1.0000 0.36020  0.24180  0.91320  Biso   1.000  H
  H83      1.0000 0.86020  0.25820  0.41320  Biso   1.000  H
  H84      1.0000 0.63980  0.75820  0.08680  Biso   1.000  H
  H85      1.0000 0.14120  0.71570  0.68100  Biso   1.000  H
  H86      1.0000 0.35880  0.21570  0.81900  Biso   1.000  H
  H87      1.0000 0.85880  0.28430  0.31900  Biso   1.000  H
  H88      1.0000 0.64120  0.78430  0.18100  Biso   1.000  H
  O85      1.0000 0.64710  0.19370  0.79540  Biso   1.000  O
  O86      1.0000 0.85290  0.69370  0.70460  Biso   1.000  O
  O87      1.0000 0.35290  0.80630  0.20460  Biso   1.000  O
  O88      1.0000 0.14710  0.30630  0.29540  Biso   1.000  O
  H89      1.0000 0.69440  0.16750  0.84260  Biso   1.000  H
  H90      1.0000 0.80560  0.66750  0.65740  Biso   1.000  H
  H91      1.0000 0.30560  0.83250  0.15740  Biso   1.000  H
  H92      1.0000 0.19440  0.33250  0.34260  Biso   1.000  H
  H93      1.0000 0.62560  0.23250  0.82090  Biso   1.000  H
  H94      1.0000 0.87440  0.73250  0.67910  Biso   1.000  H
  H95      1.0000 0.37440  0.76750  0.17910  Biso   1.000  H
  H96      1.0000 0.12560  0.26750  0.32090  Biso   1.000  H
  O89      1.0000 0.41670  0.02680  0.57050  Biso   1.000  O
  O90      1.0000 0.08330  0.52680  0.92950  Biso   1.000  O
  O91      1.0000 0.58330  0.97320  0.42950  Biso   1.000  O
  O92      1.0000 0.91670  0.47320  0.07050  Biso   1.000  O
  H97      1.0000 0.47270  0.99590  0.59440  Biso   1.000  H
  H98      1.0000 0.02730  0.49590  0.90560  Biso   1.000  H
  H99      1.0000 0.52730  0.00410  0.40560  Biso   1.000  H
  H100     1.0000 0.97270  0.50410  0.09440  Biso   1.000  H
  H101     1.0000 0.35320  0.00260  0.55610  Biso   1.000  H
  H102     1.0000 0.14680  0.50260  0.94390  Biso   1.000  H
  H103     1.0000 0.64680  0.99740  0.44390  Biso   1.000  H
  H104     1.0000 0.85320  0.49740  0.05610  Biso   1.000  H
  O93      1.0000 0.09510  0.46660  0.45640  Biso   1.000  O
  O94      1.0000 0.40490  0.96660  0.04360  Biso   1.000  O
  O95      1.0000 0.90490  0.53340  0.54360  Biso   1.000  O
  O96      1.0000 0.59510  0.03340  0.95640  Biso   1.000  O
  H105     1.0000 0.02310  0.45700  0.43630  Biso   1.000  H
  H106     1.0000 0.47690  0.95700  0.06370  Biso   1.000  H
  H107     1.0000 0.97690  0.54300  0.56370  Biso   1.000  H
  H108     1.0000 0.52310  0.04300  0.93630  Biso   1.000  H
  H109     1.0000 0.10600  0.51390  0.47020  Biso   1.000  H
  H110     1.0000 0.39400  0.01390  0.02980  Biso   1.000  H
  H111     1.0000 0.89400  0.48610  0.52980  Biso   1.000  H
  H112     1.0000 0.60600  0.98610  0.97020  Biso   1.000  H
  O97      1.0000 0.44500  0.91950  0.49120  Biso   1.000  O
  O98      1.0000 0.05500  0.41950  0.00880  Biso   1.000  O
  O99      1.0000 0.55500  0.08050  0.50880  Biso   1.000  O
  O100     1.0000 0.94500  0.58050  0.99120  Biso   1.000  O
  H113     1.0000 0.47670  0.91280  0.44640  Biso   1.000  H
  H114     1.0000 0.02330  0.41280  0.05360  Biso   1.000  H
  H115     1.0000 0.52330  0.08720  0.55360  Biso   1.000  H
  H116     1.0000 0.97670  0.58720  0.94640  Biso   1.000  H
  H117     1.0000 0.37480  0.93240  0.46250  Biso   1.000  H
  H118     1.0000 0.12520  0.43240  0.03750  Biso   1.000  H
  H119     1.0000 0.62520  0.06760  0.53750  Biso   1.000  H
  H120     1.0000 0.87480  0.56760  0.96250  Biso   1.000  H
  O101     1.0000 0.91460  0.41385  0.46350  Biso   1.000  O
  O102     1.0000 0.58540  0.91385  0.03650  Biso   1.000  O
  O103     1.0000 0.08540  0.58615  0.53650  Biso   1.000  O
  O104     1.0000 0.41460  0.08615  0.96350  Biso   1.000  O
  H121     1.0000 0.96100  0.40470  0.52300  Biso   1.000  H
  H122     1.0000 0.53900  0.90470  0.97700  Biso   1.000  H
  H123     1.0000 0.03900  0.59530  0.47700  Biso   1.000  H
  H124     1.0000 0.46100  0.09530  0.02300  Biso   1.000  H
  H125     1.0000 0.84830  0.39600  0.45740  Biso   1.000  H
  H126     1.0000 0.65170  0.89600  0.04260  Biso   1.000  H
  H127     1.0000 0.15170  0.60400  0.54260  Biso   1.000  H
  H128     1.0000 0.34830  0.10400  0.95740  Biso   1.000  H
