data_image0
_cell_length_a       17.073
_cell_length_b       20.108
_cell_length_c       17.497
_cell_angle_alpha    90
_cell_angle_beta     104.351
_cell_angle_gamma    90

_symmetry_space_group_name_H-M    "P 1"
_symmetry_int_tables_number       1

loop_
  _symmetry_equiv_pos_as_xyz
  'x, y, z'

loop_
  _atom_site_label
  _atom_site_occupancy
  _atom_site_fract_x
  _atom_site_fract_y
  _atom_site_fract_z
  _atom_site_thermal_displace_type
  _atom_site_B_iso_or_equiv
  _atom_site_type_symbol
  Dy1      1.0000 0.31884  0.13810  0.26217  Biso   1.000  Dy
  Dy2      1.0000 0.18116  0.63810  0.23783  Biso   1.000  Dy
  Dy3      1.0000 0.68116  0.86190  0.73783  Biso   1.000  Dy
  Dy4      1.0000 0.81884  0.36190  0.76217  Biso   1.000  Dy
  F1       1.0000 0.36895  0.36394  0.21935  Biso   1.000  F
  F2       1.0000 0.13105  0.86394  0.28065  Biso   1.000  F
  F3       1.0000 0.63105  0.63606  0.78065  Biso   1.000  F
  F4       1.0000 0.86895  0.13606  0.71935  Biso   1.000  F
  F5       1.0000 0.05735  0.99055  0.32038  Biso   1.000  F
  F6       1.0000 0.44265  0.49055  0.17962  Biso   1.000  F
  F7       1.0000 0.94265  0.00945  0.67962  Biso   1.000  F
  F8       1.0000 0.55735  0.50945  0.82038  Biso   1.000  F
  F9       1.0000 0.16109  0.00398  0.41710  Biso   1.000  F
  F10      1.0000 0.33891  0.50398  0.08290  Biso   1.000  F
  F11      1.0000 0.83891  0.99602  0.58290  Biso   1.000  F
  F12      1.0000 0.66109  0.49602  0.91710  Biso   1.000  F
  F13      1.0000 0.32289  0.34998  0.09503  Biso   1.000  F
  F14      1.0000 0.17711  0.84998  0.40497  Biso   1.000  F
  F15      1.0000 0.67711  0.65002  0.90497  Biso   1.000  F
  F16      1.0000 0.82289  0.15002  0.59503  Biso   1.000  F
  O1       1.0000 0.18235  0.16464  0.19562  Biso   1.000  O
  O2       1.0000 0.31765  0.66464  0.30438  Biso   1.000  O
  O3       1.0000 0.81765  0.83536  0.80438  Biso   1.000  O
  O4       1.0000 0.68235  0.33536  0.69562  Biso   1.000  O
  O5       1.0000 0.23696  0.07346  0.32282  Biso   1.000  O
  O6       1.0000 0.26304  0.57346  0.17718  Biso   1.000  O
  O7       1.0000 0.76304  0.92654  0.67718  Biso   1.000  O
  O8       1.0000 0.73696  0.42654  0.82282  Biso   1.000  O
  F17      1.0000 0.25120  0.40155  0.16151  Biso   1.000  F
  F18      1.0000 0.24880  0.90155  0.33849  Biso   1.000  F
  F19      1.0000 0.74880  0.59845  0.83849  Biso   1.000  F
  F20      1.0000 0.75120  0.09845  0.66151  Biso   1.000  F
  O9       1.0000 0.31797  0.23824  0.19497  Biso   1.000  O
  O10      1.0000 0.18203  0.73824  0.30503  Biso   1.000  O
  O11      1.0000 0.68203  0.76176  0.80503  Biso   1.000  O
  O12      1.0000 0.81797  0.26176  0.69497  Biso   1.000  O
  F21      1.0000 0.24330  0.32450  0.47587  Biso   1.000  F
  F22      1.0000 0.25670  0.82450  0.02413  Biso   1.000  F
  F23      1.0000 0.75670  0.67550  0.52413  Biso   1.000  F
  F24      1.0000 0.74330  0.17550  0.97587  Biso   1.000  F
  O13      1.0000 0.26351  0.05347  0.17255  Biso   1.000  O
  O14      1.0000 0.23649  0.55347  0.32745  Biso   1.000  O
  O15      1.0000 0.73649  0.94653  0.82745  Biso   1.000  O
  O16      1.0000 0.76351  0.44653  0.67255  Biso   1.000  O
  O17      1.0000 0.42733  0.20032  0.34183  Biso   1.000  O
  O18      1.0000 0.07267  0.70032  0.15817  Biso   1.000  O
  O19      1.0000 0.57267  0.79968  0.65817  Biso   1.000  O
  O20      1.0000 0.92733  0.29968  0.84183  Biso   1.000  O
  O21      1.0000 0.26525  0.20958  0.34315  Biso   1.000  O
  O22      1.0000 0.23475  0.70958  0.15685  Biso   1.000  O
  O23      1.0000 0.73475  0.79042  0.65685  Biso   1.000  O
  O24      1.0000 0.76525  0.29042  0.84315  Biso   1.000  O
  F25      1.0000 0.20580  0.35696  0.35620  Biso   1.000  F
  F26      1.0000 0.29420  0.85696  0.14380  Biso   1.000  F
  F27      1.0000 0.79420  0.64304  0.64380  Biso   1.000  F
  F28      1.0000 0.70580  0.14304  0.85620  Biso   1.000  F
  O25      1.0000 0.40345  0.05660  0.33299  Biso   1.000  O
  O26      1.0000 0.09655  0.55660  0.16701  Biso   1.000  O
  O27      1.0000 0.59655  0.94340  0.66701  Biso   1.000  O
  O28      1.0000 0.90345  0.44340  0.83299  Biso   1.000  O
  F29      1.0000 0.09244  0.08864  0.36625  Biso   1.000  F
  F30      1.0000 0.40756  0.58864  0.13375  Biso   1.000  F
  F31      1.0000 0.90756  0.91136  0.63375  Biso   1.000  F
  F32      1.0000 0.59244  0.41136  0.86625  Biso   1.000  F
  C1       1.0000 0.19670  0.02483  0.16220  Biso   1.000  C
  C2       1.0000 0.30330  0.52483  0.33780  Biso   1.000  C
  C3       1.0000 0.80330  0.97517  0.83780  Biso   1.000  C
  C4       1.0000 0.69670  0.47517  0.66220  Biso   1.000  C
  F33      1.0000 0.15390  0.26980  0.39350  Biso   1.000  F
  F34      1.0000 0.34610  0.76980  0.10650  Biso   1.000  F
  F35      1.0000 0.84610  0.73020  0.60650  Biso   1.000  F
  F36      1.0000 0.65390  0.23020  0.89350  Biso   1.000  F
  F37      1.0000 0.13250  0.05177  0.03129  Biso   1.000  F
  F38      1.0000 0.36750  0.55177  0.46871  Biso   1.000  F
  F39      1.0000 0.86750  0.94823  0.96871  Biso   1.000  F
  F40      1.0000 0.63250  0.44823  0.53129  Biso   1.000  F
  C5       1.0000 0.12100  0.03011  0.34960  Biso   1.000  C
  C6       1.0000 0.37900  0.53011  0.15040  Biso   1.000  C
  C7       1.0000 0.87900  0.96989  0.65040  Biso   1.000  C
  C8       1.0000 0.62100  0.46989  0.84960  Biso   1.000  C
  F41      1.0000 0.53540  0.97370  0.42520  Biso   1.000  F
  F42      1.0000 0.96460  0.47370  0.07480  Biso   1.000  F
  F43      1.0000 0.46460  0.02630  0.57480  Biso   1.000  F
  F44      1.0000 0.03540  0.52630  0.92520  Biso   1.000  F
  C9       1.0000 0.26620  0.28374  0.17780  Biso   1.000  C
  C10      1.0000 0.23380  0.78374  0.32220  Biso   1.000  C
  C11      1.0000 0.73380  0.71626  0.82220  Biso   1.000  C
  C12      1.0000 0.76620  0.21626  0.67780  Biso   1.000  C
  C13      1.0000 0.46330  0.00750  0.23890  Biso   1.000  C
  C14      1.0000 0.03670  0.50750  0.26110  Biso   1.000  C
  C15      1.0000 0.53670  0.99250  0.76110  Biso   1.000  C
  C16      1.0000 0.96330  0.49250  0.73890  Biso   1.000  C
  H1       1.0000 0.48820  0.96910  0.22720  Biso   1.000  H
  H2       1.0000 0.01180  0.46910  0.27280  Biso   1.000  H
  H3       1.0000 0.51180  0.03090  0.77280  Biso   1.000  H
  H4       1.0000 0.98820  0.53090  0.72720  Biso   1.000  H
  F45      1.0000 0.41780  0.93830  0.40700  Biso   1.000  F
  F46      1.0000 0.08220  0.43830  0.09300  Biso   1.000  F
  F47      1.0000 0.58220  0.06170  0.59300  Biso   1.000  F
  F48      1.0000 0.91780  0.56170  0.90700  Biso   1.000  F
  C17      1.0000 0.30170  0.35090  0.16390  Biso   1.000  C
  C18      1.0000 0.19830  0.85090  0.33610  Biso   1.000  C
  C19      1.0000 0.69830  0.64910  0.83610  Biso   1.000  C
  C20      1.0000 0.80170  0.14910  0.66390  Biso   1.000  C
  C21      1.0000 0.14770  0.21790  0.17650  Biso   1.000  C
  C22      1.0000 0.35230  0.71790  0.32350  Biso   1.000  C
  C23      1.0000 0.85230  0.78210  0.82350  Biso   1.000  C
  C24      1.0000 0.64770  0.28210  0.67650  Biso   1.000  C
  C25      1.0000 0.17560  0.04027  0.29280  Biso   1.000  C
  C26      1.0000 0.32440  0.54027  0.20720  Biso   1.000  C
  C27      1.0000 0.82440  0.95973  0.70720  Biso   1.000  C
  C28      1.0000 0.67560  0.45973  0.79280  Biso   1.000  C
  C29      1.0000 0.18340  0.27930  0.16770  Biso   1.000  C
  C30      1.0000 0.31660  0.77930  0.33230  Biso   1.000  C
  C31      1.0000 0.81660  0.72070  0.83230  Biso   1.000  C
  C32      1.0000 0.68340  0.22070  0.66770  Biso   1.000  C
  H5       1.0000 0.15130  0.31710  0.15510  Biso   1.000  H
  H6       1.0000 0.34870  0.81710  0.34490  Biso   1.000  H
  H7       1.0000 0.84870  0.68290  0.84490  Biso   1.000  H
  H8       1.0000 0.65130  0.18290  0.65510  Biso   1.000  H
  C33      1.0000 0.28880  0.26165  0.37960  Biso   1.000  C
  C34      1.0000 0.21120  0.76165  0.12040  Biso   1.000  C
  C35      1.0000 0.71120  0.73835  0.62040  Biso   1.000  C
  C36      1.0000 0.78880  0.23835  0.87960  Biso   1.000  C
  C37      1.0000 0.22250  0.30330  0.40210  Biso   1.000  C
  C38      1.0000 0.27750  0.80330  0.09790  Biso   1.000  C
  C39      1.0000 0.77750  0.69670  0.59790  Biso   1.000  C
  C40      1.0000 0.72250  0.19670  0.90210  Biso   1.000  C
  C41      1.0000 0.43070  0.25260  0.38100  Biso   1.000  C
  C42      1.0000 0.06930  0.75260  0.11900  Biso   1.000  C
  C43      1.0000 0.56930  0.74740  0.61900  Biso   1.000  C
  C44      1.0000 0.93070  0.24740  0.88100  Biso   1.000  C
  C45      1.0000 0.44360  0.01180  0.31010  Biso   1.000  C
  C46      1.0000 0.05640  0.51180  0.18990  Biso   1.000  C
  C47      1.0000 0.55640  0.98820  0.68990  Biso   1.000  C
  C48      1.0000 0.94360  0.48820  0.81010  Biso   1.000  C
  C49      1.0000 0.36730  0.28620  0.40090  Biso   1.000  C
  C50      1.0000 0.13270  0.78620  0.09910  Biso   1.000  C
  C51      1.0000 0.63270  0.71380  0.59910  Biso   1.000  C
  C52      1.0000 0.86730  0.21380  0.90090  Biso   1.000  C
  H9       1.0000 0.37770  0.32590  0.42890  Biso   1.000  H
  H10      1.0000 0.12230  0.82590  0.07110  Biso   1.000  H
  H11      1.0000 0.62230  0.67410  0.57110  Biso   1.000  H
  H12      1.0000 0.87770  0.17410  0.92890  Biso   1.000  H
  C53      1.0000 0.47280  0.95700  0.37230  Biso   1.000  C
  C54      1.0000 0.02720  0.45700  0.12770  Biso   1.000  C
  C55      1.0000 0.52720  0.04300  0.62770  Biso   1.000  C
  C56      1.0000 0.97280  0.54300  0.87230  Biso   1.000  C
  F49      1.0000 0.10390  0.95678  0.07026  Biso   1.000  F
  F50      1.0000 0.39610  0.45678  0.42974  Biso   1.000  F
  F51      1.0000 0.89610  0.04322  0.92974  Biso   1.000  F
  F52      1.0000 0.60390  0.54322  0.57026  Biso   1.000  F
  F53      1.0000 0.21830  0.97378  0.04735  Biso   1.000  F
  F54      1.0000 0.28170  0.47378  0.45265  Biso   1.000  F
  F55      1.0000 0.78170  0.02622  0.95265  Biso   1.000  F
  F56      1.0000 0.71830  0.52622  0.54735  Biso   1.000  F
  C57      1.0000 0.15030  0.01506  0.21640  Biso   1.000  C
  C58      1.0000 0.34970  0.51506  0.28360  Biso   1.000  C
  C59      1.0000 0.84970  0.98494  0.78360  Biso   1.000  C
  C60      1.0000 0.65030  0.48494  0.71640  Biso   1.000  C
  H13      1.0000 0.10200  0.99150  0.20150  Biso   1.000  H
  H14      1.0000 0.39800  0.49150  0.29850  Biso   1.000  H
  H15      1.0000 0.89800  0.00850  0.79850  Biso   1.000  H
  H16      1.0000 0.60200  0.50850  0.70150  Biso   1.000  H
  C61      1.0000 0.16240  0.00120  0.07730  Biso   1.000  C
  C62      1.0000 0.33760  0.50120  0.42270  Biso   1.000  C
  C63      1.0000 0.83760  0.99880  0.92270  Biso   1.000  C
  C64      1.0000 0.66240  0.49880  0.57730  Biso   1.000  C
  O29      1.0000 0.41175  0.11228  0.18867  Biso   1.000  O
  O30      1.0000 0.08825  0.61228  0.31133  Biso   1.000  O
  O31      1.0000 0.58825  0.88772  0.81133  Biso   1.000  O
  O32      1.0000 0.91175  0.38772  0.68867  Biso   1.000  O
  F57      1.0000 0.01687  0.26151  0.11580  Biso   1.000  F
  F58      1.0000 0.48313  0.76151  0.38420  Biso   1.000  F
  F59      1.0000 0.98313  0.73849  0.88420  Biso   1.000  F
  F60      1.0000 0.51687  0.23849  0.61580  Biso   1.000  F
  F61      1.0000 0.56360  0.24080  0.45920  Biso   1.000  F
  F62      1.0000 0.93640  0.74080  0.04080  Biso   1.000  F
  F63      1.0000 0.43640  0.75920  0.54080  Biso   1.000  F
  F64      1.0000 0.06360  0.25920  0.95920  Biso   1.000  F
  F65      1.0000 0.51900  0.33730  0.44890  Biso   1.000  F
  F66      1.0000 0.98100  0.83730  0.05110  Biso   1.000  F
  F67      1.0000 0.48100  0.66270  0.55110  Biso   1.000  F
  F68      1.0000 0.01900  0.16270  0.94890  Biso   1.000  F
  F69      1.0000 0.55210  0.28900  0.35310  Biso   1.000  F
  F70      1.0000 0.94790  0.78900  0.14690  Biso   1.000  F
  F71      1.0000 0.44790  0.71100  0.64690  Biso   1.000  F
  F72      1.0000 0.05210  0.21100  0.85310  Biso   1.000  F
  C65      1.0000 0.44750  0.05810  0.18400  Biso   1.000  C
  C66      1.0000 0.05250  0.55810  0.31600  Biso   1.000  C
  C67      1.0000 0.55250  0.94190  0.81600  Biso   1.000  C
  C68      1.0000 0.94750  0.44190  0.68400  Biso   1.000  C
  F73      1.0000 0.50820  0.10240  0.08610  Biso   1.000  F
  F74      1.0000 0.99180  0.60240  0.41390  Biso   1.000  F
  F75      1.0000 0.49180  0.89760  0.91390  Biso   1.000  F
  F76      1.0000 0.00820  0.39760  0.58610  Biso   1.000  F
  F77      1.0000 0.02630  0.16030  0.12040  Biso   1.000  F
  F78      1.0000 0.47370  0.66030  0.37960  Biso   1.000  F
  F79      1.0000 0.97370  0.83970  0.87960  Biso   1.000  F
  F80      1.0000 0.52630  0.33970  0.62040  Biso   1.000  F
  C69      1.0000 0.05540  0.21530  0.16150  Biso   1.000  C
  C70      1.0000 0.44460  0.71530  0.33850  Biso   1.000  C
  C71      1.0000 0.94460  0.78470  0.83850  Biso   1.000  C
  C72      1.0000 0.55540  0.28470  0.66150  Biso   1.000  C
  F81      1.0000 0.52310  0.99890  0.10800  Biso   1.000  F
  F82      1.0000 0.97690  0.49890  0.39200  Biso   1.000  F
  F83      1.0000 0.47690  0.00110  0.89200  Biso   1.000  F
  F84      1.0000 0.02310  0.50110  0.60800  Biso   1.000  F
  C73      1.0000 0.51640  0.28170  0.40980  Biso   1.000  C
  C74      1.0000 0.98360  0.78170  0.09020  Biso   1.000  C
  C75      1.0000 0.48360  0.71830  0.59020  Biso   1.000  C
  C76      1.0000 0.01640  0.21830  0.90980  Biso   1.000  C
  F85      1.0000 0.48800  0.89970  0.33890  Biso   1.000  F
  F86      1.0000 0.01200  0.39970  0.16110  Biso   1.000  F
  F87      1.0000 0.51200  0.10030  0.66110  Biso   1.000  F
  F88      1.0000 0.98800  0.60030  0.83890  Biso   1.000  F
  F89      1.0000 0.03350  0.21030  0.22310  Biso   1.000  F
  F90      1.0000 0.46650  0.71030  0.27690  Biso   1.000  F
  F91      1.0000 0.96650  0.78970  0.77690  Biso   1.000  F
  F92      1.0000 0.53350  0.28970  0.72310  Biso   1.000  F
  C77      1.0000 0.47520  0.04910  0.10830  Biso   1.000  C
  C78      1.0000 0.02480  0.54910  0.39170  Biso   1.000  C
  C79      1.0000 0.52480  0.95090  0.89170  Biso   1.000  C
  C80      1.0000 0.97520  0.45090  0.60830  Biso   1.000  C
  F93      1.0000 0.41220  0.03900  0.04800  Biso   1.000  F
  F94      1.0000 0.08780  0.53900  0.45200  Biso   1.000  F
  F95      1.0000 0.58780  0.96100  0.95200  Biso   1.000  F
  F96      1.0000 0.91220  0.46100  0.54800  Biso   1.000  F
  Cu1      1.0000 0.74204  0.20493  0.22626  Biso   1.000  Cu
  Cu2      1.0000 0.75796  0.70493  0.27374  Biso   1.000  Cu
  Cu3      1.0000 0.25796  0.79507  0.77374  Biso   1.000  Cu
  Cu4      1.0000 0.24204  0.29507  0.72626  Biso   1.000  Cu
  O33      1.0000 0.71736  0.14295  0.30151  Biso   1.000  O
  O34      1.0000 0.78264  0.64295  0.19849  Biso   1.000  O
  O35      1.0000 0.28264  0.85705  0.69849  Biso   1.000  O
  O36      1.0000 0.21736  0.35705  0.80151  Biso   1.000  O
  O37      1.0000 0.84425  0.15908  0.22867  Biso   1.000  O
  O38      1.0000 0.65575  0.65908  0.27133  Biso   1.000  O
  O39      1.0000 0.15575  0.84092  0.77133  Biso   1.000  O
  O40      1.0000 0.34425  0.34092  0.72867  Biso   1.000  O
  O41      1.0000 0.89799  0.96538  0.37467  Biso   1.000  O
  O42      1.0000 0.60201  0.46538  0.12533  Biso   1.000  O
  O43      1.0000 0.10201  0.03462  0.62533  Biso   1.000  O
  O44      1.0000 0.39799  0.53462  0.87467  Biso   1.000  O
  N1       1.0000 0.87232  0.00589  0.31864  Biso   1.000  N
  N2       1.0000 0.62768  0.50589  0.18136  Biso   1.000  N
  N3       1.0000 0.12768  0.99411  0.68136  Biso   1.000  N
  N4       1.0000 0.37232  0.49411  0.81864  Biso   1.000  N
  N5       1.0000 0.25635  0.23616  0.63835  Biso   1.000  N
  N6       1.0000 0.24365  0.73616  0.86165  Biso   1.000  N
  N7       1.0000 0.74365  0.76384  0.36165  Biso   1.000  N
  N8       1.0000 0.75635  0.26384  0.13835  Biso   1.000  N
  N9       1.0000 0.12934  0.26536  0.68763  Biso   1.000  N
  N10      1.0000 0.37066  0.76536  0.81237  Biso   1.000  N
  N11      1.0000 0.87066  0.73464  0.31237  Biso   1.000  N
  N12      1.0000 0.62934  0.23464  0.18763  Biso   1.000  N
  N13      1.0000 0.03719  0.21545  0.59575  Biso   1.000  N
  N14      1.0000 0.46281  0.71545  0.90425  Biso   1.000  N
  N15      1.0000 0.96281  0.78455  0.40425  Biso   1.000  N
  N16      1.0000 0.53719  0.28455  0.09575  Biso   1.000  N
  C81      1.0000 0.26250  0.14265  0.52380  Biso   1.000  C
  C82      1.0000 0.23750  0.64265  0.97620  Biso   1.000  C
  C83      1.0000 0.73750  0.85735  0.47620  Biso   1.000  C
  C84      1.0000 0.76250  0.35735  0.02380  Biso   1.000  C
  H17      1.0000 0.26500  0.11120  0.48560  Biso   1.000  H
  H18      1.0000 0.23500  0.61120  0.01440  Biso   1.000  H
  H19      1.0000 0.73500  0.88880  0.51440  Biso   1.000  H
  H20      1.0000 0.76500  0.38880  0.98560  Biso   1.000  H
  C85      1.0000 0.11750  0.22756  0.62390  Biso   1.000  C
  C86      1.0000 0.38250  0.72756  0.87610  Biso   1.000  C
  C87      1.0000 0.88250  0.77244  0.37610  Biso   1.000  C
  C88      1.0000 0.61750  0.27244  0.12390  Biso   1.000  C
  O45      1.0000 0.78860  0.27606  0.32120  Biso   1.000  O
  O46      1.0000 0.71140  0.77606  0.17880  Biso   1.000  O
  O47      1.0000 0.21140  0.72394  0.67880  Biso   1.000  O
  O48      1.0000 0.28860  0.22394  0.82120  Biso   1.000  O
  C89      1.0000 0.88078  0.07263  0.32130  Biso   1.000  C
  C90      1.0000 0.61922  0.57263  0.17870  Biso   1.000  C
  C91      1.0000 0.11922  0.92737  0.67870  Biso   1.000  C
  C92      1.0000 0.38078  0.42737  0.82130  Biso   1.000  C
  N17      1.0000 0.84949  0.09647  0.24850  Biso   1.000  N
  N18      1.0000 0.65051  0.59647  0.25150  Biso   1.000  N
  N19      1.0000 0.15051  0.90353  0.75150  Biso   1.000  N
  N20      1.0000 0.34949  0.40353  0.74850  Biso   1.000  N
  C93      1.0000 0.18930  0.15784  0.54050  Biso   1.000  C
  C94      1.0000 0.31070  0.65784  0.95950  Biso   1.000  C
  C95      1.0000 0.81070  0.84216  0.45950  Biso   1.000  C
  C96      1.0000 0.68930  0.34216  0.04050  Biso   1.000  C
  H21      1.0000 0.14210  0.13650  0.51380  Biso   1.000  H
  H22      1.0000 0.35790  0.63650  0.98620  Biso   1.000  H
  H23      1.0000 0.85790  0.86350  0.48620  Biso   1.000  H
  H24      1.0000 0.64210  0.36350  0.01380  Biso   1.000  H
  C97      1.0000 0.92410  0.08443  0.46650  Biso   1.000  C
  C98      1.0000 0.57590  0.58443  0.03350  Biso   1.000  C
  C99      1.0000 0.07590  0.91557  0.53350  Biso   1.000  C
  C100     1.0000 0.42410  0.41557  0.96650  Biso   1.000  C
  H25      1.0000 0.90120  0.04320  0.47120  Biso   1.000  H
  H26      1.0000 0.59880  0.54320  0.02880  Biso   1.000  H
  H27      1.0000 0.09880  0.95680  0.52880  Biso   1.000  H
  H28      1.0000 0.40120  0.45680  0.97120  Biso   1.000  H
  F97      1.0000 0.72180  0.04600  0.41526  Biso   1.000  F
  F98      1.0000 0.77820  0.54600  0.08474  Biso   1.000  F
  F99      1.0000 0.27820  0.95400  0.58474  Biso   1.000  F
  F100     1.0000 0.22180  0.45400  0.91526  Biso   1.000  F
  C101     1.0000 0.91894  0.11146  0.39137  Biso   1.000  C
  C102     1.0000 0.58106  0.61146  0.10863  Biso   1.000  C
  C103     1.0000 0.08106  0.88854  0.60863  Biso   1.000  C
  C104     1.0000 0.41894  0.38854  0.89137  Biso   1.000  C
  C105     1.0000 0.18730  0.20521  0.59740  Biso   1.000  C
  C106     1.0000 0.31270  0.70521  0.90260  Biso   1.000  C
  C107     1.0000 0.81270  0.79479  0.40260  Biso   1.000  C
  C108     1.0000 0.68730  0.29479  0.09740  Biso   1.000  C
  F101     1.0000 0.84990  0.30165  0.51557  Biso   1.000  F
  F102     1.0000 0.65010  0.80165  0.98443  Biso   1.000  F
  F103     1.0000 0.15010  0.69835  0.48443  Biso   1.000  F
  F104     1.0000 0.34990  0.19835  0.01557  Biso   1.000  F
  C109     1.0000 0.96290  0.11872  0.53290  Biso   1.000  C
  C110     1.0000 0.53710  0.61872  0.96710  Biso   1.000  C
  C111     1.0000 0.03710  0.88128  0.46710  Biso   1.000  C
  C112     1.0000 0.46290  0.38128  0.03290  Biso   1.000  C
  H29      1.0000 0.96600  0.10090  0.58260  Biso   1.000  H
  H30      1.0000 0.53400  0.60090  0.91740  Biso   1.000  H
  H31      1.0000 0.03400  0.89910  0.41740  Biso   1.000  H
  H32      1.0000 0.46600  0.39910  0.08260  Biso   1.000  H
  C113     1.0000 0.33210  0.17499  0.56490  Biso   1.000  C
  C114     1.0000 0.16790  0.67499  0.93510  Biso   1.000  C
  C115     1.0000 0.66790  0.82501  0.43510  Biso   1.000  C
  C116     1.0000 0.83210  0.32501  0.06490  Biso   1.000  C
  H33      1.0000 0.38170  0.16590  0.55430  Biso   1.000  H
  H34      1.0000 0.11830  0.66590  0.94570  Biso   1.000  H
  H35      1.0000 0.61830  0.83410  0.44570  Biso   1.000  H
  H36      1.0000 0.88170  0.33410  0.05430  Biso   1.000  H
  C117     1.0000 0.99800  0.24689  0.64570  Biso   1.000  C
  C118     1.0000 0.50200  0.74689  0.85430  Biso   1.000  C
  C119     1.0000 0.00200  0.75311  0.35430  Biso   1.000  C
  C120     1.0000 0.49800  0.25311  0.14570  Biso   1.000  C
  H37      1.0000 0.94260  0.24690  0.64140  Biso   1.000  H
  H38      1.0000 0.55740  0.74690  0.85860  Biso   1.000  H
  H39      1.0000 0.05740  0.75310  0.35860  Biso   1.000  H
  H40      1.0000 0.44260  0.25310  0.14140  Biso   1.000  H
  C121     1.0000 0.05460  0.27750  0.70150  Biso   1.000  C
  C122     1.0000 0.44540  0.77750  0.79850  Biso   1.000  C
  C123     1.0000 0.94540  0.72250  0.29850  Biso   1.000  C
  C124     1.0000 0.55460  0.22250  0.20150  Biso   1.000  C
  H41      1.0000 0.04510  0.30270  0.74290  Biso   1.000  H
  H42      1.0000 0.45490  0.80270  0.75710  Biso   1.000  H
  H43      1.0000 0.95490  0.69730  0.25710  Biso   1.000  H
  H44      1.0000 0.54510  0.19730  0.24290  Biso   1.000  H
  F105     1.0000 0.66950  0.11417  0.48077  Biso   1.000  F
  F106     1.0000 0.83050  0.61417  0.01923  Biso   1.000  F
  F107     1.0000 0.33050  0.88583  0.51923  Biso   1.000  F
  F108     1.0000 0.16950  0.38583  0.98077  Biso   1.000  F
  C125     1.0000 0.82410  0.98101  0.23940  Biso   1.000  C
  C126     1.0000 0.67590  0.48101  0.26060  Biso   1.000  C
  C127     1.0000 0.17590  0.01899  0.76060  Biso   1.000  C
  C128     1.0000 0.32410  0.51899  0.73940  Biso   1.000  C
  C129     1.0000 0.74680  0.06030  0.12910  Biso   1.000  C
  C130     1.0000 0.75320  0.56030  0.37090  Biso   1.000  C
  C131     1.0000 0.25320  0.93970  0.87090  Biso   1.000  C
  C132     1.0000 0.24680  0.43970  0.62910  Biso   1.000  C
  H45      1.0000 0.72980  0.02370  0.09360  Biso   1.000  H
  H46      1.0000 0.77020  0.52370  0.40640  Biso   1.000  H
  H47      1.0000 0.27020  0.97630  0.90640  Biso   1.000  H
  H48      1.0000 0.22980  0.47630  0.59360  Biso   1.000  H
  H49      1.0000 0.75340  0.09920  0.09960  Biso   1.000  H
  H50      1.0000 0.74660  0.59920  0.40040  Biso   1.000  H
  H51      1.0000 0.24660  0.90080  0.90040  Biso   1.000  H
  H52      1.0000 0.25340  0.40080  0.59960  Biso   1.000  H
  H53      1.0000 0.70670  0.06870  0.15790  Biso   1.000  H
  H54      1.0000 0.79330  0.56870  0.34210  Biso   1.000  H
  H55      1.0000 0.29330  0.93130  0.84210  Biso   1.000  H
  H56      1.0000 0.20670  0.43130  0.65790  Biso   1.000  H
  C133     1.0000 0.82700  0.04326  0.18680  Biso   1.000  C
  C134     1.0000 0.67300  0.54326  0.31320  Biso   1.000  C
  C135     1.0000 0.17300  0.95674  0.81320  Biso   1.000  C
  C136     1.0000 0.32700  0.45674  0.68680  Biso   1.000  C
  C137     1.0000 0.74260  0.21230  0.41580  Biso   1.000  C
  C138     1.0000 0.75740  0.71230  0.08420  Biso   1.000  C
  C139     1.0000 0.25740  0.78770  0.58420  Biso   1.000  C
  C140     1.0000 0.24260  0.28770  0.91580  Biso   1.000  C
  H57      1.0000 0.73720  0.21370  0.46740  Biso   1.000  H
  H58      1.0000 0.76280  0.71370  0.03260  Biso   1.000  H
  H59      1.0000 0.26280  0.78630  0.53260  Biso   1.000  H
  H60      1.0000 0.23720  0.28630  0.96740  Biso   1.000  H
  C141     1.0000 0.32610  0.22092  0.62190  Biso   1.000  C
  C142     1.0000 0.17390  0.72092  0.87810  Biso   1.000  C
  C143     1.0000 0.67390  0.77908  0.37810  Biso   1.000  C
  C144     1.0000 0.82610  0.27908  0.12190  Biso   1.000  C
  H61      1.0000 0.37290  0.24210  0.64990  Biso   1.000  H
  H62      1.0000 0.12710  0.74210  0.85010  Biso   1.000  H
  H63      1.0000 0.62710  0.75790  0.35010  Biso   1.000  H
  H64      1.0000 0.87290  0.25790  0.14990  Biso   1.000  H
  F109     1.0000 0.60520  0.08690  0.36540  Biso   1.000  F
  F110     1.0000 0.89480  0.58690  0.13460  Biso   1.000  F
  F111     1.0000 0.39480  0.91310  0.63460  Biso   1.000  F
  F112     1.0000 0.10520  0.41310  0.86540  Biso   1.000  F
  C145     1.0000 0.77820  0.26740  0.38750  Biso   1.000  C
  C146     1.0000 0.72180  0.76740  0.11250  Biso   1.000  C
  C147     1.0000 0.22180  0.73260  0.61250  Biso   1.000  C
  C148     1.0000 0.27820  0.23260  0.88750  Biso   1.000  C
  C149     1.0000 0.71570  0.15730  0.37230  Biso   1.000  C
  C150     1.0000 0.78430  0.65730  0.12770  Biso   1.000  C
  C151     1.0000 0.28430  0.84270  0.62770  Biso   1.000  C
  C152     1.0000 0.21570  0.34270  0.87230  Biso   1.000  C
  C153     1.0000 0.95316  0.17377  0.38520  Biso   1.000  C
  C154     1.0000 0.54684  0.67377  0.11480  Biso   1.000  C
  C155     1.0000 0.04684  0.82623  0.61480  Biso   1.000  C
  C156     1.0000 0.45316  0.32623  0.88520  Biso   1.000  C
  H65      1.0000 0.94950  0.19220  0.33560  Biso   1.000  H
  H66      1.0000 0.55050  0.69220  0.16440  Biso   1.000  H
  H67      1.0000 0.05050  0.80780  0.66440  Biso   1.000  H
  H68      1.0000 0.44950  0.30780  0.83560  Biso   1.000  H
  F113     1.0000 0.85190  0.36550  0.42260  Biso   1.000  F
  F114     1.0000 0.64810  0.86550  0.07740  Biso   1.000  F
  F115     1.0000 0.14810  0.63450  0.57740  Biso   1.000  F
  F116     1.0000 0.35190  0.13450  0.92260  Biso   1.000  F
  C157     1.0000 0.80840  0.32230  0.44830  Biso   1.000  C
  C158     1.0000 0.69160  0.82230  0.05170  Biso   1.000  C
  C159     1.0000 0.19160  0.67770  0.55170  Biso   1.000  C
  C160     1.0000 0.30840  0.17770  0.94830  Biso   1.000  C
  F117     1.0000 0.75280  0.35930  0.45900  Biso   1.000  F
  F118     1.0000 0.74720  0.85930  0.04100  Biso   1.000  F
  F119     1.0000 0.24720  0.64070  0.54100  Biso   1.000  F
  F120     1.0000 0.25280  0.14070  0.95900  Biso   1.000  F
  C161     1.0000 0.73960  0.96450  0.25050  Biso   1.000  C
  C162     1.0000 0.76040  0.46450  0.24950  Biso   1.000  C
  C163     1.0000 0.26040  0.03550  0.74950  Biso   1.000  C
  C164     1.0000 0.23960  0.53550  0.75050  Biso   1.000  C
  H69      1.0000 0.71620  0.00370  0.26690  Biso   1.000  H
  H70      1.0000 0.78380  0.50370  0.23310  Biso   1.000  H
  H71      1.0000 0.28380  0.99630  0.73310  Biso   1.000  H
  H72      1.0000 0.21620  0.49630  0.76690  Biso   1.000  H
  H73      1.0000 0.74410  0.93060  0.28990  Biso   1.000  H
  H74      1.0000 0.75590  0.43060  0.21010  Biso   1.000  H
  H75      1.0000 0.25590  0.06940  0.71010  Biso   1.000  H
  H76      1.0000 0.24410  0.56940  0.78990  Biso   1.000  H
  H77      1.0000 0.70580  0.94890  0.20140  Biso   1.000  H
  H78      1.0000 0.79420  0.44890  0.29860  Biso   1.000  H
  H79      1.0000 0.29420  0.05110  0.79860  Biso   1.000  H
  H80      1.0000 0.20580  0.55110  0.70140  Biso   1.000  H
  C165     1.0000 0.86500  0.91940  0.21790  Biso   1.000  C
  C166     1.0000 0.63500  0.41940  0.28210  Biso   1.000  C
  C167     1.0000 0.13500  0.08060  0.78210  Biso   1.000  C
  C168     1.0000 0.36500  0.58060  0.71790  Biso   1.000  C
  H81      1.0000 0.86090  0.88390  0.25340  Biso   1.000  H
  H82      1.0000 0.63910  0.38390  0.24660  Biso   1.000  H
  H83      1.0000 0.13910  0.11610  0.74660  Biso   1.000  H
  H84      1.0000 0.36090  0.61610  0.75340  Biso   1.000  H
  H85      1.0000 0.92100  0.92880  0.22180  Biso   1.000  H
  H86      1.0000 0.57900  0.42880  0.27820  Biso   1.000  H
  H87      1.0000 0.07900  0.07120  0.77820  Biso   1.000  H
  H88      1.0000 0.42100  0.57120  0.72180  Biso   1.000  H
  H89      1.0000 0.83920  0.90630  0.16490  Biso   1.000  H
  H90      1.0000 0.66080  0.40630  0.33510  Biso   1.000  H
  H91      1.0000 0.16080  0.09370  0.83510  Biso   1.000  H
  H92      1.0000 0.33920  0.59370  0.66490  Biso   1.000  H
  C169     1.0000 0.67720  0.10090  0.40950  Biso   1.000  C
  C170     1.0000 0.82280  0.60090  0.09050  Biso   1.000  C
  C171     1.0000 0.32280  0.89910  0.59050  Biso   1.000  C
  C172     1.0000 0.17720  0.39910  0.90950  Biso   1.000  C
  C173     1.0000 0.99748  0.18003  0.52550  Biso   1.000  C
  C174     1.0000 0.50252  0.68003  0.97450  Biso   1.000  C
  C175     1.0000 0.00252  0.81997  0.47450  Biso   1.000  C
  C176     1.0000 0.49748  0.31997  0.02550  Biso   1.000  C
  C177     1.0000 0.99250  0.20819  0.45220  Biso   1.000  C
  C178     1.0000 0.50750  0.70819  0.04780  Biso   1.000  C
  C179     1.0000 0.00750  0.79181  0.54780  Biso   1.000  C
  C180     1.0000 0.49250  0.29181  0.95220  Biso   1.000  C
  H93      1.0000 0.01520  0.24970  0.44810  Biso   1.000  H
  H94      1.0000 0.48480  0.74970  0.05190  Biso   1.000  H
  H95      1.0000 0.98480  0.75030  0.55190  Biso   1.000  H
  H96      1.0000 0.51520  0.25030  0.94810  Biso   1.000  H
  C181     1.0000 0.89540  0.04190  0.14470  Biso   1.000  C
  C182     1.0000 0.60460  0.54190  0.35530  Biso   1.000  C
  C183     1.0000 0.10460  0.95810  0.85530  Biso   1.000  C
  C184     1.0000 0.39540  0.45810  0.64470  Biso   1.000  C
  H97      1.0000 0.88690  0.00580  0.10770  Biso   1.000  H
  H98      1.0000 0.61310  0.50580  0.39230  Biso   1.000  H
  H99      1.0000 0.11310  0.99420  0.89230  Biso   1.000  H
  H100     1.0000 0.38690  0.49420  0.60770  Biso   1.000  H
  H101     1.0000 0.94610  0.03600  0.18280  Biso   1.000  H
  H102     1.0000 0.55390  0.53600  0.31720  Biso   1.000  H
  H103     1.0000 0.05390  0.96400  0.81720  Biso   1.000  H
  H104     1.0000 0.44610  0.46400  0.68280  Biso   1.000  H
  H105     1.0000 0.89610  0.08310  0.11720  Biso   1.000  H
  H106     1.0000 0.60390  0.58310  0.38280  Biso   1.000  H
  H107     1.0000 0.10390  0.91690  0.88280  Biso   1.000  H
  H108     1.0000 0.39610  0.41690  0.61720  Biso   1.000  H
