data_image0
_cell_length_a       17.0661
_cell_length_b       20.1979
_cell_length_c       17.4936
_cell_angle_alpha    90
_cell_angle_beta     104.535
_cell_angle_gamma    90

_symmetry_space_group_name_H-M    "P 1"
_symmetry_int_tables_number       1

loop_
  _symmetry_equiv_pos_as_xyz
  'x, y, z'

loop_
  _atom_site_label
  _atom_site_occupancy
  _atom_site_fract_x
  _atom_site_fract_y
  _atom_site_fract_z
  _atom_site_thermal_displace_type
  _atom_site_B_iso_or_equiv
  _atom_site_type_symbol
  Gd1      1.0000 0.81981  0.13824  0.26283  Biso   1.000  Gd
  Gd2      1.0000 0.68019  0.63824  0.23717  Biso   1.000  Gd
  Gd3      1.0000 0.18019  0.86176  0.73717  Biso   1.000  Gd
  Gd4      1.0000 0.31981  0.36176  0.76283  Biso   1.000  Gd
  F1       1.0000 0.66118  0.00413  0.41754  Biso   1.000  F
  F2       1.0000 0.83882  0.50413  0.08246  Biso   1.000  F
  F3       1.0000 0.33882  0.99587  0.58246  Biso   1.000  F
  F4       1.0000 0.16118  0.49587  0.91754  Biso   1.000  F
  F5       1.0000 0.55719  0.99090  0.32078  Biso   1.000  F
  F6       1.0000 0.94281  0.49090  0.17922  Biso   1.000  F
  F7       1.0000 0.44281  0.00910  0.67922  Biso   1.000  F
  F8       1.0000 0.05719  0.50910  0.82078  Biso   1.000  F
  F9       1.0000 0.86766  0.36455  0.22050  Biso   1.000  F
  F10      1.0000 0.63234  0.86455  0.27950  Biso   1.000  F
  F11      1.0000 0.13234  0.63545  0.77950  Biso   1.000  F
  F12      1.0000 0.36766  0.13545  0.72050  Biso   1.000  F
  F13      1.0000 0.82240  0.35123  0.09604  Biso   1.000  F
  F14      1.0000 0.67760  0.85123  0.40396  Biso   1.000  F
  F15      1.0000 0.17760  0.64877  0.90396  Biso   1.000  F
  F16      1.0000 0.32240  0.14877  0.59604  Biso   1.000  F
  O1       1.0000 0.68185  0.16529  0.19517  Biso   1.000  O
  O2       1.0000 0.81815  0.66529  0.30483  Biso   1.000  O
  O3       1.0000 0.31815  0.83471  0.80483  Biso   1.000  O
  O4       1.0000 0.18185  0.33471  0.69517  Biso   1.000  O
  O5       1.0000 0.81761  0.23932  0.19489  Biso   1.000  O
  O6       1.0000 0.68239  0.73932  0.30511  Biso   1.000  O
  O7       1.0000 0.18239  0.76068  0.80511  Biso   1.000  O
  O8       1.0000 0.31761  0.26068  0.69489  Biso   1.000  O
  O9       1.0000 0.73730  0.07310  0.32326  Biso   1.000  O
  O10      1.0000 0.76270  0.57310  0.17674  Biso   1.000  O
  O11      1.0000 0.26270  0.92690  0.67674  Biso   1.000  O
  O12      1.0000 0.23730  0.42690  0.82326  Biso   1.000  O
  F17      1.0000 0.74985  0.40174  0.16180  Biso   1.000  F
  F18      1.0000 0.75015  0.90174  0.33820  Biso   1.000  F
  F19      1.0000 0.25015  0.59826  0.83820  Biso   1.000  F
  F20      1.0000 0.24985  0.09826  0.66180  Biso   1.000  F
  F21      1.0000 0.74430  0.32570  0.47685  Biso   1.000  F
  F22      1.0000 0.75570  0.82570  0.02315  Biso   1.000  F
  F23      1.0000 0.25570  0.67430  0.52315  Biso   1.000  F
  F24      1.0000 0.24430  0.17430  0.97685  Biso   1.000  F
  O13      1.0000 0.76577  0.21023  0.34466  Biso   1.000  O
  O14      1.0000 0.73423  0.71023  0.15534  Biso   1.000  O
  O15      1.0000 0.23423  0.78977  0.65534  Biso   1.000  O
  O16      1.0000 0.26577  0.28977  0.84466  Biso   1.000  O
  O17      1.0000 0.92872  0.20184  0.34408  Biso   1.000  O
  O18      1.0000 0.57128  0.70184  0.15592  Biso   1.000  O
  O19      1.0000 0.07128  0.79816  0.65592  Biso   1.000  O
  O20      1.0000 0.42872  0.29816  0.84408  Biso   1.000  O
  O21      1.0000 0.76261  0.05284  0.17231  Biso   1.000  O
  O22      1.0000 0.73739  0.55284  0.32769  Biso   1.000  O
  O23      1.0000 0.23739  0.94716  0.82769  Biso   1.000  O
  O24      1.0000 0.26261  0.44716  0.67231  Biso   1.000  O
  C1       1.0000 0.69590  0.02495  0.16180  Biso   1.000  C
  C2       1.0000 0.80410  0.52495  0.33820  Biso   1.000  C
  C3       1.0000 0.30410  0.97505  0.83820  Biso   1.000  C
  C4       1.0000 0.19590  0.47505  0.66180  Biso   1.000  C
  F25      1.0000 0.70610  0.35709  0.35682  Biso   1.000  F
  F26      1.0000 0.79390  0.85709  0.14318  Biso   1.000  F
  F27      1.0000 0.29390  0.64291  0.64318  Biso   1.000  F
  F28      1.0000 0.20610  0.14291  0.85682  Biso   1.000  F
  O25      1.0000 0.90619  0.05556  0.33396  Biso   1.000  O
  O26      1.0000 0.59381  0.55556  0.16604  Biso   1.000  O
  O27      1.0000 0.09381  0.94444  0.66604  Biso   1.000  O
  O28      1.0000 0.40619  0.44444  0.83396  Biso   1.000  O
  F29      1.0000 0.65450  0.27009  0.39480  Biso   1.000  F
  F30      1.0000 0.84550  0.77009  0.10520  Biso   1.000  F
  F31      1.0000 0.34550  0.72991  0.60520  Biso   1.000  F
  F32      1.0000 0.15450  0.22991  0.89480  Biso   1.000  F
  F33      1.0000 0.51601  0.26122  0.11480  Biso   1.000  F
  F34      1.0000 0.98399  0.76122  0.38520  Biso   1.000  F
  F35      1.0000 0.48399  0.73878  0.88520  Biso   1.000  F
  F36      1.0000 0.01601  0.23878  0.61480  Biso   1.000  F
  F37      1.0000 0.59243  0.08826  0.36669  Biso   1.000  F
  F38      1.0000 0.90757  0.58826  0.13331  Biso   1.000  F
  F39      1.0000 0.40757  0.91174  0.63331  Biso   1.000  F
  F40      1.0000 0.09243  0.41174  0.86669  Biso   1.000  F
  F41      1.0000 0.63210  0.05156  0.03092  Biso   1.000  F
  F42      1.0000 0.86790  0.55156  0.46908  Biso   1.000  F
  F43      1.0000 0.36790  0.94844  0.96908  Biso   1.000  F
  F44      1.0000 0.13210  0.44844  0.53092  Biso   1.000  F
  C5       1.0000 0.80070  0.35190  0.16460  Biso   1.000  C
  C6       1.0000 0.69930  0.85190  0.33540  Biso   1.000  C
  C7       1.0000 0.19930  0.64810  0.83540  Biso   1.000  C
  C8       1.0000 0.30070  0.14810  0.66460  Biso   1.000  C
  C9       1.0000 0.62090  0.03030  0.34950  Biso   1.000  C
  C10      1.0000 0.87910  0.53030  0.15050  Biso   1.000  C
  C11      1.0000 0.37910  0.96970  0.65050  Biso   1.000  C
  C12      1.0000 0.12090  0.46970  0.84950  Biso   1.000  C
  C13      1.0000 0.76540  0.28442  0.17790  Biso   1.000  C
  C14      1.0000 0.73460  0.78442  0.32210  Biso   1.000  C
  C15      1.0000 0.23460  0.71558  0.82210  Biso   1.000  C
  C16      1.0000 0.26540  0.21558  0.67790  Biso   1.000  C
  C17      1.0000 0.64730  0.21860  0.17670  Biso   1.000  C
  C18      1.0000 0.85270  0.71860  0.32330  Biso   1.000  C
  C19      1.0000 0.35270  0.78140  0.82330  Biso   1.000  C
  C20      1.0000 0.14730  0.28140  0.67670  Biso   1.000  C
  F45      1.0000 0.03810  0.97260  0.42530  Biso   1.000  F
  F46      1.0000 0.46190  0.47260  0.07470  Biso   1.000  F
  F47      1.0000 0.96190  0.02740  0.57470  Biso   1.000  F
  F48      1.0000 0.53810  0.52740  0.92530  Biso   1.000  F
  F49      1.0000 0.60170  0.95784  0.06995  Biso   1.000  F
  F50      1.0000 0.89830  0.45784  0.43005  Biso   1.000  F
  F51      1.0000 0.39830  0.04216  0.93005  Biso   1.000  F
  F52      1.0000 0.10170  0.54216  0.56995  Biso   1.000  F
  C21      1.0000 0.68290  0.27990  0.16880  Biso   1.000  C
  C22      1.0000 0.81710  0.77990  0.33120  Biso   1.000  C
  C23      1.0000 0.31710  0.72010  0.83120  Biso   1.000  C
  C24      1.0000 0.18290  0.22010  0.66880  Biso   1.000  C
  H1       1.0000 0.65080  0.31760  0.15740  Biso   1.000  H
  H2       1.0000 0.84920  0.81760  0.34260  Biso   1.000  H
  H3       1.0000 0.34920  0.68240  0.84260  Biso   1.000  H
  H4       1.0000 0.15080  0.18240  0.65740  Biso   1.000  H
  C25      1.0000 0.78960  0.26220  0.38120  Biso   1.000  C
  C26      1.0000 0.71040  0.76220  0.11880  Biso   1.000  C
  C27      1.0000 0.21040  0.73780  0.61880  Biso   1.000  C
  C28      1.0000 0.28960  0.23780  0.88120  Biso   1.000  C
  C29      1.0000 0.93140  0.25430  0.38260  Biso   1.000  C
  C30      1.0000 0.56860  0.75430  0.11740  Biso   1.000  C
  C31      1.0000 0.06860  0.74570  0.61740  Biso   1.000  C
  C32      1.0000 0.43140  0.24570  0.88260  Biso   1.000  C
  C33      1.0000 0.97520  0.95600  0.37190  Biso   1.000  C
  C34      1.0000 0.52480  0.45600  0.12810  Biso   1.000  C
  C35      1.0000 0.02480  0.04400  0.62810  Biso   1.000  C
  C36      1.0000 0.47520  0.54400  0.87190  Biso   1.000  C
  C37      1.0000 0.67550  0.04042  0.29290  Biso   1.000  C
  C38      1.0000 0.82450  0.54042  0.20710  Biso   1.000  C
  C39      1.0000 0.32450  0.95958  0.70710  Biso   1.000  C
  C40      1.0000 0.17550  0.45958  0.79290  Biso   1.000  C
  C41      1.0000 0.72260  0.30390  0.40320  Biso   1.000  C
  C42      1.0000 0.77740  0.80390  0.09680  Biso   1.000  C
  C43      1.0000 0.27740  0.69610  0.59680  Biso   1.000  C
  C44      1.0000 0.22260  0.19610  0.90320  Biso   1.000  C
  C45      1.0000 0.96490  0.00720  0.23900  Biso   1.000  C
  C46      1.0000 0.53510  0.50720  0.26100  Biso   1.000  C
  C47      1.0000 0.03510  0.99280  0.76100  Biso   1.000  C
  C48      1.0000 0.46490  0.49280  0.73900  Biso   1.000  C
  H5       1.0000 0.99000  0.96900  0.22720  Biso   1.000  H
  H6       1.0000 0.51000  0.46900  0.27280  Biso   1.000  H
  H7       1.0000 0.01000  0.03100  0.77280  Biso   1.000  H
  H8       1.0000 0.49000  0.53100  0.72720  Biso   1.000  H
  F53      1.0000 0.92080  0.93770  0.40760  Biso   1.000  F
  F54      1.0000 0.57920  0.43770  0.09240  Biso   1.000  F
  F55      1.0000 0.07920  0.06230  0.59240  Biso   1.000  F
  F56      1.0000 0.42080  0.56230  0.90760  Biso   1.000  F
  C49      1.0000 0.94550  0.01100  0.31060  Biso   1.000  C
  C50      1.0000 0.55450  0.51100  0.18940  Biso   1.000  C
  C51      1.0000 0.05450  0.98900  0.68940  Biso   1.000  C
  C52      1.0000 0.44550  0.48900  0.81060  Biso   1.000  C
  C53      1.0000 0.86760  0.28690  0.40250  Biso   1.000  C
  C54      1.0000 0.63240  0.78690  0.09750  Biso   1.000  C
  C55      1.0000 0.13240  0.71310  0.59750  Biso   1.000  C
  C56      1.0000 0.36760  0.21310  0.90250  Biso   1.000  C
  H9       1.0000 0.87760  0.32630  0.43080  Biso   1.000  H
  H10      1.0000 0.62240  0.82630  0.06920  Biso   1.000  H
  H11      1.0000 0.12240  0.67370  0.56920  Biso   1.000  H
  H12      1.0000 0.37760  0.17370  0.93080  Biso   1.000  H
  F57      1.0000 0.53370  0.21520  0.22440  Biso   1.000  F
  F58      1.0000 0.96630  0.71520  0.27560  Biso   1.000  F
  F59      1.0000 0.46630  0.78480  0.77560  Biso   1.000  F
  F60      1.0000 0.03370  0.28480  0.72440  Biso   1.000  F
  C57      1.0000 0.64980  0.01548  0.21650  Biso   1.000  C
  C58      1.0000 0.85020  0.51548  0.28350  Biso   1.000  C
  C59      1.0000 0.35020  0.98452  0.78350  Biso   1.000  C
  C60      1.0000 0.14980  0.48452  0.71650  Biso   1.000  C
  H13      1.0000 0.60140  0.99220  0.20170  Biso   1.000  H
  H14      1.0000 0.89860  0.49220  0.29830  Biso   1.000  H
  H15      1.0000 0.39860  0.00780  0.79830  Biso   1.000  H
  H16      1.0000 0.10140  0.50780  0.70170  Biso   1.000  H
  F61      1.0000 0.71580  0.97300  0.04722  Biso   1.000  F
  F62      1.0000 0.78420  0.47300  0.45278  Biso   1.000  F
  F63      1.0000 0.28420  0.02700  0.95278  Biso   1.000  F
  F64      1.0000 0.21580  0.52700  0.54722  Biso   1.000  F
  C61      1.0000 0.55500  0.21600  0.16180  Biso   1.000  C
  C62      1.0000 0.94500  0.71600  0.33820  Biso   1.000  C
  C63      1.0000 0.44500  0.78400  0.83820  Biso   1.000  C
  C64      1.0000 0.05500  0.28400  0.66180  Biso   1.000  C
  C65      1.0000 0.66070  0.00130  0.07720  Biso   1.000  C
  C66      1.0000 0.83930  0.50130  0.42280  Biso   1.000  C
  C67      1.0000 0.33930  0.99870  0.92280  Biso   1.000  C
  C68      1.0000 0.16070  0.49870  0.57720  Biso   1.000  C
  O29      1.0000 0.91359  0.11150  0.18861  Biso   1.000  O
  O30      1.0000 0.58641  0.61150  0.31139  Biso   1.000  O
  O31      1.0000 0.08641  0.88850  0.81139  Biso   1.000  O
  O32      1.0000 0.41359  0.38850  0.68861  Biso   1.000  O
  C69      1.0000 0.94890  0.05770  0.18380  Biso   1.000  C
  C70      1.0000 0.55110  0.55770  0.31620  Biso   1.000  C
  C71      1.0000 0.05110  0.94230  0.81620  Biso   1.000  C
  C72      1.0000 0.44890  0.44230  0.68380  Biso   1.000  C
  F65      1.0000 0.98960  0.89950  0.33850  Biso   1.000  F
  F66      1.0000 0.51040  0.39950  0.16150  Biso   1.000  F
  F67      1.0000 0.01040  0.10050  0.66150  Biso   1.000  F
  F68      1.0000 0.48960  0.60050  0.83850  Biso   1.000  F
  C73      1.0000 0.97620  0.04920  0.10760  Biso   1.000  C
  C74      1.0000 0.52380  0.54920  0.39240  Biso   1.000  C
  C75      1.0000 0.02380  0.95080  0.89240  Biso   1.000  C
  C76      1.0000 0.47620  0.45080  0.60760  Biso   1.000  C
  F69      1.0000 0.05140  0.29190  0.35330  Biso   1.000  F
  F70      1.0000 0.44860  0.79190  0.14670  Biso   1.000  F
  F71      1.0000 0.94860  0.70810  0.64670  Biso   1.000  F
  F72      1.0000 0.55140  0.20810  0.85330  Biso   1.000  F
  F73      1.0000 0.06490  0.24350  0.45990  Biso   1.000  F
  F74      1.0000 0.43510  0.74350  0.04010  Biso   1.000  F
  F75      1.0000 0.93510  0.75650  0.54010  Biso   1.000  F
  F76      1.0000 0.56490  0.25650  0.95990  Biso   1.000  F
  F77      1.0000 0.01900  0.33900  0.44970  Biso   1.000  F
  F78      1.0000 0.48100  0.83900  0.05030  Biso   1.000  F
  F79      1.0000 0.98100  0.66100  0.55030  Biso   1.000  F
  F80      1.0000 0.51900  0.16100  0.94970  Biso   1.000  F
  F81      1.0000 0.91310  0.04000  0.04740  Biso   1.000  F
  F82      1.0000 0.58690  0.54000  0.45260  Biso   1.000  F
  F83      1.0000 0.08690  0.96000  0.95260  Biso   1.000  F
  F84      1.0000 0.41310  0.46000  0.54740  Biso   1.000  F
  F85      1.0000 0.52520  0.16120  0.12380  Biso   1.000  F
  F86      1.0000 0.97480  0.66120  0.37620  Biso   1.000  F
  F87      1.0000 0.47480  0.83880  0.87620  Biso   1.000  F
  F88      1.0000 0.02520  0.33880  0.62380  Biso   1.000  F
  F89      1.0000 0.02350  0.99840  0.10780  Biso   1.000  F
  F90      1.0000 0.47650  0.49840  0.39220  Biso   1.000  F
  F91      1.0000 0.97650  0.00160  0.89220  Biso   1.000  F
  F92      1.0000 0.52350  0.50160  0.60780  Biso   1.000  F
  F93      1.0000 0.01130  0.10150  0.08810  Biso   1.000  F
  F94      1.0000 0.48870  0.60150  0.41190  Biso   1.000  F
  F95      1.0000 0.98870  0.89850  0.91190  Biso   1.000  F
  F96      1.0000 0.51130  0.39850  0.58810  Biso   1.000  F
  C77      1.0000 0.01680  0.28370  0.41050  Biso   1.000  C
  C78      1.0000 0.48320  0.78370  0.08950  Biso   1.000  C
  C79      1.0000 0.98320  0.71630  0.58950  Biso   1.000  C
  C80      1.0000 0.51680  0.21630  0.91050  Biso   1.000  C
  Cu1      1.0000 0.24181  0.20459  0.22657  Biso   1.000  Cu
  Cu2      1.0000 0.25819  0.70459  0.27343  Biso   1.000  Cu
  Cu3      1.0000 0.75819  0.79541  0.77343  Biso   1.000  Cu
  Cu4      1.0000 0.74181  0.29541  0.72657  Biso   1.000  Cu
  O33      1.0000 0.21744  0.14331  0.30205  Biso   1.000  O
  O34      1.0000 0.28256  0.64331  0.19795  Biso   1.000  O
  O35      1.0000 0.78256  0.85669  0.69795  Biso   1.000  O
  O36      1.0000 0.71744  0.35669  0.80205  Biso   1.000  O
  O37      1.0000 0.34376  0.15858  0.22886  Biso   1.000  O
  O38      1.0000 0.15624  0.65858  0.27114  Biso   1.000  O
  O39      1.0000 0.65624  0.84142  0.77114  Biso   1.000  O
  O40      1.0000 0.84376  0.34142  0.72886  Biso   1.000  O
  O41      1.0000 0.39761  0.96584  0.37534  Biso   1.000  O
  O42      1.0000 0.10239  0.46584  0.12466  Biso   1.000  O
  O43      1.0000 0.60239  0.03416  0.62466  Biso   1.000  O
  O44      1.0000 0.89761  0.53416  0.87534  Biso   1.000  O
  N1       1.0000 0.75583  0.23713  0.63853  Biso   1.000  N
  N2       1.0000 0.74417  0.73713  0.86147  Biso   1.000  N
  N3       1.0000 0.24417  0.76287  0.36147  Biso   1.000  N
  N4       1.0000 0.25583  0.26287  0.13853  Biso   1.000  N
  N5       1.0000 0.37244  0.00589  0.31918  Biso   1.000  N
  N6       1.0000 0.12756  0.50589  0.18082  Biso   1.000  N
  N7       1.0000 0.62756  0.99411  0.68082  Biso   1.000  N
  N8       1.0000 0.87244  0.49411  0.81918  Biso   1.000  N
  N9       1.0000 0.62906  0.26534  0.68850  Biso   1.000  N
  N10      1.0000 0.87094  0.76534  0.81150  Biso   1.000  N
  N11      1.0000 0.37094  0.73466  0.31150  Biso   1.000  N
  N12      1.0000 0.12906  0.23466  0.18850  Biso   1.000  N
  N13      1.0000 0.53687  0.21500  0.59632  Biso   1.000  N
  N14      1.0000 0.96313  0.71500  0.90368  Biso   1.000  N
  N15      1.0000 0.46313  0.78500  0.40368  Biso   1.000  N
  N16      1.0000 0.03687  0.28500  0.09632  Biso   1.000  N
  O45      1.0000 0.28913  0.27567  0.32160  Biso   1.000  O
  O46      1.0000 0.21087  0.77567  0.17840  Biso   1.000  O
  O47      1.0000 0.71087  0.72433  0.67840  Biso   1.000  O
  O48      1.0000 0.78913  0.22433  0.82160  Biso   1.000  O
  C81      1.0000 0.49250  0.20744  0.45270  Biso   1.000  C
  C82      1.0000 0.00750  0.70744  0.04730  Biso   1.000  C
  C83      1.0000 0.50750  0.79256  0.54730  Biso   1.000  C
  C84      1.0000 0.99250  0.29256  0.95270  Biso   1.000  C
  H17      1.0000 0.51540  0.24870  0.44860  Biso   1.000  H
  H18      1.0000 0.98460  0.74870  0.05140  Biso   1.000  H
  H19      1.0000 0.48460  0.75130  0.55140  Biso   1.000  H
  H20      1.0000 0.01540  0.25130  0.94860  Biso   1.000  H
  C85      1.0000 0.76250  0.14330  0.52420  Biso   1.000  C
  C86      1.0000 0.73750  0.64330  0.97580  Biso   1.000  C
  C87      1.0000 0.23750  0.85670  0.47580  Biso   1.000  C
  C88      1.0000 0.26250  0.35670  0.02420  Biso   1.000  C
  H21      1.0000 0.76500  0.11200  0.48590  Biso   1.000  H
  H22      1.0000 0.73500  0.61200  0.01410  Biso   1.000  H
  H23      1.0000 0.23500  0.88800  0.51410  Biso   1.000  H
  H24      1.0000 0.26500  0.38800  0.98590  Biso   1.000  H
  N17      1.0000 0.34887  0.09614  0.24889  Biso   1.000  N
  N18      1.0000 0.15113  0.59614  0.25111  Biso   1.000  N
  N19      1.0000 0.65113  0.90386  0.75111  Biso   1.000  N
  N20      1.0000 0.84887  0.40386  0.74889  Biso   1.000  N
  C89      1.0000 0.38030  0.07261  0.32180  Biso   1.000  C
  C90      1.0000 0.11970  0.57261  0.17820  Biso   1.000  C
  C91      1.0000 0.61970  0.92739  0.67820  Biso   1.000  C
  C92      1.0000 0.88030  0.42739  0.82180  Biso   1.000  C
  C93      1.0000 0.61710  0.22767  0.62440  Biso   1.000  C
  C94      1.0000 0.88290  0.72767  0.87560  Biso   1.000  C
  C95      1.0000 0.38290  0.77233  0.37560  Biso   1.000  C
  C96      1.0000 0.11710  0.27233  0.12440  Biso   1.000  C
  F97      1.0000 0.22120  0.04691  0.41612  Biso   1.000  F
  F98      1.0000 0.27880  0.54691  0.08388  Biso   1.000  F
  F99      1.0000 0.77880  0.95309  0.58388  Biso   1.000  F
  F100     1.0000 0.72120  0.45309  0.91612  Biso   1.000  F
  F101     1.0000 0.35110  0.30181  0.51529  Biso   1.000  F
  F102     1.0000 0.14890  0.80181  0.98471  Biso   1.000  F
  F103     1.0000 0.64890  0.69819  0.48471  Biso   1.000  F
  F104     1.0000 0.85110  0.19819  0.01529  Biso   1.000  F
  C97      1.0000 0.42330  0.08452  0.46680  Biso   1.000  C
  C98      1.0000 0.07670  0.58452  0.03320  Biso   1.000  C
  C99      1.0000 0.57670  0.91548  0.53320  Biso   1.000  C
  C100     1.0000 0.92330  0.41548  0.96680  Biso   1.000  C
  H25      1.0000 0.40000  0.04360  0.47150  Biso   1.000  H
  H26      1.0000 0.10000  0.54360  0.02850  Biso   1.000  H
  H27      1.0000 0.60000  0.95640  0.52850  Biso   1.000  H
  H28      1.0000 0.90000  0.45640  0.97150  Biso   1.000  H
  C101     1.0000 0.68870  0.15831  0.54100  Biso   1.000  C
  C102     1.0000 0.81130  0.65831  0.95900  Biso   1.000  C
  C103     1.0000 0.31130  0.84169  0.45900  Biso   1.000  C
  C104     1.0000 0.18870  0.34169  0.04100  Biso   1.000  C
  H29      1.0000 0.64150  0.13690  0.51450  Biso   1.000  H
  H30      1.0000 0.85850  0.63690  0.98550  Biso   1.000  H
  H31      1.0000 0.35850  0.86310  0.48550  Biso   1.000  H
  H32      1.0000 0.14150  0.36310  0.01450  Biso   1.000  H
  C105     1.0000 0.68720  0.20558  0.59800  Biso   1.000  C
  C106     1.0000 0.81280  0.70558  0.90200  Biso   1.000  C
  C107     1.0000 0.31280  0.79442  0.40200  Biso   1.000  C
  C108     1.0000 0.18720  0.29442  0.09800  Biso   1.000  C
  C109     1.0000 0.49770  0.24610  0.64660  Biso   1.000  C
  C110     1.0000 0.00230  0.74610  0.85340  Biso   1.000  C
  C111     1.0000 0.50230  0.75390  0.35340  Biso   1.000  C
  C112     1.0000 0.99770  0.25390  0.14660  Biso   1.000  C
  H33      1.0000 0.44230  0.24580  0.64270  Biso   1.000  H
  H34      1.0000 0.05770  0.74580  0.85730  Biso   1.000  H
  H35      1.0000 0.55770  0.75420  0.35730  Biso   1.000  H
  H36      1.0000 0.94230  0.25420  0.14270  Biso   1.000  H
  C113     1.0000 0.24210  0.21260  0.41620  Biso   1.000  C
  C114     1.0000 0.25790  0.71260  0.08380  Biso   1.000  C
  C115     1.0000 0.75790  0.78740  0.58380  Biso   1.000  C
  C116     1.0000 0.74210  0.28740  0.91620  Biso   1.000  C
  H37      1.0000 0.23610  0.21430  0.46760  Biso   1.000  H
  H38      1.0000 0.26390  0.71430  0.03240  Biso   1.000  H
  H39      1.0000 0.76390  0.78570  0.53240  Biso   1.000  H
  H40      1.0000 0.73610  0.28570  0.96760  Biso   1.000  H
  C117     1.0000 0.46240  0.11898  0.53390  Biso   1.000  C
  C118     1.0000 0.03760  0.61898  0.96610  Biso   1.000  C
  C119     1.0000 0.53760  0.88102  0.46610  Biso   1.000  C
  C120     1.0000 0.96240  0.38102  0.03390  Biso   1.000  C
  H41      1.0000 0.46530  0.10150  0.58370  Biso   1.000  H
  H42      1.0000 0.03470  0.60150  0.91630  Biso   1.000  H
  H43      1.0000 0.53470  0.89850  0.41630  Biso   1.000  H
  H44      1.0000 0.96530  0.39850  0.08370  Biso   1.000  H
  C121     1.0000 0.83190  0.17570  0.56540  Biso   1.000  C
  C122     1.0000 0.66810  0.67570  0.93460  Biso   1.000  C
  C123     1.0000 0.16810  0.82430  0.43460  Biso   1.000  C
  C124     1.0000 0.33190  0.32430  0.06540  Biso   1.000  C
  H45      1.0000 0.88170  0.16650  0.55520  Biso   1.000  H
  H46      1.0000 0.61830  0.66650  0.94480  Biso   1.000  H
  H47      1.0000 0.11830  0.83350  0.44480  Biso   1.000  H
  H48      1.0000 0.38170  0.33350  0.05520  Biso   1.000  H
  F105     1.0000 0.16860  0.11528  0.48109  Biso   1.000  F
  F106     1.0000 0.33140  0.61528  0.01891  Biso   1.000  F
  F107     1.0000 0.83140  0.88472  0.51891  Biso   1.000  F
  F108     1.0000 0.66860  0.38472  0.98109  Biso   1.000  F
  C125     1.0000 0.41870  0.11104  0.39200  Biso   1.000  C
  C126     1.0000 0.08130  0.61104  0.10800  Biso   1.000  C
  C127     1.0000 0.58130  0.88896  0.60800  Biso   1.000  C
  C128     1.0000 0.91870  0.38896  0.89200  Biso   1.000  C
  C129     1.0000 0.45330  0.17312  0.38540  Biso   1.000  C
  C130     1.0000 0.04670  0.67312  0.11460  Biso   1.000  C
  C131     1.0000 0.54670  0.82688  0.61460  Biso   1.000  C
  C132     1.0000 0.95330  0.32688  0.88540  Biso   1.000  C
  H49      1.0000 0.44980  0.19130  0.33580  Biso   1.000  H
  H50      1.0000 0.05020  0.69130  0.16420  Biso   1.000  H
  H51      1.0000 0.55020  0.80870  0.66420  Biso   1.000  H
  H52      1.0000 0.94980  0.30870  0.83580  Biso   1.000  H
  C133     1.0000 0.27880  0.26710  0.38840  Biso   1.000  C
  C134     1.0000 0.22120  0.76710  0.11160  Biso   1.000  C
  C135     1.0000 0.72120  0.73290  0.61160  Biso   1.000  C
  C136     1.0000 0.77880  0.23290  0.88840  Biso   1.000  C
  F109     1.0000 0.10450  0.08830  0.36530  Biso   1.000  F
  F110     1.0000 0.39550  0.58830  0.13470  Biso   1.000  F
  F111     1.0000 0.89550  0.91170  0.63470  Biso   1.000  F
  F112     1.0000 0.60450  0.41170  0.86530  Biso   1.000  F
  C137     1.0000 0.24590  0.06000  0.12940  Biso   1.000  C
  C138     1.0000 0.25410  0.56000  0.37060  Biso   1.000  C
  C139     1.0000 0.75410  0.94000  0.87060  Biso   1.000  C
  C140     1.0000 0.74590  0.44000  0.62940  Biso   1.000  C
  H53      1.0000 0.22910  0.02360  0.09370  Biso   1.000  H
  H54      1.0000 0.27090  0.52360  0.40630  Biso   1.000  H
  H55      1.0000 0.77090  0.97640  0.90630  Biso   1.000  H
  H56      1.0000 0.72910  0.47640  0.59370  Biso   1.000  H
  H57      1.0000 0.25230  0.09890  0.10010  Biso   1.000  H
  H58      1.0000 0.24770  0.59890  0.39990  Biso   1.000  H
  H59      1.0000 0.74770  0.90110  0.89990  Biso   1.000  H
  H60      1.0000 0.75230  0.40110  0.60010  Biso   1.000  H
  H61      1.0000 0.20570  0.06800  0.15810  Biso   1.000  H
  H62      1.0000 0.29430  0.56800  0.34190  Biso   1.000  H
  H63      1.0000 0.79430  0.93200  0.84190  Biso   1.000  H
  H64      1.0000 0.70570  0.43200  0.65810  Biso   1.000  H
  C141     1.0000 0.32290  0.98120  0.23990  Biso   1.000  C
  C142     1.0000 0.17710  0.48120  0.26010  Biso   1.000  C
  C143     1.0000 0.67710  0.01880  0.76010  Biso   1.000  C
  C144     1.0000 0.82290  0.51880  0.73990  Biso   1.000  C
  C145     1.0000 0.82600  0.22190  0.62190  Biso   1.000  C
  C146     1.0000 0.67400  0.72190  0.87810  Biso   1.000  C
  C147     1.0000 0.17400  0.77810  0.37810  Biso   1.000  C
  C148     1.0000 0.32600  0.27810  0.12190  Biso   1.000  C
  H65      1.0000 0.87280  0.24330  0.64950  Biso   1.000  H
  H66      1.0000 0.62720  0.74330  0.85050  Biso   1.000  H
  H67      1.0000 0.12720  0.75670  0.35050  Biso   1.000  H
  H68      1.0000 0.37280  0.25670  0.14950  Biso   1.000  H
  C149     1.0000 0.32620  0.04310  0.18710  Biso   1.000  C
  C150     1.0000 0.17380  0.54310  0.31290  Biso   1.000  C
  C151     1.0000 0.67380  0.95690  0.81290  Biso   1.000  C
  C152     1.0000 0.82620  0.45690  0.68710  Biso   1.000  C
  F113     1.0000 0.35110  0.36540  0.42230  Biso   1.000  F
  F114     1.0000 0.14890  0.86540  0.07770  Biso   1.000  F
  F115     1.0000 0.64890  0.63460  0.57770  Biso   1.000  F
  F116     1.0000 0.85110  0.13460  0.92230  Biso   1.000  F
  C153     1.0000 0.23920  0.96520  0.25090  Biso   1.000  C
  C154     1.0000 0.26080  0.46520  0.24910  Biso   1.000  C
  C155     1.0000 0.76080  0.03480  0.74910  Biso   1.000  C
  C156     1.0000 0.73920  0.53480  0.75090  Biso   1.000  C
  H69      1.0000 0.21610  0.00420  0.26760  Biso   1.000  H
  H70      1.0000 0.28390  0.50420  0.23240  Biso   1.000  H
  H71      1.0000 0.78390  0.99580  0.73240  Biso   1.000  H
  H72      1.0000 0.71610  0.49580  0.76760  Biso   1.000  H
  H73      1.0000 0.24360  0.93120  0.29010  Biso   1.000  H
  H74      1.0000 0.25640  0.43120  0.20990  Biso   1.000  H
  H75      1.0000 0.75640  0.06880  0.70990  Biso   1.000  H
  H76      1.0000 0.74360  0.56880  0.79010  Biso   1.000  H
  H77      1.0000 0.20500  0.95000  0.20170  Biso   1.000  H
  H78      1.0000 0.29500  0.45000  0.29830  Biso   1.000  H
  H79      1.0000 0.79500  0.05000  0.79830  Biso   1.000  H
  H80      1.0000 0.70500  0.55000  0.70170  Biso   1.000  H
  F117     1.0000 0.25100  0.35690  0.46100  Biso   1.000  F
  F118     1.0000 0.24900  0.85690  0.03900  Biso   1.000  F
  F119     1.0000 0.74900  0.64310  0.53900  Biso   1.000  F
  F120     1.0000 0.75100  0.14310  0.96100  Biso   1.000  F
  C157     1.0000 0.30930  0.32230  0.44810  Biso   1.000  C
  C158     1.0000 0.19070  0.82230  0.05190  Biso   1.000  C
  C159     1.0000 0.69070  0.67770  0.55190  Biso   1.000  C
  C160     1.0000 0.80930  0.17770  0.94810  Biso   1.000  C
  C161     1.0000 0.21500  0.15770  0.37270  Biso   1.000  C
  C162     1.0000 0.28500  0.65770  0.12730  Biso   1.000  C
  C163     1.0000 0.78500  0.84230  0.62730  Biso   1.000  C
  C164     1.0000 0.71500  0.34230  0.87270  Biso   1.000  C
  C165     1.0000 0.36410  0.91940  0.21810  Biso   1.000  C
  C166     1.0000 0.13590  0.41940  0.28190  Biso   1.000  C
  C167     1.0000 0.63590  0.08060  0.78190  Biso   1.000  C
  C168     1.0000 0.86410  0.58060  0.71810  Biso   1.000  C
  H81      1.0000 0.35930  0.88390  0.25310  Biso   1.000  H
  H82      1.0000 0.14070  0.38390  0.24690  Biso   1.000  H
  H83      1.0000 0.64070  0.11610  0.74690  Biso   1.000  H
  H84      1.0000 0.85930  0.61610  0.75310  Biso   1.000  H
  H85      1.0000 0.42030  0.92860  0.22280  Biso   1.000  H
  H86      1.0000 0.07970  0.42860  0.27720  Biso   1.000  H
  H87      1.0000 0.57970  0.07140  0.77720  Biso   1.000  H
  H88      1.0000 0.92030  0.57140  0.72280  Biso   1.000  H
  H89      1.0000 0.33850  0.90690  0.16480  Biso   1.000  H
  H90      1.0000 0.16150  0.40690  0.33520  Biso   1.000  H
  H91      1.0000 0.66150  0.09310  0.83520  Biso   1.000  H
  H92      1.0000 0.83850  0.59310  0.66480  Biso   1.000  H
  C169     1.0000 0.17700  0.10160  0.40990  Biso   1.000  C
  C170     1.0000 0.32300  0.60160  0.09010  Biso   1.000  C
  C171     1.0000 0.82300  0.89840  0.59010  Biso   1.000  C
  C172     1.0000 0.67700  0.39840  0.90990  Biso   1.000  C
  C173     1.0000 0.55480  0.27680  0.70250  Biso   1.000  C
  C174     1.0000 0.94520  0.77680  0.79750  Biso   1.000  C
  C175     1.0000 0.44520  0.72320  0.29750  Biso   1.000  C
  C176     1.0000 0.05480  0.22320  0.20250  Biso   1.000  C
  H93      1.0000 0.54540  0.30180  0.74390  Biso   1.000  H
  H94      1.0000 0.95460  0.80180  0.75610  Biso   1.000  H
  H95      1.0000 0.45460  0.69820  0.25610  Biso   1.000  H
  H96      1.0000 0.04540  0.19820  0.24390  Biso   1.000  H
  C177     1.0000 0.49720  0.17960  0.52630  Biso   1.000  C
  C178     1.0000 0.00280  0.67960  0.97370  Biso   1.000  C
  C179     1.0000 0.50280  0.82040  0.47370  Biso   1.000  C
  C180     1.0000 0.99720  0.32040  0.02630  Biso   1.000  C
  C181     1.0000 0.39460  0.04150  0.14530  Biso   1.000  C
  C182     1.0000 0.10540  0.54150  0.35470  Biso   1.000  C
  C183     1.0000 0.60540  0.95850  0.85470  Biso   1.000  C
  C184     1.0000 0.89460  0.45850  0.64530  Biso   1.000  C
  H97      1.0000 0.38500  0.00640  0.10700  Biso   1.000  H
  H98      1.0000 0.11500  0.50640  0.39300  Biso   1.000  H
  H99      1.0000 0.61500  0.99360  0.89300  Biso   1.000  H
  H100     1.0000 0.88500  0.49360  0.60700  Biso   1.000  H
  H101     1.0000 0.44510  0.03390  0.18340  Biso   1.000  H
  H102     1.0000 0.05490  0.53390  0.31660  Biso   1.000  H
  H103     1.0000 0.55490  0.96610  0.81660  Biso   1.000  H
  H104     1.0000 0.94510  0.46610  0.68340  Biso   1.000  H
  H105     1.0000 0.39680  0.08300  0.11930  Biso   1.000  H
  H106     1.0000 0.10320  0.58300  0.38070  Biso   1.000  H
  H107     1.0000 0.60320  0.91700  0.88070  Biso   1.000  H
  H108     1.0000 0.89680  0.41700  0.61930  Biso   1.000  H
