data_image0
_cell_length_a       27.1
_cell_length_b       10.897
_cell_length_c       18.9
_cell_angle_alpha    90
_cell_angle_beta     98.25
_cell_angle_gamma    90

_symmetry_space_group_name_H-M    "P 1"
_symmetry_int_tables_number       1

loop_
  _symmetry_equiv_pos_as_xyz
  'x, y, z'

loop_
  _atom_site_label
  _atom_site_occupancy
  _atom_site_fract_x
  _atom_site_fract_y
  _atom_site_fract_z
  _atom_site_thermal_displace_type
  _atom_site_B_iso_or_equiv
  _atom_site_type_symbol
  C1       1.0000 0.01885  0.09950  0.06350  Biso   1.000  C
  C2       1.0000 0.98115  0.09950  0.43650  Biso   1.000  C
  C3       1.0000 0.51885  0.59950  0.06350  Biso   1.000  C
  C4       1.0000 0.48115  0.59950  0.43650  Biso   1.000  C
  C5       1.0000 0.98115  0.90050  0.93650  Biso   1.000  C
  C6       1.0000 0.01885  0.90050  0.56350  Biso   1.000  C
  C7       1.0000 0.48115  0.40050  0.93650  Biso   1.000  C
  C8       1.0000 0.51885  0.40050  0.56350  Biso   1.000  C
  H1       1.0000 0.02220  0.02010  0.08150  Biso   1.000  H
  H2       1.0000 0.97780  0.02010  0.41850  Biso   1.000  H
  H3       1.0000 0.52220  0.52010  0.08150  Biso   1.000  H
  H4       1.0000 0.47780  0.52010  0.41850  Biso   1.000  H
  H5       1.0000 0.97780  0.97990  0.91850  Biso   1.000  H
  H6       1.0000 0.02220  0.97990  0.58150  Biso   1.000  H
  H7       1.0000 0.47780  0.47990  0.91850  Biso   1.000  H
  H8       1.0000 0.52220  0.47990  0.58150  Biso   1.000  H
  C9       1.0000 0.97204  0.15300  0.05550  Biso   1.000  C
  C10      1.0000 0.02796  0.15300  0.44450  Biso   1.000  C
  C11      1.0000 0.47204  0.65300  0.05550  Biso   1.000  C
  C12      1.0000 0.52796  0.65300  0.44450  Biso   1.000  C
  C13      1.0000 0.02796  0.84700  0.94450  Biso   1.000  C
  C14      1.0000 0.97204  0.84700  0.55550  Biso   1.000  C
  C15      1.0000 0.52796  0.34700  0.94450  Biso   1.000  C
  C16      1.0000 0.47204  0.34700  0.55550  Biso   1.000  C
  H9       1.0000 0.94490  0.10990  0.06780  Biso   1.000  H
  H10      1.0000 0.05510  0.10990  0.43220  Biso   1.000  H
  H11      1.0000 0.44490  0.60990  0.06780  Biso   1.000  H
  H12      1.0000 0.55510  0.60990  0.43220  Biso   1.000  H
  H13      1.0000 0.05510  0.89010  0.93220  Biso   1.000  H
  H14      1.0000 0.94490  0.89010  0.56780  Biso   1.000  H
  H15      1.0000 0.55510  0.39010  0.93220  Biso   1.000  H
  H16      1.0000 0.44490  0.39010  0.56780  Biso   1.000  H
  C17      1.0000 0.96609  0.27110  0.02930  Biso   1.000  C
  C18      1.0000 0.03391  0.27110  0.47070  Biso   1.000  C
  C19      1.0000 0.46609  0.77110  0.02930  Biso   1.000  C
  C20      1.0000 0.53391  0.77110  0.47070  Biso   1.000  C
  C21      1.0000 0.03391  0.72890  0.97070  Biso   1.000  C
  C22      1.0000 0.96609  0.72890  0.52930  Biso   1.000  C
  C23      1.0000 0.53391  0.22890  0.97070  Biso   1.000  C
  C24      1.0000 0.46609  0.22890  0.52930  Biso   1.000  C
  C25      1.0000 0.00738  0.32700  0.00930  Biso   1.000  C
  C26      1.0000 0.99262  0.32700  0.49070  Biso   1.000  C
  C27      1.0000 0.50738  0.82700  0.00930  Biso   1.000  C
  C28      1.0000 0.49262  0.82700  0.49070  Biso   1.000  C
  C29      1.0000 0.99262  0.67300  0.99070  Biso   1.000  C
  C30      1.0000 0.00738  0.67300  0.50930  Biso   1.000  C
  C31      1.0000 0.49262  0.17300  0.99070  Biso   1.000  C
  C32      1.0000 0.50738  0.17300  0.50930  Biso   1.000  C
  H17      1.0000 0.00460  0.40470  0.98880  Biso   1.000  H
  H18      1.0000 0.99540  0.40470  0.51120  Biso   1.000  H
  H19      1.0000 0.50460  0.90470  0.98880  Biso   1.000  H
  H20      1.0000 0.49540  0.90470  0.51120  Biso   1.000  H
  H21      1.0000 0.99540  0.59530  0.01120  Biso   1.000  H
  H22      1.0000 0.00460  0.59530  0.48880  Biso   1.000  H
  H23      1.0000 0.49540  0.09530  0.01120  Biso   1.000  H
  H24      1.0000 0.50460  0.09530  0.48880  Biso   1.000  H
  C33      1.0000 0.05265  0.26890  0.01930  Biso   1.000  C
  C34      1.0000 0.94735  0.26890  0.48070  Biso   1.000  C
  C35      1.0000 0.55265  0.76890  0.01930  Biso   1.000  C
  C36      1.0000 0.44735  0.76890  0.48070  Biso   1.000  C
  C37      1.0000 0.94735  0.73110  0.98070  Biso   1.000  C
  C38      1.0000 0.05265  0.73110  0.51930  Biso   1.000  C
  C39      1.0000 0.44735  0.23110  0.98070  Biso   1.000  C
  C40      1.0000 0.55265  0.23110  0.51930  Biso   1.000  C
  H25      1.0000 0.08010  0.30980  0.00630  Biso   1.000  H
  H26      1.0000 0.91990  0.30980  0.49370  Biso   1.000  H
  H27      1.0000 0.58010  0.80980  0.00630  Biso   1.000  H
  H28      1.0000 0.41990  0.80980  0.49370  Biso   1.000  H
  H29      1.0000 0.91990  0.69020  0.99370  Biso   1.000  H
  H30      1.0000 0.08010  0.69020  0.50630  Biso   1.000  H
  H31      1.0000 0.41990  0.19020  0.99370  Biso   1.000  H
  H32      1.0000 0.58010  0.19020  0.50630  Biso   1.000  H
  C41      1.0000 0.73856  0.61540  0.05740  Biso   1.000  C
  C42      1.0000 0.26144  0.61540  0.44260  Biso   1.000  C
  C43      1.0000 0.23856  0.11540  0.05740  Biso   1.000  C
  C44      1.0000 0.76144  0.11540  0.44260  Biso   1.000  C
  C45      1.0000 0.26144  0.38460  0.94260  Biso   1.000  C
  C46      1.0000 0.73856  0.38460  0.55740  Biso   1.000  C
  C47      1.0000 0.76144  0.88460  0.94260  Biso   1.000  C
  C48      1.0000 0.23856  0.88460  0.55740  Biso   1.000  C
  H33      1.0000 0.73010  0.69810  0.05590  Biso   1.000  H
  H34      1.0000 0.26990  0.69810  0.44410  Biso   1.000  H
  H35      1.0000 0.23010  0.19810  0.05590  Biso   1.000  H
  H36      1.0000 0.76990  0.19810  0.44410  Biso   1.000  H
  H37      1.0000 0.26990  0.30190  0.94410  Biso   1.000  H
  H38      1.0000 0.73010  0.30190  0.55590  Biso   1.000  H
  H39      1.0000 0.76990  0.80190  0.94410  Biso   1.000  H
  H40      1.0000 0.23010  0.80190  0.55590  Biso   1.000  H
  C49      1.0000 0.78653  0.58400  0.04700  Biso   1.000  C
  C50      1.0000 0.21347  0.58400  0.45300  Biso   1.000  C
  C51      1.0000 0.28653  0.08400  0.04700  Biso   1.000  C
  C52      1.0000 0.71347  0.08400  0.45300  Biso   1.000  C
  C53      1.0000 0.21347  0.41600  0.95300  Biso   1.000  C
  C54      1.0000 0.78653  0.41600  0.54700  Biso   1.000  C
  C55      1.0000 0.71347  0.91600  0.95300  Biso   1.000  C
  C56      1.0000 0.28653  0.91600  0.54700  Biso   1.000  C
  H41      1.0000 0.80950  0.64400  0.03910  Biso   1.000  H
  H42      1.0000 0.19050  0.64400  0.46090  Biso   1.000  H
  H43      1.0000 0.30950  0.14400  0.03910  Biso   1.000  H
  H44      1.0000 0.69050  0.14400  0.46090  Biso   1.000  H
  H45      1.0000 0.19050  0.35600  0.96090  Biso   1.000  H
  H46      1.0000 0.80950  0.35600  0.53910  Biso   1.000  H
  H47      1.0000 0.69050  0.85600  0.96090  Biso   1.000  H
  H48      1.0000 0.30950  0.85600  0.53910  Biso   1.000  H
  C57      1.0000 0.79949  0.46060  0.04890  Biso   1.000  C
  C58      1.0000 0.20051  0.46060  0.45110  Biso   1.000  C
  C59      1.0000 0.29949  0.96060  0.04890  Biso   1.000  C
  C60      1.0000 0.70051  0.96060  0.45110  Biso   1.000  C
  C61      1.0000 0.20051  0.53940  0.95110  Biso   1.000  C
  C62      1.0000 0.79949  0.53940  0.54890  Biso   1.000  C
  C63      1.0000 0.70051  0.03940  0.95110  Biso   1.000  C
  C64      1.0000 0.29949  0.03940  0.54890  Biso   1.000  C
  C65      1.0000 0.76451  0.37570  0.06520  Biso   1.000  C
  C66      1.0000 0.23549  0.37570  0.43480  Biso   1.000  C
  C67      1.0000 0.26451  0.87570  0.06520  Biso   1.000  C
  C68      1.0000 0.73549  0.87570  0.43480  Biso   1.000  C
  C69      1.0000 0.23549  0.62430  0.93480  Biso   1.000  C
  C70      1.0000 0.76451  0.62430  0.56520  Biso   1.000  C
  C71      1.0000 0.73549  0.12430  0.93480  Biso   1.000  C
  C72      1.0000 0.26451  0.12430  0.56520  Biso   1.000  C
  H49      1.0000 0.77260  0.29290  0.07030  Biso   1.000  H
  H50      1.0000 0.22740  0.29290  0.42970  Biso   1.000  H
  H51      1.0000 0.27260  0.79290  0.07030  Biso   1.000  H
  H52      1.0000 0.72740  0.79290  0.42970  Biso   1.000  H
  H53      1.0000 0.22740  0.70710  0.92970  Biso   1.000  H
  H54      1.0000 0.77260  0.70710  0.57030  Biso   1.000  H
  H55      1.0000 0.72740  0.20710  0.92970  Biso   1.000  H
  H56      1.0000 0.27260  0.20710  0.57030  Biso   1.000  H
  C73      1.0000 0.71745  0.41720  0.07360  Biso   1.000  C
  C74      1.0000 0.28255  0.41720  0.42640  Biso   1.000  C
  C75      1.0000 0.21745  0.91720  0.07360  Biso   1.000  C
  C76      1.0000 0.78255  0.91720  0.42640  Biso   1.000  C
  C77      1.0000 0.28255  0.58280  0.92640  Biso   1.000  C
  C78      1.0000 0.71745  0.58280  0.57360  Biso   1.000  C
  C79      1.0000 0.78255  0.08280  0.92640  Biso   1.000  C
  C80      1.0000 0.21745  0.08280  0.57360  Biso   1.000  C
  H57      1.0000 0.69380  0.35970  0.08280  Biso   1.000  H
  H58      1.0000 0.30620  0.35970  0.41720  Biso   1.000  H
  H59      1.0000 0.19380  0.85970  0.08280  Biso   1.000  H
  H60      1.0000 0.80620  0.85970  0.41720  Biso   1.000  H
  H61      1.0000 0.30620  0.64030  0.91720  Biso   1.000  H
  H62      1.0000 0.69380  0.64030  0.58280  Biso   1.000  H
  H63      1.0000 0.80620  0.14030  0.91720  Biso   1.000  H
  H64      1.0000 0.19380  0.14030  0.58280  Biso   1.000  H
  C81      1.0000 0.10539  0.15560  0.71650  Biso   1.000  C
  C82      1.0000 0.89461  0.15560  0.78350  Biso   1.000  C
  C83      1.0000 0.60539  0.65560  0.71650  Biso   1.000  C
  C84      1.0000 0.39461  0.65560  0.78350  Biso   1.000  C
  C85      1.0000 0.89461  0.84440  0.28350  Biso   1.000  C
  C86      1.0000 0.10539  0.84440  0.21650  Biso   1.000  C
  C87      1.0000 0.39461  0.34440  0.28350  Biso   1.000  C
  C88      1.0000 0.60539  0.34440  0.21650  Biso   1.000  C
  C89      1.0000 0.11091  0.08790  0.64950  Biso   1.000  C
  C90      1.0000 0.88909  0.08790  0.85050  Biso   1.000  C
  C91      1.0000 0.61091  0.58790  0.64950  Biso   1.000  C
  C92      1.0000 0.38909  0.58790  0.85050  Biso   1.000  C
  C93      1.0000 0.88909  0.91210  0.35050  Biso   1.000  C
  C94      1.0000 0.11091  0.91210  0.14950  Biso   1.000  C
  C95      1.0000 0.38909  0.41210  0.35050  Biso   1.000  C
  C96      1.0000 0.61091  0.41210  0.14950  Biso   1.000  C
  C97      1.0000 0.13001  0.10050  0.91670  Biso   1.000  C
  C98      1.0000 0.86999  0.10050  0.58330  Biso   1.000  C
  C99      1.0000 0.63001  0.60050  0.91670  Biso   1.000  C
  C100     1.0000 0.36999  0.60050  0.58330  Biso   1.000  C
  C101     1.0000 0.86999  0.89950  0.08330  Biso   1.000  C
  C102     1.0000 0.13001  0.89950  0.41670  Biso   1.000  C
  C103     1.0000 0.36999  0.39950  0.08330  Biso   1.000  C
  C104     1.0000 0.63001  0.39950  0.41670  Biso   1.000  C
  C105     1.0000 0.11632  0.16290  0.84530  Biso   1.000  C
  C106     1.0000 0.88368  0.16290  0.65470  Biso   1.000  C
  C107     1.0000 0.61632  0.66290  0.84530  Biso   1.000  C
  C108     1.0000 0.38368  0.66290  0.65470  Biso   1.000  C
  C109     1.0000 0.88368  0.83710  0.15470  Biso   1.000  C
  C110     1.0000 0.11632  0.83710  0.34530  Biso   1.000  C
  C111     1.0000 0.38368  0.33710  0.15470  Biso   1.000  C
  C112     1.0000 0.61632  0.33710  0.34530  Biso   1.000  C
  C113     1.0000 0.11913  0.09950  0.78290  Biso   1.000  C
  C114     1.0000 0.88087  0.09950  0.71710  Biso   1.000  C
  C115     1.0000 0.61913  0.59950  0.78290  Biso   1.000  C
  C116     1.0000 0.38087  0.59950  0.71710  Biso   1.000  C
  C117     1.0000 0.88087  0.90050  0.21710  Biso   1.000  C
  C118     1.0000 0.11913  0.90050  0.28290  Biso   1.000  C
  C119     1.0000 0.38087  0.40050  0.21710  Biso   1.000  C
  C120     1.0000 0.61913  0.40050  0.28290  Biso   1.000  C
  H65      1.0000 0.13030  0.01860  0.78490  Biso   1.000  H
  H66      1.0000 0.86970  0.01860  0.71510  Biso   1.000  H
  H67      1.0000 0.63030  0.51860  0.78490  Biso   1.000  H
  H68      1.0000 0.36970  0.51860  0.71510  Biso   1.000  H
  H69      1.0000 0.86970  0.98140  0.21510  Biso   1.000  H
  H70      1.0000 0.13030  0.98140  0.28490  Biso   1.000  H
  H71      1.0000 0.36970  0.48140  0.21510  Biso   1.000  H
  H72      1.0000 0.63030  0.48140  0.28490  Biso   1.000  H
  C121     1.0000 0.10037  0.28440  0.84140  Biso   1.000  C
  C122     1.0000 0.89963  0.28440  0.65860  Biso   1.000  C
  C123     1.0000 0.60037  0.78440  0.84140  Biso   1.000  C
  C124     1.0000 0.39963  0.78440  0.65860  Biso   1.000  C
  C125     1.0000 0.89963  0.71560  0.15860  Biso   1.000  C
  C126     1.0000 0.10037  0.71560  0.34140  Biso   1.000  C
  C127     1.0000 0.39963  0.21560  0.15860  Biso   1.000  C
  C128     1.0000 0.60037  0.21560  0.34140  Biso   1.000  C
  H73      1.0000 0.09970  0.32890  0.88320  Biso   1.000  H
  H74      1.0000 0.90030  0.32890  0.61680  Biso   1.000  H
  H75      1.0000 0.59970  0.82890  0.88320  Biso   1.000  H
  H76      1.0000 0.40030  0.82890  0.61680  Biso   1.000  H
  H77      1.0000 0.90030  0.67110  0.11680  Biso   1.000  H
  H78      1.0000 0.09970  0.67110  0.38320  Biso   1.000  H
  H79      1.0000 0.40030  0.17110  0.11680  Biso   1.000  H
  H80      1.0000 0.59970  0.17110  0.38320  Biso   1.000  H
  C129     1.0000 0.08784  0.27600  0.71340  Biso   1.000  C
  C130     1.0000 0.91216  0.27600  0.78660  Biso   1.000  C
  C131     1.0000 0.58784  0.77600  0.71340  Biso   1.000  C
  C132     1.0000 0.41216  0.77600  0.78660  Biso   1.000  C
  C133     1.0000 0.91216  0.72400  0.28660  Biso   1.000  C
  C134     1.0000 0.08784  0.72400  0.21340  Biso   1.000  C
  C135     1.0000 0.41216  0.22400  0.28660  Biso   1.000  C
  C136     1.0000 0.58784  0.22400  0.21340  Biso   1.000  C
  H81      1.0000 0.07770  0.31310  0.66930  Biso   1.000  H
  H82      1.0000 0.92230  0.31310  0.83070  Biso   1.000  H
  H83      1.0000 0.57770  0.81310  0.66930  Biso   1.000  H
  H84      1.0000 0.42230  0.81310  0.83070  Biso   1.000  H
  H85      1.0000 0.92230  0.68690  0.33070  Biso   1.000  H
  H86      1.0000 0.07770  0.68690  0.16930  Biso   1.000  H
  H87      1.0000 0.42230  0.18690  0.33070  Biso   1.000  H
  H88      1.0000 0.57770  0.18690  0.16930  Biso   1.000  H
  C137     1.0000 0.08553  0.33990  0.77570  Biso   1.000  C
  C138     1.0000 0.91447  0.33990  0.72430  Biso   1.000  C
  C139     1.0000 0.58553  0.83990  0.77570  Biso   1.000  C
  C140     1.0000 0.41447  0.83990  0.72430  Biso   1.000  C
  C141     1.0000 0.91447  0.66010  0.22430  Biso   1.000  C
  C142     1.0000 0.08553  0.66010  0.27570  Biso   1.000  C
  C143     1.0000 0.41447  0.16010  0.22430  Biso   1.000  C
  C144     1.0000 0.58553  0.16010  0.27570  Biso   1.000  C
  C145     1.0000 0.02180  0.63250  0.73480  Biso   1.000  C
  C146     1.0000 0.97820  0.63250  0.76520  Biso   1.000  C
  C147     1.0000 0.52180  0.13250  0.73480  Biso   1.000  C
  C148     1.0000 0.47820  0.13250  0.76520  Biso   1.000  C
  C149     1.0000 0.97820  0.36750  0.26520  Biso   1.000  C
  C150     1.0000 0.02180  0.36750  0.23480  Biso   1.000  C
  C151     1.0000 0.47820  0.86750  0.26520  Biso   1.000  C
  C152     1.0000 0.52180  0.86750  0.23480  Biso   1.000  C
  C153     1.0000 0.04318  0.74400  0.72070  Biso   1.000  C
  C154     1.0000 0.95682  0.74400  0.77930  Biso   1.000  C
  C155     1.0000 0.54318  0.24400  0.72070  Biso   1.000  C
  C156     1.0000 0.45682  0.24400  0.77930  Biso   1.000  C
  C157     1.0000 0.95682  0.25600  0.27930  Biso   1.000  C
  C158     1.0000 0.04318  0.25600  0.22070  Biso   1.000  C
  C159     1.0000 0.45682  0.75600  0.27930  Biso   1.000  C
  C160     1.0000 0.54318  0.75600  0.22070  Biso   1.000  C
  H89      1.0000 0.07260  0.74420  0.70060  Biso   1.000  H
  H90      1.0000 0.92740  0.74420  0.79940  Biso   1.000  H
  H91      1.0000 0.57260  0.24420  0.70060  Biso   1.000  H
  H92      1.0000 0.42740  0.24420  0.79940  Biso   1.000  H
  H93      1.0000 0.92740  0.25580  0.29940  Biso   1.000  H
  H94      1.0000 0.07260  0.25580  0.20060  Biso   1.000  H
  H95      1.0000 0.42740  0.75580  0.29940  Biso   1.000  H
  H96      1.0000 0.57260  0.75580  0.20060  Biso   1.000  H
  C161     1.0000 0.02210  0.85390  0.73550  Biso   1.000  C
  C162     1.0000 0.97790  0.85390  0.76450  Biso   1.000  C
  C163     1.0000 0.52210  0.35390  0.73550  Biso   1.000  C
  C164     1.0000 0.47790  0.35390  0.76450  Biso   1.000  C
  C165     1.0000 0.97790  0.14610  0.26450  Biso   1.000  C
  C166     1.0000 0.02210  0.14610  0.23550  Biso   1.000  C
  C167     1.0000 0.47790  0.64610  0.26450  Biso   1.000  C
  C168     1.0000 0.52210  0.64610  0.23550  Biso   1.000  C
  H97      1.0000 0.03730  0.92750  0.72620  Biso   1.000  H
  H98      1.0000 0.96270  0.92750  0.77380  Biso   1.000  H
  H99      1.0000 0.53730  0.42750  0.72620  Biso   1.000  H
  H100     1.0000 0.46270  0.42750  0.77380  Biso   1.000  H
  H101     1.0000 0.96270  0.07250  0.27380  Biso   1.000  H
  H102     1.0000 0.03730  0.07250  0.22620  Biso   1.000  H
  H103     1.0000 0.46270  0.57250  0.27380  Biso   1.000  H
  H104     1.0000 0.53730  0.57250  0.22620  Biso   1.000  H
  C169     1.0000 0.04590  0.51450  0.71470  Biso   1.000  C
  C170     1.0000 0.95410  0.51450  0.78530  Biso   1.000  C
  C171     1.0000 0.54590  0.01450  0.71470  Biso   1.000  C
  C172     1.0000 0.45410  0.01450  0.78530  Biso   1.000  C
  C173     1.0000 0.95410  0.48550  0.28530  Biso   1.000  C
  C174     1.0000 0.04590  0.48550  0.21470  Biso   1.000  C
  C175     1.0000 0.45410  0.98550  0.28530  Biso   1.000  C
  C176     1.0000 0.54590  0.98550  0.21470  Biso   1.000  C
  H105     1.0000 0.02090  0.45950  0.69030  Biso   1.000  H
  H106     1.0000 0.97910  0.45950  0.80970  Biso   1.000  H
  H107     1.0000 0.52090  0.95950  0.69030  Biso   1.000  H
  H108     1.0000 0.47910  0.95950  0.80970  Biso   1.000  H
  H109     1.0000 0.97910  0.54050  0.30970  Biso   1.000  H
  H110     1.0000 0.02090  0.54050  0.19030  Biso   1.000  H
  H111     1.0000 0.47910  0.04050  0.30970  Biso   1.000  H
  H112     1.0000 0.52090  0.04050  0.19030  Biso   1.000  H
  H113     1.0000 0.07030  0.53160  0.68320  Biso   1.000  H
  H114     1.0000 0.92970  0.53160  0.81680  Biso   1.000  H
  H115     1.0000 0.57030  0.03160  0.68320  Biso   1.000  H
  H116     1.0000 0.42970  0.03160  0.81680  Biso   1.000  H
  H117     1.0000 0.92970  0.46840  0.31680  Biso   1.000  H
  H118     1.0000 0.07030  0.46840  0.18320  Biso   1.000  H
  H119     1.0000 0.42970  0.96840  0.31680  Biso   1.000  H
  H120     1.0000 0.57030  0.96840  0.18320  Biso   1.000  H
  C177     1.0000 0.91961  0.34290  0.01720  Biso   1.000  C
  C178     1.0000 0.08039  0.34290  0.48280  Biso   1.000  C
  C179     1.0000 0.41961  0.84290  0.01720  Biso   1.000  C
  C180     1.0000 0.58039  0.84290  0.48280  Biso   1.000  C
  C181     1.0000 0.08039  0.65710  0.98280  Biso   1.000  C
  C182     1.0000 0.91961  0.65710  0.51720  Biso   1.000  C
  C183     1.0000 0.58039  0.15710  0.98280  Biso   1.000  C
  C184     1.0000 0.41961  0.15710  0.51720  Biso   1.000  C
  C185     1.0000 0.84834  0.42690  0.02750  Biso   1.000  C
  C186     1.0000 0.15166  0.42690  0.47250  Biso   1.000  C
  C187     1.0000 0.34834  0.92690  0.02750  Biso   1.000  C
  C188     1.0000 0.65166  0.92690  0.47250  Biso   1.000  C
  C189     1.0000 0.15166  0.57310  0.97250  Biso   1.000  C
  C190     1.0000 0.84834  0.57310  0.52750  Biso   1.000  C
  C191     1.0000 0.65166  0.07310  0.97250  Biso   1.000  C
  C192     1.0000 0.34834  0.07310  0.52750  Biso   1.000  C
  Cu1      1.0000 0.13204  0.09561  0.06375  Biso   1.000  Cu
  Cu2      1.0000 0.86796  0.09561  0.43625  Biso   1.000  Cu
  Cu3      1.0000 0.63204  0.59561  0.06375  Biso   1.000  Cu
  Cu4      1.0000 0.36796  0.59561  0.43625  Biso   1.000  Cu
  Cu5      1.0000 0.86796  0.90439  0.93625  Biso   1.000  Cu
  Cu6      1.0000 0.13204  0.90439  0.56375  Biso   1.000  Cu
  Cu7      1.0000 0.36796  0.40439  0.93625  Biso   1.000  Cu
  Cu8      1.0000 0.63204  0.40439  0.56375  Biso   1.000  Cu
  N1       1.0000 0.05919  0.15530  0.04690  Biso   1.000  N
  N2       1.0000 0.94081  0.15530  0.45310  Biso   1.000  N
  N3       1.0000 0.55919  0.65530  0.04690  Biso   1.000  N
  N4       1.0000 0.44081  0.65530  0.45310  Biso   1.000  N
  N5       1.0000 0.94081  0.84470  0.95310  Biso   1.000  N
  N6       1.0000 0.05919  0.84470  0.54690  Biso   1.000  N
  N7       1.0000 0.44081  0.34470  0.95310  Biso   1.000  N
  N8       1.0000 0.55919  0.34470  0.54690  Biso   1.000  N
  N9       1.0000 0.70395  0.53520  0.06910  Biso   1.000  N
  N10      1.0000 0.29605  0.53520  0.43090  Biso   1.000  N
  N11      1.0000 0.20395  0.03520  0.06910  Biso   1.000  N
  N12      1.0000 0.79605  0.03520  0.43090  Biso   1.000  N
  N13      1.0000 0.29605  0.46480  0.93090  Biso   1.000  N
  N14      1.0000 0.70395  0.46480  0.56910  Biso   1.000  N
  N15      1.0000 0.79605  0.96480  0.93090  Biso   1.000  N
  N16      1.0000 0.20395  0.96480  0.56910  Biso   1.000  N
  N17      1.0000 0.91186  0.43170  0.96960  Biso   1.000  N
  N18      1.0000 0.08814  0.43170  0.53040  Biso   1.000  N
  N19      1.0000 0.41186  0.93170  0.96960  Biso   1.000  N
  N20      1.0000 0.58814  0.93170  0.53040  Biso   1.000  N
  N21      1.0000 0.08814  0.56830  0.03040  Biso   1.000  N
  N22      1.0000 0.91186  0.56830  0.46960  Biso   1.000  N
  N23      1.0000 0.58814  0.06830  0.03040  Biso   1.000  N
  N24      1.0000 0.41186  0.06830  0.46960  Biso   1.000  N
  N25      1.0000 0.86645  0.48490  0.97680  Biso   1.000  N
  N26      1.0000 0.13355  0.48490  0.52320  Biso   1.000  N
  N27      1.0000 0.36645  0.98490  0.97680  Biso   1.000  N
  N28      1.0000 0.63355  0.98490  0.52320  Biso   1.000  N
  N29      1.0000 0.13355  0.51510  0.02320  Biso   1.000  N
  N30      1.0000 0.86645  0.51510  0.47680  Biso   1.000  N
  N31      1.0000 0.63355  0.01510  0.02320  Biso   1.000  N
  N32      1.0000 0.36645  0.01510  0.47680  Biso   1.000  N
  N33      1.0000 0.87992  0.33620  0.05510  Biso   1.000  N
  N34      1.0000 0.12008  0.33620  0.44490  Biso   1.000  N
  N35      1.0000 0.37992  0.83620  0.05510  Biso   1.000  N
  N36      1.0000 0.62008  0.83620  0.44490  Biso   1.000  N
  N37      1.0000 0.12008  0.66380  0.94490  Biso   1.000  N
  N38      1.0000 0.87992  0.66380  0.55510  Biso   1.000  N
  N39      1.0000 0.62008  0.16380  0.94490  Biso   1.000  N
  N40      1.0000 0.37992  0.16380  0.55510  Biso   1.000  N
  N41      1.0000 0.87388  0.26390  0.11520  Biso   1.000  N
  N42      1.0000 0.12612  0.26390  0.38480  Biso   1.000  N
  N43      1.0000 0.37388  0.76390  0.11520  Biso   1.000  N
  N44      1.0000 0.62612  0.76390  0.38480  Biso   1.000  N
  N45      1.0000 0.12612  0.73610  0.88480  Biso   1.000  N
  N46      1.0000 0.87388  0.73610  0.61520  Biso   1.000  N
  N47      1.0000 0.62612  0.23610  0.88480  Biso   1.000  N
  N48      1.0000 0.37388  0.23610  0.61520  Biso   1.000  N
  H121     1.0000 0.84380  0.27800  0.12730  Biso   1.000  H
  H122     1.0000 0.15620  0.27800  0.37270  Biso   1.000  H
  H123     1.0000 0.34380  0.77800  0.12730  Biso   1.000  H
  H124     1.0000 0.65620  0.77800  0.37270  Biso   1.000  H
  H125     1.0000 0.15620  0.72200  0.87270  Biso   1.000  H
  H126     1.0000 0.84380  0.72200  0.62730  Biso   1.000  H
  H127     1.0000 0.65620  0.22200  0.87270  Biso   1.000  H
  H128     1.0000 0.34380  0.22200  0.62730  Biso   1.000  H
  H129     1.0000 0.89720  0.28440  0.15130  Biso   1.000  H
  H130     1.0000 0.10280  0.28440  0.34870  Biso   1.000  H
  H131     1.0000 0.39720  0.78440  0.15130  Biso   1.000  H
  H132     1.0000 0.60280  0.78440  0.34870  Biso   1.000  H
  H133     1.0000 0.10280  0.71560  0.84870  Biso   1.000  H
  H134     1.0000 0.89720  0.71560  0.65130  Biso   1.000  H
  H135     1.0000 0.60280  0.21560  0.84870  Biso   1.000  H
  H136     1.0000 0.39720  0.21560  0.65130  Biso   1.000  H
  O1       1.0000 0.12409  0.97500  0.65562  Biso   1.000  O
  O2       1.0000 0.87591  0.97500  0.84438  Biso   1.000  O
  O3       1.0000 0.62409  0.47500  0.65562  Biso   1.000  O
  O4       1.0000 0.37591  0.47500  0.84438  Biso   1.000  O
  O5       1.0000 0.87591  0.02500  0.34438  Biso   1.000  O
  O6       1.0000 0.12409  0.02500  0.15562  Biso   1.000  O
  O7       1.0000 0.37591  0.52500  0.34438  Biso   1.000  O
  O8       1.0000 0.62409  0.52500  0.15562  Biso   1.000  O
  O9       1.0000 0.10227  0.14170  0.59072  Biso   1.000  O
  O10      1.0000 0.89773  0.14170  0.90928  Biso   1.000  O
  O11      1.0000 0.60227  0.64170  0.59072  Biso   1.000  O
  O12      1.0000 0.39773  0.64170  0.90928  Biso   1.000  O
  O13      1.0000 0.89773  0.85830  0.40928  Biso   1.000  O
  O14      1.0000 0.10227  0.85830  0.09072  Biso   1.000  O
  O15      1.0000 0.39773  0.35830  0.40928  Biso   1.000  O
  O16      1.0000 0.60227  0.35830  0.09072  Biso   1.000  O
  O17      1.0000 0.13809  0.17060  0.97096  Biso   1.000  O
  O18      1.0000 0.86191  0.17060  0.52904  Biso   1.000  O
  O19      1.0000 0.63809  0.67060  0.97096  Biso   1.000  O
  O20      1.0000 0.36191  0.67060  0.52904  Biso   1.000  O
  O21      1.0000 0.86191  0.82940  0.02904  Biso   1.000  O
  O22      1.0000 0.13809  0.82940  0.47096  Biso   1.000  O
  O23      1.0000 0.36191  0.32940  0.02904  Biso   1.000  O
  O24      1.0000 0.63809  0.32940  0.47096  Biso   1.000  O
  O25      1.0000 0.13137  0.98760  0.91966  Biso   1.000  O
  O26      1.0000 0.86863  0.98760  0.58034  Biso   1.000  O
  O27      1.0000 0.63137  0.48760  0.91966  Biso   1.000  O
  O28      1.0000 0.36863  0.48760  0.58034  Biso   1.000  O
  O29      1.0000 0.86863  0.01240  0.08034  Biso   1.000  O
  O30      1.0000 0.13137  0.01240  0.41966  Biso   1.000  O
  O31      1.0000 0.36863  0.51240  0.08034  Biso   1.000  O
  O32      1.0000 0.63137  0.51240  0.41966  Biso   1.000  O
  O33      1.0000 0.06938  0.46020  0.77986  Biso   1.000  O
  O34      1.0000 0.93062  0.46020  0.72014  Biso   1.000  O
  O35      1.0000 0.56938  0.96020  0.77986  Biso   1.000  O
  O36      1.0000 0.43062  0.96020  0.72014  Biso   1.000  O
  O37      1.0000 0.93062  0.53980  0.22014  Biso   1.000  O
  O38      1.0000 0.06938  0.53980  0.27986  Biso   1.000  O
  O39      1.0000 0.43062  0.03980  0.22014  Biso   1.000  O
  O40      1.0000 0.56938  0.03980  0.27986  Biso   1.000  O
  O41      1.0000 0.15260  0.29150  0.11610  Biso   1.000  O
  O42      1.0000 0.84740  0.29150  0.38390  Biso   1.000  O
  O43      1.0000 0.65260  0.79150  0.11610  Biso   1.000  O
  O44      1.0000 0.34740  0.79150  0.38390  Biso   1.000  O
  O45      1.0000 0.84740  0.70850  0.88390  Biso   1.000  O
  O46      1.0000 0.15260  0.70850  0.61610  Biso   1.000  O
  O47      1.0000 0.34740  0.20850  0.88390  Biso   1.000  O
  O48      1.0000 0.65260  0.20850  0.61610  Biso   1.000  O
  H137     1.0000 0.18070  0.28900  0.13900  Biso   1.000  H
  H138     1.0000 0.81930  0.28900  0.36100  Biso   1.000  H
  H139     1.0000 0.68070  0.78900  0.13900  Biso   1.000  H
  H140     1.0000 0.31930  0.78900  0.36100  Biso   1.000  H
  H141     1.0000 0.81930  0.71100  0.86100  Biso   1.000  H
  H142     1.0000 0.18070  0.71100  0.63900  Biso   1.000  H
  H143     1.0000 0.31930  0.21100  0.86100  Biso   1.000  H
  H144     1.0000 0.68070  0.21100  0.63900  Biso   1.000  H
  C193     1.0000 0.70090  0.07370  0.23200  Biso   1.000  C
  C194     1.0000 0.29910  0.07370  0.26800  Biso   1.000  C
  C195     1.0000 0.20090  0.57370  0.23200  Biso   1.000  C
  C196     1.0000 0.79910  0.57370  0.26800  Biso   1.000  C
  C197     1.0000 0.29910  0.92630  0.76800  Biso   1.000  C
  C198     1.0000 0.70090  0.92630  0.73200  Biso   1.000  C
  C199     1.0000 0.79910  0.42630  0.76800  Biso   1.000  C
  C200     1.0000 0.20090  0.42630  0.73200  Biso   1.000  C
  H145     1.0000 0.70730  0.07010  0.28320  Biso   1.000  H
  H146     1.0000 0.29270  0.07010  0.21680  Biso   1.000  H
  H147     1.0000 0.20730  0.57010  0.28320  Biso   1.000  H
  H148     1.0000 0.79270  0.57010  0.21680  Biso   1.000  H
  H149     1.0000 0.29270  0.92990  0.71680  Biso   1.000  H
  H150     1.0000 0.70730  0.92990  0.78320  Biso   1.000  H
  H151     1.0000 0.79270  0.42990  0.71680  Biso   1.000  H
  H152     1.0000 0.20730  0.42990  0.78320  Biso   1.000  H
  H153     1.0000 0.68790  0.99630  0.21360  Biso   1.000  H
  H154     1.0000 0.31210  0.99630  0.28640  Biso   1.000  H
  H155     1.0000 0.18790  0.49630  0.21360  Biso   1.000  H
  H156     1.0000 0.81210  0.49630  0.28640  Biso   1.000  H
  H157     1.0000 0.31210  0.00370  0.78640  Biso   1.000  H
  H158     1.0000 0.68790  0.00370  0.71360  Biso   1.000  H
  H159     1.0000 0.81210  0.50370  0.78640  Biso   1.000  H
  H160     1.0000 0.18790  0.50370  0.71360  Biso   1.000  H
  H161     1.0000 0.67710  0.13730  0.21750  Biso   1.000  H
  H162     1.0000 0.32290  0.13730  0.28250  Biso   1.000  H
  H163     1.0000 0.17710  0.63730  0.21750  Biso   1.000  H
  H164     1.0000 0.82290  0.63730  0.28250  Biso   1.000  H
  H165     1.0000 0.32290  0.86270  0.78250  Biso   1.000  H
  H166     1.0000 0.67710  0.86270  0.71750  Biso   1.000  H
  H167     1.0000 0.82290  0.36270  0.78250  Biso   1.000  H
  H168     1.0000 0.17710  0.36270  0.71750  Biso   1.000  H
  C201     1.0000 0.75780  0.02430  0.14690  Biso   1.000  C
  C202     1.0000 0.24220  0.02430  0.35310  Biso   1.000  C
  C203     1.0000 0.25780  0.52430  0.14690  Biso   1.000  C
  C204     1.0000 0.74220  0.52430  0.35310  Biso   1.000  C
  C205     1.0000 0.24220  0.97570  0.85310  Biso   1.000  C
  C206     1.0000 0.75780  0.97570  0.64690  Biso   1.000  C
  C207     1.0000 0.74220  0.47570  0.85310  Biso   1.000  C
  C208     1.0000 0.25780  0.47570  0.64690  Biso   1.000  C
  H169     1.0000 0.78430  0.06130  0.12570  Biso   1.000  H
  H170     1.0000 0.21570  0.06130  0.37430  Biso   1.000  H
  H171     1.0000 0.28430  0.56130  0.12570  Biso   1.000  H
  H172     1.0000 0.71570  0.56130  0.37430  Biso   1.000  H
  H173     1.0000 0.21570  0.93870  0.87430  Biso   1.000  H
  H174     1.0000 0.78430  0.93870  0.62570  Biso   1.000  H
  H175     1.0000 0.71570  0.43870  0.87430  Biso   1.000  H
  H176     1.0000 0.28430  0.43870  0.62570  Biso   1.000  H
  H177     1.0000 0.72870  0.01670  0.11150  Biso   1.000  H
  H178     1.0000 0.27130  0.01670  0.38850  Biso   1.000  H
  H179     1.0000 0.22870  0.51670  0.11150  Biso   1.000  H
  H180     1.0000 0.77130  0.51670  0.38850  Biso   1.000  H
  H181     1.0000 0.27130  0.98330  0.88850  Biso   1.000  H
  H182     1.0000 0.72870  0.98330  0.61150  Biso   1.000  H
  H183     1.0000 0.77130  0.48330  0.88850  Biso   1.000  H
  H184     1.0000 0.22870  0.48330  0.61150  Biso   1.000  H
  H185     1.0000 0.76800  0.94440  0.16480  Biso   1.000  H
  H186     1.0000 0.23200  0.94440  0.33520  Biso   1.000  H
  H187     1.0000 0.26800  0.44440  0.16480  Biso   1.000  H
  H188     1.0000 0.73200  0.44440  0.33520  Biso   1.000  H
  H189     1.0000 0.23200  0.05560  0.83520  Biso   1.000  H
  H190     1.0000 0.76800  0.05560  0.66480  Biso   1.000  H
  H191     1.0000 0.73200  0.55560  0.83520  Biso   1.000  H
  H192     1.0000 0.26800  0.55560  0.66480  Biso   1.000  H
  C209     1.0000 0.77840  0.18220  0.23360  Biso   1.000  C
  C210     1.0000 0.22160  0.18220  0.26640  Biso   1.000  C
  C211     1.0000 0.27840  0.68220  0.23360  Biso   1.000  C
  C212     1.0000 0.72160  0.68220  0.26640  Biso   1.000  C
  C213     1.0000 0.22160  0.81780  0.76640  Biso   1.000  C
  C214     1.0000 0.77840  0.81780  0.73360  Biso   1.000  C
  C215     1.0000 0.72160  0.31780  0.76640  Biso   1.000  C
  C216     1.0000 0.27840  0.31780  0.73360  Biso   1.000  C
  H193     1.0000 0.80900  0.18730  0.21690  Biso   1.000  H
  H194     1.0000 0.19100  0.18730  0.28310  Biso   1.000  H
  H195     1.0000 0.30900  0.68730  0.21690  Biso   1.000  H
  H196     1.0000 0.69100  0.68730  0.28310  Biso   1.000  H
  H197     1.0000 0.19100  0.81270  0.78310  Biso   1.000  H
  H198     1.0000 0.80900  0.81270  0.71690  Biso   1.000  H
  H199     1.0000 0.69100  0.31270  0.78310  Biso   1.000  H
  H200     1.0000 0.30900  0.31270  0.71690  Biso   1.000  H
  N49      1.0000 0.74630  0.09960  0.20460  Biso   1.000  N
  N50      1.0000 0.25370  0.09960  0.29540  Biso   1.000  N
  N51      1.0000 0.24630  0.59960  0.20460  Biso   1.000  N
  N52      1.0000 0.75370  0.59960  0.29540  Biso   1.000  N
  N53      1.0000 0.25370  0.90040  0.79540  Biso   1.000  N
  N54      1.0000 0.74630  0.90040  0.70460  Biso   1.000  N
  N55      1.0000 0.75370  0.40040  0.79540  Biso   1.000  N
  N56      1.0000 0.24630  0.40040  0.70460  Biso   1.000  N
  O49      1.0000 0.77050  0.25410  0.28230  Biso   1.000  O
  O50      1.0000 0.22950  0.25410  0.21770  Biso   1.000  O
  O51      1.0000 0.27050  0.75410  0.28230  Biso   1.000  O
  O52      1.0000 0.72950  0.75410  0.21770  Biso   1.000  O
  O53      1.0000 0.22950  0.74590  0.71770  Biso   1.000  O
  O54      1.0000 0.77050  0.74590  0.78230  Biso   1.000  O
  O55      1.0000 0.72950  0.24590  0.71770  Biso   1.000  O
  O56      1.0000 0.27050  0.24590  0.78230  Biso   1.000  O
