data_image0
_cell_length_a       13.977
_cell_length_b       6.816
_cell_length_c       7.761
_cell_angle_alpha    90
_cell_angle_beta     123.241
_cell_angle_gamma    90

_symmetry_space_group_name_H-M    "P 1"
_symmetry_int_tables_number       1

loop_
  _symmetry_equiv_pos_as_xyz
  'x, y, z'

loop_
  _atom_site_label
  _atom_site_occupancy
  _atom_site_fract_x
  _atom_site_fract_y
  _atom_site_fract_z
  _atom_site_thermal_displace_type
  _atom_site_B_iso_or_equiv
  _atom_site_type_symbol
  Re1      1.0000 0.32409  0.00000  0.40555  Biso   1.000  Re
  Re2      1.0000 0.82409  0.50000  0.40555  Biso   1.000  Re
  Re3      1.0000 0.67592  0.00000  0.59445  Biso   1.000  Re
  Re4      1.0000 0.17591  0.50000  0.59445  Biso   1.000  Re
  O1       1.0000 0.44890  0.00000  0.64780  Biso   1.000  O
  O2       1.0000 0.94890  0.50000  0.64780  Biso   1.000  O
  O3       1.0000 0.55110  0.00000  0.35220  Biso   1.000  O
  O4       1.0000 0.05110  0.50000  0.35220  Biso   1.000  O
  O5       1.0000 0.31530  0.20560  0.26810  Biso   1.000  O
  O6       1.0000 0.81530  0.70560  0.26810  Biso   1.000  O
  O7       1.0000 0.68470  0.20560  0.73190  Biso   1.000  O
  O8       1.0000 0.18470  0.70560  0.73190  Biso   1.000  O
  O9       1.0000 0.68470  0.79440  0.73190  Biso   1.000  O
  O10      1.0000 0.18470  0.29440  0.73190  Biso   1.000  O
  O11      1.0000 0.31530  0.79440  0.26810  Biso   1.000  O
  O12      1.0000 0.81530  0.29440  0.26810  Biso   1.000  O
  O13      1.0000 0.21020  0.00000  0.42880  Biso   1.000  O
  O14      1.0000 0.71020  0.50000  0.42880  Biso   1.000  O
  O15      1.0000 0.78980  0.00000  0.57120  Biso   1.000  O
  O16      1.0000 0.28980  0.50000  0.57120  Biso   1.000  O
  Cu1      1.0000 0.50000  0.00000  0.00000  Biso   1.000  Cu
  Cu2      1.0000 0.00000  0.50000  0.00000  Biso   1.000  Cu
  N1       1.0000 0.50000  0.70310  0.00000  Biso   1.000  N
  N2       1.0000 0.00000  0.20310  0.00000  Biso   1.000  N
  N3       1.0000 0.50000  0.29690  0.00000  Biso   1.000  N
  N4       1.0000 0.00000  0.79690  0.00000  Biso   1.000  N
  C1       1.0000 0.53520  0.60180  0.89710  Biso   1.000  C
  C2       1.0000 0.03520  0.10180  0.89710  Biso   1.000  C
  C3       1.0000 0.46480  0.60180  0.10290  Biso   1.000  C
  C4       1.0000 0.96480  0.10180  0.10290  Biso   1.000  C
  C5       1.0000 0.46480  0.39820  0.10290  Biso   1.000  C
  C6       1.0000 0.96480  0.89820  0.10290  Biso   1.000  C
  C7       1.0000 0.53520  0.39820  0.89710  Biso   1.000  C
  C8       1.0000 0.03520  0.89820  0.89710  Biso   1.000  C
  H1       1.0000 0.56020  0.66900  0.82440  Biso   1.000  H
  H2       1.0000 0.06020  0.16900  0.82440  Biso   1.000  H
  H3       1.0000 0.43980  0.66900  0.17560  Biso   1.000  H
  H4       1.0000 0.93980  0.16900  0.17560  Biso   1.000  H
  H5       1.0000 0.43980  0.33100  0.17560  Biso   1.000  H
  H6       1.0000 0.93980  0.83100  0.17560  Biso   1.000  H
  H7       1.0000 0.56020  0.33100  0.82440  Biso   1.000  H
  H8       1.0000 0.06020  0.83100  0.82440  Biso   1.000  H
  O17      1.0000 0.33890  0.00000  0.91210  Biso   1.000  O
  O18      1.0000 0.83890  0.50000  0.91210  Biso   1.000  O
  O19      1.0000 0.66110  0.00000  0.08790  Biso   1.000  O
  O20      1.0000 0.16110  0.50000  0.08790  Biso   1.000  O
  H9       1.0000 0.29700  0.09600  0.86500  Biso   1.000  H
  H10      1.0000 0.79700  0.59600  0.86500  Biso   1.000  H
  H11      1.0000 0.70300  0.09600  0.13500  Biso   1.000  H
  H12      1.0000 0.20300  0.59600  0.13500  Biso   1.000  H
  H13      1.0000 0.70300  0.90400  0.13500  Biso   1.000  H
  H14      1.0000 0.20300  0.40400  0.13500  Biso   1.000  H
  H15      1.0000 0.29700  0.90400  0.86500  Biso   1.000  H
  H16      1.0000 0.79700  0.40400  0.86500  Biso   1.000  H
