data_image0
_cell_length_a       10.5264
_cell_length_b       12.9839
_cell_length_c       14.3384
_cell_angle_alpha    84.637
_cell_angle_beta     69.806
_cell_angle_gamma    85.307

_symmetry_space_group_name_H-M    "P 1"
_symmetry_int_tables_number       1

loop_
  _symmetry_equiv_pos_as_xyz
  'x, y, z'

loop_
  _atom_site_label
  _atom_site_occupancy
  _atom_site_fract_x
  _atom_site_fract_y
  _atom_site_fract_z
  _atom_site_thermal_displace_type
  _atom_site_B_iso_or_equiv
  _atom_site_type_symbol
  Cu1      1.0000 0.52249  0.54560  0.61928  Biso   1.000  Cu
  Cu2      1.0000 0.47751  0.45440  0.38072  Biso   1.000  Cu
  C1       1.0000 0.41260  0.73060  0.53520  Biso   1.000  C
  C2       1.0000 0.58740  0.26940  0.46480  Biso   1.000  C
  C3       1.0000 0.30210  0.80500  0.54300  Biso   1.000  C
  C4       1.0000 0.69790  0.19500  0.45700  Biso   1.000  C
  C5       1.0000 0.32370  0.90040  0.48610  Biso   1.000  C
  C6       1.0000 0.67630  0.09960  0.51390  Biso   1.000  C
  H1       1.0000 0.24890  0.94890  0.49290  Biso   1.000  H
  H2       1.0000 0.75110  0.05110  0.50710  Biso   1.000  H
  C7       1.0000 0.44930  0.92580  0.42080  Biso   1.000  C
  C8       1.0000 0.55070  0.07420  0.57920  Biso   1.000  C
  C9       1.0000 0.55620  0.85440  0.41440  Biso   1.000  C
  C10      1.0000 0.44380  0.14560  0.58560  Biso   1.000  C
  H3       1.0000 0.64380  0.87090  0.37020  Biso   1.000  H
  H4       1.0000 0.35620  0.12910  0.62980  Biso   1.000  H
  C11      1.0000 0.54170  0.75850  0.47000  Biso   1.000  C
  C12      1.0000 0.45830  0.24150  0.53000  Biso   1.000  C
  C13      1.0000 0.66300  0.69110  0.45550  Biso   1.000  C
  C14      1.0000 0.33700  0.30890  0.54450  Biso   1.000  C
  H5       1.0000 0.74420  0.71220  0.40510  Biso   1.000  H
  H6       1.0000 0.25580  0.28780  0.59490  Biso   1.000  H
  C15      1.0000 0.79420  0.53980  0.47950  Biso   1.000  C
  C16      1.0000 0.20580  0.46020  0.52050  Biso   1.000  C
  H7       1.0000 0.87340  0.58280  0.44810  Biso   1.000  H
  H8       1.0000 0.12660  0.41720  0.55190  Biso   1.000  H
  H9       1.0000 0.79380  0.48910  0.43210  Biso   1.000  H
  H10      1.0000 0.20620  0.51090  0.56790  Biso   1.000  H
  C17      1.0000 0.80150  0.48390  0.57550  Biso   1.000  C
  C18      1.0000 0.19850  0.51610  0.42450  Biso   1.000  C
  H11      1.0000 0.86900  0.42450  0.56070  Biso   1.000  H
  H12      1.0000 0.13100  0.57550  0.43930  Biso   1.000  H
  H13      1.0000 0.82860  0.53160  0.61440  Biso   1.000  H
  H14      1.0000 0.17140  0.46840  0.38560  Biso   1.000  H
  C19      1.0000 0.65060  0.35830  0.68220  Biso   1.000  C
  C20      1.0000 0.34940  0.64170  0.31780  Biso   1.000  C
  H15      1.0000 0.73000  0.31690  0.68050  Biso   1.000  H
  H16      1.0000 0.27000  0.68310  0.31950  Biso   1.000  H
  C21      1.0000 0.52250  0.31780  0.74020  Biso   1.000  C
  C22      1.0000 0.47750  0.68220  0.25980  Biso   1.000  C
  C23      1.0000 0.52620  0.22010  0.79330  Biso   1.000  C
  C24      1.0000 0.47380  0.77990  0.20670  Biso   1.000  C
  H17      1.0000 0.61170  0.18810  0.79050  Biso   1.000  H
  H18      1.0000 0.38830  0.81190  0.20950  Biso   1.000  H
  C25      1.0000 0.41120  0.17040  0.84840  Biso   1.000  C
  C26      1.0000 0.58880  0.82960  0.15160  Biso   1.000  C
  C27      1.0000 0.28860  0.21680  0.84740  Biso   1.000  C
  C28      1.0000 0.71140  0.78320  0.15260  Biso   1.000  C
  H19      1.0000 0.20820  0.18170  0.88250  Biso   1.000  H
  H20      1.0000 0.79180  0.81830  0.11750  Biso   1.000  H
  C29      1.0000 0.27720  0.31290  0.79710  Biso   1.000  C
  C30      1.0000 0.72280  0.68710  0.20290  Biso   1.000  C
  C31      1.0000 0.39400  0.36700  0.74390  Biso   1.000  C
  C32      1.0000 0.60600  0.63300  0.25610  Biso   1.000  C
  C33      1.0000 0.41730  0.06820  0.90810  Biso   1.000  C
  C34      1.0000 0.58270  0.93180  0.09190  Biso   1.000  C
  H21      1.0000 0.50480  0.03110  0.87740  Biso   1.000  H
  H22      1.0000 0.49520  0.96890  0.12260  Biso   1.000  H
  H23      1.0000 0.34390  0.02600  0.90910  Biso   1.000  H
  H24      1.0000 0.65610  0.97400  0.09090  Biso   1.000  H
  H25      1.0000 0.40740  0.08170  0.97650  Biso   1.000  H
  H26      1.0000 0.59260  0.91830  0.02350  Biso   1.000  H
  C35      1.0000 0.14390  0.35590  0.79640  Biso   1.000  C
  C36      1.0000 0.85610  0.64410  0.20360  Biso   1.000  C
  H27      1.0000 0.13970  0.41910  0.75830  Biso   1.000  H
  H28      1.0000 0.86030  0.58090  0.24170  Biso   1.000  H
  C37      1.0000 0.90840  0.35860  0.83420  Biso   1.000  C
  C38      1.0000 0.09160  0.64140  0.16580  Biso   1.000  C
  H29      1.0000 0.86870  0.30920  0.80480  Biso   1.000  H
  H30      1.0000 0.13130  0.69080  0.19520  Biso   1.000  H
  H31      1.0000 0.92680  0.42220  0.78900  Biso   1.000  H
  H32      1.0000 0.07320  0.57780  0.21100  Biso   1.000  H
  C39      1.0000 0.80870  0.38480  0.93480  Biso   1.000  C
  C40      1.0000 0.19130  0.61520  0.06520  Biso   1.000  C
  H33      1.0000 0.71610  0.39230  0.93120  Biso   1.000  H
  H34      1.0000 0.28390  0.60770  0.06880  Biso   1.000  H
  H35      1.0000 0.81070  0.32700  0.98460  Biso   1.000  H
  H36      1.0000 0.18930  0.67300  0.01540  Biso   1.000  H
  C41      1.0000 0.83970  0.48350  0.96890  Biso   1.000  C
  C42      1.0000 0.16030  0.51650  0.03110  Biso   1.000  C
  H37      1.0000 0.79530  0.48450  0.04200  Biso   1.000  H
  H38      1.0000 0.20470  0.51550  0.95800  Biso   1.000  H
  H39      1.0000 0.93870  0.48500  0.95370  Biso   1.000  H
  H40      1.0000 0.06130  0.51500  0.04630  Biso   1.000  H
  C43      1.0000 0.86520  0.66640  0.92110  Biso   1.000  C
  C44      1.0000 0.13480  0.33360  0.07890  Biso   1.000  C
  H41      1.0000 0.87400  0.66690  0.98750  Biso   1.000  H
  H42      1.0000 0.12600  0.33310  0.01250  Biso   1.000  H
  H43      1.0000 0.81090  0.72970  0.91120  Biso   1.000  H
  H44      1.0000 0.18910  0.27030  0.08880  Biso   1.000  H
  C45      1.0000 0.00580  0.67040  0.84230  Biso   1.000  C
  C46      1.0000 0.99420  0.32960  0.15770  Biso   1.000  C
  H45      1.0000 0.05240  0.72890  0.85330  Biso   1.000  H
  H46      1.0000 0.94760  0.27110  0.14670  Biso   1.000  H
  H47      1.0000 0.05910  0.60570  0.84980  Biso   1.000  H
  H48      1.0000 0.94090  0.39430  0.15020  Biso   1.000  H
  C47      1.0000 0.00180  0.68330  0.73750  Biso   1.000  C
  C48      1.0000 0.99820  0.31670  0.26250  Biso   1.000  C
  H49      1.0000 0.96790  0.62020  0.72230  Biso   1.000  H
  H50      1.0000 0.03210  0.37980  0.27770  Biso   1.000  H
  H51      1.0000 0.93890  0.74260  0.73190  Biso   1.000  H
  H52      1.0000 0.06110  0.25740  0.26810  Biso   1.000  H
  C49      1.0000 0.16960  0.78610  0.60950  Biso   1.000  C
  C50      1.0000 0.83040  0.21390  0.39050  Biso   1.000  C
  H53      1.0000 0.10030  0.83890  0.61300  Biso   1.000  H
  H54      1.0000 0.89970  0.16110  0.38700  Biso   1.000  H
  C51      1.0000 0.64600  0.59710  0.97000  Biso   1.000  C
  C52      1.0000 0.35400  0.40290  0.03000  Biso   1.000  C
  H55      1.0000 0.63200  0.64130  0.02580  Biso   1.000  H
  H56      1.0000 0.36800  0.35870  0.97420  Biso   1.000  H
  H57      1.0000 0.60350  0.53080  0.99840  Biso   1.000  H
  H58      1.0000 0.39650  0.46920  0.00160  Biso   1.000  H
  C53      1.0000 0.57710  0.64980  0.90130  Biso   1.000  C
  C54      1.0000 0.42290  0.35020  0.09870  Biso   1.000  C
  C55      1.0000 0.49370  0.73940  0.92330  Biso   1.000  C
  C56      1.0000 0.50630  0.26060  0.07670  Biso   1.000  C
  H59      1.0000 0.48400  0.77340  0.98140  Biso   1.000  H
  H60      1.0000 0.51600  0.22660  0.01860  Biso   1.000  H
  C57      1.0000 0.42490  0.77860  0.85980  Biso   1.000  C
  C58      1.0000 0.57510  0.22140  0.14020  Biso   1.000  C
  H61      1.0000 0.36650  0.83920  0.87420  Biso   1.000  H
  H62      1.0000 0.63350  0.16080  0.12580  Biso   1.000  H
  C59      1.0000 0.44260  0.72880  0.77590  Biso   1.000  C
  C60      1.0000 0.55740  0.27120  0.22410  Biso   1.000  C
  H63      1.0000 0.39510  0.75650  0.73280  Biso   1.000  H
  H64      1.0000 0.60490  0.24350  0.26720  Biso   1.000  H
  C61      1.0000 0.58900  0.60590  0.81360  Biso   1.000  C
  C62      1.0000 0.41100  0.39410  0.18640  Biso   1.000  C
  H65      1.0000 0.64750  0.54570  0.79680  Biso   1.000  H
  H66      1.0000 0.35250  0.45430  0.20320  Biso   1.000  H
  C63      1.0000 0.47030  0.02800  0.35860  Biso   1.000  C
  C64      1.0000 0.52970  0.97200  0.64140  Biso   1.000  C
  H67      1.0000 0.43300  0.02630  0.30500  Biso   1.000  H
  H68      1.0000 0.56700  0.97370  0.69500  Biso   1.000  H
  H69      1.0000 0.56750  0.03940  0.32980  Biso   1.000  H
  H70      1.0000 0.43250  0.96060  0.67020  Biso   1.000  H
  H71      1.0000 0.42420  0.08440  0.40080  Biso   1.000  H
  H72      1.0000 0.57580  0.91560  0.59920  Biso   1.000  H
  O1       1.0000 0.38850  0.64170  0.58870  Biso   1.000  O
  O2       1.0000 0.61150  0.35830  0.41130  Biso   1.000  O
  O3       1.0000 0.38080  0.45870  0.69920  Biso   1.000  O
  O4       1.0000 0.61920  0.54130  0.30080  Biso   1.000  O
  N1       1.0000 0.66780  0.60550  0.50570  Biso   1.000  N
  N2       1.0000 0.33220  0.39450  0.49430  Biso   1.000  N
  N3       1.0000 0.66580  0.44750  0.63190  Biso   1.000  N
  N4       1.0000 0.33420  0.55250  0.36810  Biso   1.000  N
  N5       1.0000 0.03530  0.31280  0.84390  Biso   1.000  N
  N6       1.0000 0.96470  0.68720  0.15610  Biso   1.000  N
  N7       1.0000 0.79220  0.57650  0.92000  Biso   1.000  N
  N8       1.0000 0.20780  0.42350  0.08000  Biso   1.000  N
  N9       1.0000 0.13660  0.70120  0.66620  Biso   1.000  N
  N10      1.0000 0.86340  0.29880  0.33380  Biso   1.000  N
  H73      1.0000 0.20000  0.65130  0.66100  Biso   1.000  H
  H74      1.0000 0.80000  0.34870  0.33900  Biso   1.000  H
  N11      1.0000 0.52360  0.64270  0.75090  Biso   1.000  N
  N12      1.0000 0.47640  0.35730  0.24910  Biso   1.000  N
  C65      1.0000 0.93500  0.06010  0.86470  Biso   1.000  C
  C66      1.0000 0.06500  0.93990  0.13530  Biso   1.000  C
  H75      1.0000 0.85450  0.02310  0.87140  Biso   1.000  H
  H76      1.0000 0.14550  0.97690  0.12860  Biso   1.000  H
  H77      1.0000 0.95450  0.10970  0.80630  Biso   1.000  H
  H78      1.0000 0.04550  0.89030  0.19370  Biso   1.000  H
  H79      1.0000 0.91860  0.09730  0.92450  Biso   1.000  H
  H80      1.0000 0.08140  0.90270  0.07550  Biso   1.000  H
  C67      1.0000 0.05610  0.98230  0.85200  Biso   1.000  C
  C68      1.0000 0.94390  0.01770  0.14800  Biso   1.000  C
  N13      1.0000 0.14790  0.92680  0.82130  Biso   1.000  N
  N14      1.0000 0.85210  0.07320  0.17870  Biso   1.000  N
  Cl1      1.0000 0.97130  0.80970  0.43900  Biso   1.000  Cl
  Cl2      1.0000 0.02870  0.19030  0.56100  Biso   1.000  Cl
  O5       1.0000 0.10050  0.85830  0.41350  Biso   1.000  O
  O6       1.0000 0.89950  0.14170  0.58650  Biso   1.000  O
  O7       1.0000 0.86520  0.88190  0.44170  Biso   1.000  O
  O8       1.0000 0.13480  0.11810  0.55830  Biso   1.000  O
  O9       1.0000 0.94440  0.74040  0.52780  Biso   1.000  O
  O10      1.0000 0.05560  0.25960  0.47220  Biso   1.000  O
  O11      1.0000 0.98940  0.74140  0.35950  Biso   1.000  O
  O12      1.0000 0.01060  0.25860  0.64050  Biso   1.000  O
  Cl3      1.0000 0.99400  0.84150  0.41190  Biso   1.000  Cl
  Cl4      1.0000 0.00600  0.15850  0.58810  Biso   1.000  Cl
  O13      1.0000 0.89650  0.86660  0.36390  Biso   1.000  O
  O14      1.0000 0.10350  0.13340  0.63610  Biso   1.000  O
  O15      1.0000 0.13200  0.86150  0.33930  Biso   1.000  O
  O16      1.0000 0.86800  0.13850  0.66070  Biso   1.000  O
  O17      1.0000 0.99500  0.73520  0.45600  Biso   1.000  O
  O18      1.0000 0.00500  0.26480  0.54400  Biso   1.000  O
  O19      1.0000 0.97560  0.91660  0.48960  Biso   1.000  O
  O20      1.0000 0.02440  0.08340  0.51040  Biso   1.000  O
  O21      1.0000 0.15530  0.07420  0.30560  Biso   1.000  O
  O22      1.0000 0.84470  0.92580  0.69440  Biso   1.000  O
  H81      1.0000 0.14260  0.00980  0.31000  Biso   1.000  H
  H82      1.0000 0.85740  0.99020  0.69000  Biso   1.000  H
  H83      1.0000 0.15760  0.08950  0.36140  Biso   1.000  H
  H84      1.0000 0.84240  0.91050  0.63860  Biso   1.000  H
