data_image0
_cell_length_a       22.241
_cell_length_b       8.9299
_cell_length_c       21.092
_cell_angle_alpha    90
_cell_angle_beta     116.253
_cell_angle_gamma    90

_symmetry_space_group_name_H-M    "P 1"
_symmetry_int_tables_number       1

loop_
  _symmetry_equiv_pos_as_xyz
  'x, y, z'

loop_
  _atom_site_label
  _atom_site_occupancy
  _atom_site_fract_x
  _atom_site_fract_y
  _atom_site_fract_z
  _atom_site_thermal_displace_type
  _atom_site_B_iso_or_equiv
  _atom_site_type_symbol
  Cu1      1.0000 0.22476  0.61050  0.20149  Biso   1.000  Cu
  Cu2      1.0000 0.77524  0.61050  0.29851  Biso   1.000  Cu
  Cu3      1.0000 0.72476  0.11050  0.20149  Biso   1.000  Cu
  Cu4      1.0000 0.27524  0.11050  0.29851  Biso   1.000  Cu
  Cu5      1.0000 0.77524  0.38950  0.79851  Biso   1.000  Cu
  Cu6      1.0000 0.22476  0.38950  0.70149  Biso   1.000  Cu
  Cu7      1.0000 0.27524  0.88950  0.79851  Biso   1.000  Cu
  Cu8      1.0000 0.72476  0.88950  0.70149  Biso   1.000  Cu
  O1       1.0000 0.22805  0.57020  0.11219  Biso   1.000  O
  O2       1.0000 0.77195  0.57020  0.38781  Biso   1.000  O
  O3       1.0000 0.72805  0.07020  0.11219  Biso   1.000  O
  O4       1.0000 0.27195  0.07020  0.38781  Biso   1.000  O
  O5       1.0000 0.77195  0.42980  0.88781  Biso   1.000  O
  O6       1.0000 0.22805  0.42980  0.61219  Biso   1.000  O
  O7       1.0000 0.27195  0.92980  0.88781  Biso   1.000  O
  O8       1.0000 0.72805  0.92980  0.61219  Biso   1.000  O
  O9       1.0000 0.14941  0.39140  0.07869  Biso   1.000  O
  O10      1.0000 0.85059  0.39140  0.42131  Biso   1.000  O
  O11      1.0000 0.64941  0.89140  0.07869  Biso   1.000  O
  O12      1.0000 0.35059  0.89140  0.42131  Biso   1.000  O
  O13      1.0000 0.85059  0.60860  0.92131  Biso   1.000  O
  O14      1.0000 0.14941  0.60860  0.57869  Biso   1.000  O
  O15      1.0000 0.35059  0.10860  0.92131  Biso   1.000  O
  O16      1.0000 0.64941  0.10860  0.57869  Biso   1.000  O
  O17      1.0000 0.21687  0.41210  0.78988  Biso   1.000  O
  O18      1.0000 0.78313  0.41210  0.71012  Biso   1.000  O
  O19      1.0000 0.71687  0.91210  0.78988  Biso   1.000  O
  O20      1.0000 0.28313  0.91210  0.71012  Biso   1.000  O
  O21      1.0000 0.78313  0.58790  0.21012  Biso   1.000  O
  O22      1.0000 0.21687  0.58790  0.28988  Biso   1.000  O
  O23      1.0000 0.28313  0.08790  0.21012  Biso   1.000  O
  O24      1.0000 0.71687  0.08790  0.28988  Biso   1.000  O
  O25      1.0000 0.24964  0.64570  0.78811  Biso   1.000  O
  O26      1.0000 0.75036  0.64570  0.71189  Biso   1.000  O
  O27      1.0000 0.74964  0.14570  0.78811  Biso   1.000  O
  O28      1.0000 0.25036  0.14570  0.71189  Biso   1.000  O
  O29      1.0000 0.75036  0.35430  0.21189  Biso   1.000  O
  O30      1.0000 0.24964  0.35430  0.28811  Biso   1.000  O
  O31      1.0000 0.25036  0.85430  0.21189  Biso   1.000  O
  O32      1.0000 0.74964  0.85430  0.28811  Biso   1.000  O
  O33      1.0000 0.55675  0.58240  0.47267  Biso   1.000  O
  O34      1.0000 0.44325  0.58240  0.02733  Biso   1.000  O
  O35      1.0000 0.05675  0.08240  0.47267  Biso   1.000  O
  O36      1.0000 0.94325  0.08240  0.02733  Biso   1.000  O
  O37      1.0000 0.44325  0.41760  0.52733  Biso   1.000  O
  O38      1.0000 0.55675  0.41760  0.97267  Biso   1.000  O
  O39      1.0000 0.94325  0.91760  0.52733  Biso   1.000  O
  O40      1.0000 0.05675  0.91760  0.97267  Biso   1.000  O
  N1       1.0000 0.62475  0.84800  0.64945  Biso   1.000  N
  N2       1.0000 0.37525  0.84800  0.85055  Biso   1.000  N
  N3       1.0000 0.12475  0.34800  0.64945  Biso   1.000  N
  N4       1.0000 0.87525  0.34800  0.85055  Biso   1.000  N
  N5       1.0000 0.37525  0.15200  0.35055  Biso   1.000  N
  N6       1.0000 0.62475  0.15200  0.14945  Biso   1.000  N
  N7       1.0000 0.87525  0.65200  0.35055  Biso   1.000  N
  N8       1.0000 0.12475  0.65200  0.14945  Biso   1.000  N
  N9       1.0000 0.32508  0.57590  0.25337  Biso   1.000  N
  N10      1.0000 0.67492  0.57590  0.24663  Biso   1.000  N
  N11      1.0000 0.82508  0.07590  0.25337  Biso   1.000  N
  N12      1.0000 0.17492  0.07590  0.24663  Biso   1.000  N
  N13      1.0000 0.67492  0.42410  0.74663  Biso   1.000  N
  N14      1.0000 0.32508  0.42410  0.75337  Biso   1.000  N
  N15      1.0000 0.17492  0.92410  0.74663  Biso   1.000  N
  N16      1.0000 0.82508  0.92410  0.75337  Biso   1.000  N
  N17      1.0000 0.45534  0.69680  0.42330  Biso   1.000  N
  N18      1.0000 0.54466  0.69680  0.07670  Biso   1.000  N
  N19      1.0000 0.95534  0.19680  0.42330  Biso   1.000  N
  N20      1.0000 0.04466  0.19680  0.07670  Biso   1.000  N
  N21      1.0000 0.54466  0.30320  0.57670  Biso   1.000  N
  N22      1.0000 0.45534  0.30320  0.92330  Biso   1.000  N
  N23      1.0000 0.04466  0.80320  0.57670  Biso   1.000  N
  N24      1.0000 0.95534  0.80320  0.92330  Biso   1.000  N
  H1       1.0000 0.43640  0.76400  0.44000  Biso   1.000  H
  H2       1.0000 0.56360  0.76400  0.06000  Biso   1.000  H
  H3       1.0000 0.93640  0.26400  0.44000  Biso   1.000  H
  H4       1.0000 0.06360  0.26400  0.06000  Biso   1.000  H
  H5       1.0000 0.56360  0.23600  0.56000  Biso   1.000  H
  H6       1.0000 0.43640  0.23600  0.94000  Biso   1.000  H
  H7       1.0000 0.06360  0.73600  0.56000  Biso   1.000  H
  H8       1.0000 0.93640  0.73600  0.94000  Biso   1.000  H
  C1       1.0000 0.48829  0.82820  0.56257  Biso   1.000  C
  C2       1.0000 0.51171  0.82820  0.93743  Biso   1.000  C
  C3       1.0000 0.98829  0.32820  0.56257  Biso   1.000  C
  C4       1.0000 0.01171  0.32820  0.93743  Biso   1.000  C
  C5       1.0000 0.51171  0.17180  0.43743  Biso   1.000  C
  C6       1.0000 0.48829  0.17180  0.06257  Biso   1.000  C
  C7       1.0000 0.01171  0.67180  0.43743  Biso   1.000  C
  C8       1.0000 0.98829  0.67180  0.06257  Biso   1.000  C
  H9       1.0000 0.44150  0.82300  0.53260  Biso   1.000  H
  H10      1.0000 0.55850  0.82300  0.96740  Biso   1.000  H
  H11      1.0000 0.94150  0.32300  0.53260  Biso   1.000  H
  H12      1.0000 0.05850  0.32300  0.96740  Biso   1.000  H
  H13      1.0000 0.55850  0.17700  0.46740  Biso   1.000  H
  H14      1.0000 0.44150  0.17700  0.03260  Biso   1.000  H
  H15      1.0000 0.05850  0.67700  0.46740  Biso   1.000  H
  H16      1.0000 0.94150  0.67700  0.03260  Biso   1.000  H
  C9       1.0000 0.60091  0.77100  0.58885  Biso   1.000  C
  C10      1.0000 0.39909  0.77100  0.91115  Biso   1.000  C
  C11      1.0000 0.10091  0.27100  0.58885  Biso   1.000  C
  C12      1.0000 0.89909  0.27100  0.91115  Biso   1.000  C
  C13      1.0000 0.39909  0.22900  0.41115  Biso   1.000  C
  C14      1.0000 0.60091  0.22900  0.08885  Biso   1.000  C
  C15      1.0000 0.89909  0.72900  0.41115  Biso   1.000  C
  C16      1.0000 0.10091  0.72900  0.08885  Biso   1.000  C
  H17      1.0000 0.63190  0.72160  0.57630  Biso   1.000  H
  H18      1.0000 0.36810  0.72160  0.92370  Biso   1.000  H
  H19      1.0000 0.13190  0.22160  0.57630  Biso   1.000  H
  H20      1.0000 0.86810  0.22160  0.92370  Biso   1.000  H
  H21      1.0000 0.36810  0.27840  0.42370  Biso   1.000  H
  H22      1.0000 0.63190  0.27840  0.07630  Biso   1.000  H
  H23      1.0000 0.86810  0.77840  0.42370  Biso   1.000  H
  H24      1.0000 0.13190  0.77840  0.07630  Biso   1.000  H
  C17      1.0000 0.53355  0.75990  0.54366  Biso   1.000  C
  C18      1.0000 0.46645  0.75990  0.95634  Biso   1.000  C
  C19      1.0000 0.03355  0.25990  0.54366  Biso   1.000  C
  C20      1.0000 0.96645  0.25990  0.95634  Biso   1.000  C
  C21      1.0000 0.46645  0.24010  0.45634  Biso   1.000  C
  C22      1.0000 0.53355  0.24010  0.04366  Biso   1.000  C
  C23      1.0000 0.96645  0.74010  0.45634  Biso   1.000  C
  C24      1.0000 0.03355  0.74010  0.04366  Biso   1.000  C
  C25      1.0000 0.27302  0.44310  0.94097  Biso   1.000  C
  C26      1.0000 0.72698  0.44310  0.55903  Biso   1.000  C
  C27      1.0000 0.77302  0.94310  0.94097  Biso   1.000  C
  C28      1.0000 0.22698  0.94310  0.55903  Biso   1.000  C
  C29      1.0000 0.72698  0.55690  0.05903  Biso   1.000  C
  C30      1.0000 0.27302  0.55690  0.44097  Biso   1.000  C
  C31      1.0000 0.22698  0.05690  0.05903  Biso   1.000  C
  C32      1.0000 0.77302  0.05690  0.44097  Biso   1.000  C
  H25      1.0000 0.25530  0.34370  0.92030  Biso   1.000  H
  H26      1.0000 0.74470  0.34370  0.57970  Biso   1.000  H
  H27      1.0000 0.75530  0.84370  0.92030  Biso   1.000  H
  H28      1.0000 0.24470  0.84370  0.57970  Biso   1.000  H
  H29      1.0000 0.74470  0.65630  0.07970  Biso   1.000  H
  H30      1.0000 0.25530  0.65630  0.42030  Biso   1.000  H
  H31      1.0000 0.24470  0.15630  0.07970  Biso   1.000  H
  H32      1.0000 0.75530  0.15630  0.42030  Biso   1.000  H
  H33      1.0000 0.32050  0.44820  0.94960  Biso   1.000  H
  H34      1.0000 0.67950  0.44820  0.55040  Biso   1.000  H
  H35      1.0000 0.82050  0.94820  0.94960  Biso   1.000  H
  H36      1.0000 0.17950  0.94820  0.55040  Biso   1.000  H
  H37      1.0000 0.67950  0.55180  0.05040  Biso   1.000  H
  H38      1.0000 0.32050  0.55180  0.44960  Biso   1.000  H
  H39      1.0000 0.17950  0.05180  0.05040  Biso   1.000  H
  H40      1.0000 0.82050  0.05180  0.44960  Biso   1.000  H
  C33      1.0000 0.23307  0.56540  0.88850  Biso   1.000  C
  C34      1.0000 0.76693  0.56540  0.61150  Biso   1.000  C
  C35      1.0000 0.73307  0.06540  0.88850  Biso   1.000  C
  C36      1.0000 0.26693  0.06540  0.61150  Biso   1.000  C
  C37      1.0000 0.76693  0.43460  0.11150  Biso   1.000  C
  C38      1.0000 0.23307  0.43460  0.38850  Biso   1.000  C
  C39      1.0000 0.26693  0.93460  0.11150  Biso   1.000  C
  C40      1.0000 0.73307  0.93460  0.38850  Biso   1.000  C
  H41      1.0000 0.25470  0.66390  0.90810  Biso   1.000  H
  H42      1.0000 0.74530  0.66390  0.59190  Biso   1.000  H
  H43      1.0000 0.75470  0.16390  0.90810  Biso   1.000  H
  H44      1.0000 0.24530  0.16390  0.59190  Biso   1.000  H
  H45      1.0000 0.74530  0.33610  0.09190  Biso   1.000  H
  H46      1.0000 0.25470  0.33610  0.40810  Biso   1.000  H
  H47      1.0000 0.24530  0.83610  0.09190  Biso   1.000  H
  H48      1.0000 0.75470  0.83610  0.40810  Biso   1.000  H
  C41      1.0000 0.16047  0.57100  0.87870  Biso   1.000  C
  C42      1.0000 0.83953  0.57100  0.62130  Biso   1.000  C
  C43      1.0000 0.66047  0.07100  0.87870  Biso   1.000  C
  C44      1.0000 0.33953  0.07100  0.62130  Biso   1.000  C
  C45      1.0000 0.83953  0.42900  0.12130  Biso   1.000  C
  C46      1.0000 0.16047  0.42900  0.37870  Biso   1.000  C
  C47      1.0000 0.33953  0.92900  0.12130  Biso   1.000  C
  C48      1.0000 0.66047  0.92900  0.37870  Biso   1.000  C
  H49      1.0000 0.13690  0.65630  0.84770  Biso   1.000  H
  H50      1.0000 0.86310  0.65630  0.65230  Biso   1.000  H
  H51      1.0000 0.63690  0.15630  0.84770  Biso   1.000  H
  H52      1.0000 0.36310  0.15630  0.65230  Biso   1.000  H
  H53      1.0000 0.86310  0.34370  0.15230  Biso   1.000  H
  H54      1.0000 0.13690  0.34370  0.34770  Biso   1.000  H
  H55      1.0000 0.36310  0.84370  0.15230  Biso   1.000  H
  H56      1.0000 0.63690  0.84370  0.34770  Biso   1.000  H
  H57      1.0000 0.13690  0.47780  0.85540  Biso   1.000  H
  H58      1.0000 0.86310  0.47780  0.64460  Biso   1.000  H
  H59      1.0000 0.63690  0.97780  0.85540  Biso   1.000  H
  H60      1.0000 0.36310  0.97780  0.64460  Biso   1.000  H
  H61      1.0000 0.86310  0.52220  0.14460  Biso   1.000  H
  H62      1.0000 0.13690  0.52220  0.35540  Biso   1.000  H
  H63      1.0000 0.36310  0.02220  0.14460  Biso   1.000  H
  H64      1.0000 0.63690  0.02220  0.35540  Biso   1.000  H
  C49      1.0000 0.23377  0.54280  0.81726  Biso   1.000  C
  C50      1.0000 0.76623  0.54280  0.68274  Biso   1.000  C
  C51      1.0000 0.73377  0.04280  0.81726  Biso   1.000  C
  C52      1.0000 0.26623  0.04280  0.68274  Biso   1.000  C
  C53      1.0000 0.76623  0.45720  0.18274  Biso   1.000  C
  C54      1.0000 0.23377  0.45720  0.31726  Biso   1.000  C
  C55      1.0000 0.26623  0.95720  0.18274  Biso   1.000  C
  C56      1.0000 0.73377  0.95720  0.31726  Biso   1.000  C
  C57      1.0000 0.19635  0.46020  0.99984  Biso   1.000  C
  C58      1.0000 0.80365  0.46020  0.50016  Biso   1.000  C
  C59      1.0000 0.69635  0.96020  0.99984  Biso   1.000  C
  C60      1.0000 0.30365  0.96020  0.50016  Biso   1.000  C
  C61      1.0000 0.80365  0.53980  0.00016  Biso   1.000  C
  C62      1.0000 0.19635  0.53980  0.49984  Biso   1.000  C
  C63      1.0000 0.30365  0.03980  0.00016  Biso   1.000  C
  C64      1.0000 0.69635  0.03980  0.49984  Biso   1.000  C
  H65      1.0000 0.17530  0.36380  0.97650  Biso   1.000  H
  H66      1.0000 0.82470  0.36380  0.52350  Biso   1.000  H
  H67      1.0000 0.67530  0.86380  0.97650  Biso   1.000  H
  H68      1.0000 0.32470  0.86380  0.52350  Biso   1.000  H
  H69      1.0000 0.82470  0.63620  0.02350  Biso   1.000  H
  H70      1.0000 0.17530  0.63620  0.47650  Biso   1.000  H
  H71      1.0000 0.32470  0.13620  0.02350  Biso   1.000  H
  H72      1.0000 0.67530  0.13620  0.47650  Biso   1.000  H
  C65      1.0000 0.19015  0.47160  0.06874  Biso   1.000  C
  C66      1.0000 0.80985  0.47160  0.43126  Biso   1.000  C
  C67      1.0000 0.69015  0.97160  0.06874  Biso   1.000  C
  C68      1.0000 0.30985  0.97160  0.43126  Biso   1.000  C
  C69      1.0000 0.80985  0.52840  0.93126  Biso   1.000  C
  C70      1.0000 0.19015  0.52840  0.56874  Biso   1.000  C
  C71      1.0000 0.30985  0.02840  0.93126  Biso   1.000  C
  C72      1.0000 0.69015  0.02840  0.56874  Biso   1.000  C
  C73      1.0000 0.51252  0.90460  0.62629  Biso   1.000  C
  C74      1.0000 0.48748  0.90460  0.87371  Biso   1.000  C
  C75      1.0000 0.01252  0.40460  0.62629  Biso   1.000  C
  C76      1.0000 0.98748  0.40460  0.87371  Biso   1.000  C
  C77      1.0000 0.48748  0.09540  0.37371  Biso   1.000  C
  C78      1.0000 0.51252  0.09540  0.12629  Biso   1.000  C
  C79      1.0000 0.98748  0.59540  0.37371  Biso   1.000  C
  C80      1.0000 0.01252  0.59540  0.12629  Biso   1.000  C
  H73      1.0000 0.48240  0.95120  0.64100  Biso   1.000  H
  H74      1.0000 0.51760  0.95120  0.85900  Biso   1.000  H
  H75      1.0000 0.98240  0.45120  0.64100  Biso   1.000  H
  H76      1.0000 0.01760  0.45120  0.85900  Biso   1.000  H
  H77      1.0000 0.51760  0.04880  0.35900  Biso   1.000  H
  H78      1.0000 0.48240  0.04880  0.14100  Biso   1.000  H
  H79      1.0000 0.01760  0.54880  0.35900  Biso   1.000  H
  H80      1.0000 0.98240  0.54880  0.14100  Biso   1.000  H
  C81      1.0000 0.15826  0.58830  0.94977  Biso   1.000  C
  C82      1.0000 0.84174  0.58830  0.55023  Biso   1.000  C
  C83      1.0000 0.65826  0.08830  0.94977  Biso   1.000  C
  C84      1.0000 0.34174  0.08830  0.55023  Biso   1.000  C
  C85      1.0000 0.84174  0.41170  0.05023  Biso   1.000  C
  C86      1.0000 0.15826  0.41170  0.44977  Biso   1.000  C
  C87      1.0000 0.34174  0.91170  0.05023  Biso   1.000  C
  C88      1.0000 0.65826  0.91170  0.44977  Biso   1.000  C
  H81      1.0000 0.11110  0.58830  0.94220  Biso   1.000  H
  H82      1.0000 0.88890  0.58830  0.55780  Biso   1.000  H
  H83      1.0000 0.61110  0.08830  0.94220  Biso   1.000  H
  H84      1.0000 0.38890  0.08830  0.55780  Biso   1.000  H
  H85      1.0000 0.88890  0.41170  0.05780  Biso   1.000  H
  H86      1.0000 0.11110  0.41170  0.44220  Biso   1.000  H
  H87      1.0000 0.38890  0.91170  0.05780  Biso   1.000  H
  H88      1.0000 0.61110  0.91170  0.44220  Biso   1.000  H
  H89      1.0000 0.17860  0.68520  0.97140  Biso   1.000  H
  H90      1.0000 0.82140  0.68520  0.52860  Biso   1.000  H
  H91      1.0000 0.67860  0.18520  0.97140  Biso   1.000  H
  H92      1.0000 0.32140  0.18520  0.52860  Biso   1.000  H
  H93      1.0000 0.82140  0.31480  0.02860  Biso   1.000  H
  H94      1.0000 0.17860  0.31480  0.47140  Biso   1.000  H
  H95      1.0000 0.32140  0.81480  0.02860  Biso   1.000  H
  H96      1.0000 0.67860  0.81480  0.47140  Biso   1.000  H
  C89      1.0000 0.26918  0.45960  0.01116  Biso   1.000  C
  C90      1.0000 0.73082  0.45960  0.48884  Biso   1.000  C
  C91      1.0000 0.76918  0.95960  0.01116  Biso   1.000  C
  C92      1.0000 0.23082  0.95960  0.48884  Biso   1.000  C
  C93      1.0000 0.73082  0.54040  0.98884  Biso   1.000  C
  C94      1.0000 0.26918  0.54040  0.51116  Biso   1.000  C
  C95      1.0000 0.23082  0.04040  0.98884  Biso   1.000  C
  C96      1.0000 0.76918  0.04040  0.51116  Biso   1.000  C
  H97      1.0000 0.29120  0.55420  0.03430  Biso   1.000  H
  H98      1.0000 0.70880  0.55420  0.46570  Biso   1.000  H
  H99      1.0000 0.79120  0.05420  0.03430  Biso   1.000  H
  H100     1.0000 0.20880  0.05420  0.46570  Biso   1.000  H
  H101     1.0000 0.70880  0.44580  0.96570  Biso   1.000  H
  H102     1.0000 0.29120  0.44580  0.53430  Biso   1.000  H
  H103     1.0000 0.20880  0.94580  0.96570  Biso   1.000  H
  H104     1.0000 0.79120  0.94580  0.53430  Biso   1.000  H
  H105     1.0000 0.29350  0.37570  0.04280  Biso   1.000  H
  H106     1.0000 0.70650  0.37570  0.45720  Biso   1.000  H
  H107     1.0000 0.79350  0.87570  0.04280  Biso   1.000  H
  H108     1.0000 0.20650  0.87570  0.45720  Biso   1.000  H
  H109     1.0000 0.70650  0.62430  0.95720  Biso   1.000  H
  H110     1.0000 0.29350  0.62430  0.54280  Biso   1.000  H
  H111     1.0000 0.20650  0.12430  0.95720  Biso   1.000  H
  H112     1.0000 0.79350  0.12430  0.54280  Biso   1.000  H
  C97      1.0000 0.58055  0.91240  0.66802  Biso   1.000  C
  C98      1.0000 0.41945  0.91240  0.83198  Biso   1.000  C
  C99      1.0000 0.08055  0.41240  0.66802  Biso   1.000  C
  C100     1.0000 0.91945  0.41240  0.83198  Biso   1.000  C
  C101     1.0000 0.41945  0.08760  0.33198  Biso   1.000  C
  C102     1.0000 0.58055  0.08760  0.16802  Biso   1.000  C
  C103     1.0000 0.91945  0.58760  0.33198  Biso   1.000  C
  C104     1.0000 0.08055  0.58760  0.16802  Biso   1.000  C
  H113     1.0000 0.59670  0.96530  0.71150  Biso   1.000  H
  H114     1.0000 0.40330  0.96530  0.78850  Biso   1.000  H
  H115     1.0000 0.09670  0.46530  0.71150  Biso   1.000  H
  H116     1.0000 0.90330  0.46530  0.78850  Biso   1.000  H
  H117     1.0000 0.40330  0.03470  0.28850  Biso   1.000  H
  H118     1.0000 0.59670  0.03470  0.21150  Biso   1.000  H
  H119     1.0000 0.90330  0.53470  0.28850  Biso   1.000  H
  H120     1.0000 0.09670  0.53470  0.21150  Biso   1.000  H
  C105     1.0000 0.35734  0.47860  0.23090  Biso   1.000  C
  C106     1.0000 0.64266  0.47860  0.26910  Biso   1.000  C
  C107     1.0000 0.85734  0.97860  0.23090  Biso   1.000  C
  C108     1.0000 0.14266  0.97860  0.26910  Biso   1.000  C
  C109     1.0000 0.64266  0.52140  0.76910  Biso   1.000  C
  C110     1.0000 0.35734  0.52140  0.73090  Biso   1.000  C
  C111     1.0000 0.14266  0.02140  0.76910  Biso   1.000  C
  C112     1.0000 0.85734  0.02140  0.73090  Biso   1.000  C
  H121     1.0000 0.33300  0.42750  0.18750  Biso   1.000  H
  H122     1.0000 0.66700  0.42750  0.31250  Biso   1.000  H
  H123     1.0000 0.83300  0.92750  0.18750  Biso   1.000  H
  H124     1.0000 0.16700  0.92750  0.31250  Biso   1.000  H
  H125     1.0000 0.66700  0.57250  0.81250  Biso   1.000  H
  H126     1.0000 0.33300  0.57250  0.68750  Biso   1.000  H
  H127     1.0000 0.16700  0.07250  0.81250  Biso   1.000  H
  H128     1.0000 0.83300  0.07250  0.68750  Biso   1.000  H
  C113     1.0000 0.35947  0.64390  0.31540  Biso   1.000  C
  C114     1.0000 0.64053  0.64390  0.18460  Biso   1.000  C
  C115     1.0000 0.85947  0.14390  0.31540  Biso   1.000  C
  C116     1.0000 0.14053  0.14390  0.18460  Biso   1.000  C
  C117     1.0000 0.64053  0.35610  0.68460  Biso   1.000  C
  C118     1.0000 0.35947  0.35610  0.81540  Biso   1.000  C
  C119     1.0000 0.14053  0.85610  0.68460  Biso   1.000  C
  C120     1.0000 0.85947  0.85610  0.81540  Biso   1.000  C
  H129     1.0000 0.33650  0.71280  0.33130  Biso   1.000  H
  H130     1.0000 0.66350  0.71280  0.16870  Biso   1.000  H
  H131     1.0000 0.83650  0.21280  0.33130  Biso   1.000  H
  H132     1.0000 0.16350  0.21280  0.16870  Biso   1.000  H
  H133     1.0000 0.66350  0.28720  0.66870  Biso   1.000  H
  H134     1.0000 0.33650  0.28720  0.83130  Biso   1.000  H
  H135     1.0000 0.16350  0.78720  0.66870  Biso   1.000  H
  H136     1.0000 0.83650  0.78720  0.83130  Biso   1.000  H
  C121     1.0000 0.42691  0.61880  0.35769  Biso   1.000  C
  C122     1.0000 0.57309  0.61880  0.14231  Biso   1.000  C
  C123     1.0000 0.92691  0.11880  0.35769  Biso   1.000  C
  C124     1.0000 0.07309  0.11880  0.14231  Biso   1.000  C
  C125     1.0000 0.57309  0.38120  0.64231  Biso   1.000  C
  C126     1.0000 0.42691  0.38120  0.85769  Biso   1.000  C
  C127     1.0000 0.07309  0.88120  0.64231  Biso   1.000  C
  C128     1.0000 0.92691  0.88120  0.85769  Biso   1.000  C
  C129     1.0000 0.42450  0.45110  0.26898  Biso   1.000  C
  C130     1.0000 0.57550  0.45110  0.23102  Biso   1.000  C
  C131     1.0000 0.92450  0.95110  0.26898  Biso   1.000  C
  C132     1.0000 0.07550  0.95110  0.23102  Biso   1.000  C
  C133     1.0000 0.57550  0.54890  0.73102  Biso   1.000  C
  C134     1.0000 0.42450  0.54890  0.76898  Biso   1.000  C
  C135     1.0000 0.07550  0.04890  0.73102  Biso   1.000  C
  C136     1.0000 0.92450  0.04890  0.76898  Biso   1.000  C
  H137     1.0000 0.44620  0.38340  0.25110  Biso   1.000  H
  H138     1.0000 0.55380  0.38340  0.24890  Biso   1.000  H
  H139     1.0000 0.94620  0.88340  0.25110  Biso   1.000  H
  H140     1.0000 0.05380  0.88340  0.24890  Biso   1.000  H
  H141     1.0000 0.55380  0.61660  0.74890  Biso   1.000  H
  H142     1.0000 0.44620  0.61660  0.75110  Biso   1.000  H
  H143     1.0000 0.05380  0.11660  0.74890  Biso   1.000  H
  H144     1.0000 0.94620  0.11660  0.75110  Biso   1.000  H
  C137     1.0000 0.46099  0.52100  0.33333  Biso   1.000  C
  C138     1.0000 0.53901  0.52100  0.16667  Biso   1.000  C
  C139     1.0000 0.96099  0.02100  0.33333  Biso   1.000  C
  C140     1.0000 0.03901  0.02100  0.16667  Biso   1.000  C
  C141     1.0000 0.53901  0.47900  0.66667  Biso   1.000  C
  C142     1.0000 0.46099  0.47900  0.83333  Biso   1.000  C
  C143     1.0000 0.03901  0.97900  0.66667  Biso   1.000  C
  C144     1.0000 0.96099  0.97900  0.83333  Biso   1.000  C
  H145     1.0000 0.50760  0.50300  0.36000  Biso   1.000  H
  H146     1.0000 0.49240  0.50300  0.14000  Biso   1.000  H
  H147     1.0000 0.00760  0.00300  0.36000  Biso   1.000  H
  H148     1.0000 0.99240  0.00300  0.14000  Biso   1.000  H
  H149     1.0000 0.49240  0.49700  0.64000  Biso   1.000  H
  H150     1.0000 0.50760  0.49700  0.86000  Biso   1.000  H
  H151     1.0000 0.99240  0.99700  0.64000  Biso   1.000  H
  H152     1.0000 0.00760  0.99700  0.86000  Biso   1.000  H
  C145     1.0000 0.51608  0.66980  0.47622  Biso   1.000  C
  C146     1.0000 0.48392  0.66980  0.02378  Biso   1.000  C
  C147     1.0000 0.01608  0.16980  0.47622  Biso   1.000  C
  C148     1.0000 0.98392  0.16980  0.02378  Biso   1.000  C
  C149     1.0000 0.48392  0.33020  0.52378  Biso   1.000  C
  C150     1.0000 0.51608  0.33020  0.97622  Biso   1.000  C
  C151     1.0000 0.98392  0.83020  0.52378  Biso   1.000  C
  C152     1.0000 0.01608  0.83020  0.97622  Biso   1.000  C
