data_image0
_cell_length_a       12.831
_cell_length_b       14.525
_cell_length_c       9.539
_cell_angle_alpha    90
_cell_angle_beta     103.701
_cell_angle_gamma    90

_symmetry_space_group_name_H-M    "P 1"
_symmetry_int_tables_number       1

loop_
  _symmetry_equiv_pos_as_xyz
  'x, y, z'

loop_
  _atom_site_label
  _atom_site_occupancy
  _atom_site_fract_x
  _atom_site_fract_y
  _atom_site_fract_z
  _atom_site_thermal_displace_type
  _atom_site_B_iso_or_equiv
  _atom_site_type_symbol
  Cu1      1.0000 0.33482  0.44255  0.58752  Biso   1.000  Cu
  Cu2      1.0000 0.66518  0.94255  0.91248  Biso   1.000  Cu
  Cu3      1.0000 0.66518  0.55745  0.41248  Biso   1.000  Cu
  Cu4      1.0000 0.33482  0.05745  0.08752  Biso   1.000  Cu
  O1       1.0000 0.54332  0.87121  0.96050  Biso   1.000  O
  O2       1.0000 0.45668  0.37121  0.53950  Biso   1.000  O
  O3       1.0000 0.45668  0.12879  0.03950  Biso   1.000  O
  O4       1.0000 0.54332  0.62879  0.46050  Biso   1.000  O
  O5       1.0000 0.60250  0.77307  0.81910  Biso   1.000  O
  O6       1.0000 0.39750  0.27307  0.68090  Biso   1.000  O
  O7       1.0000 0.39750  0.22693  0.18090  Biso   1.000  O
  O8       1.0000 0.60250  0.72693  0.31910  Biso   1.000  O
  O9       1.0000 0.33430  0.56680  0.45140  Biso   1.000  O
  O10      1.0000 0.66570  0.06680  0.04860  Biso   1.000  O
  O11      1.0000 0.66570  0.43320  0.54860  Biso   1.000  O
  O12      1.0000 0.33430  0.93320  0.95140  Biso   1.000  O
  N1       1.0000 0.48090  0.63100  0.88630  Biso   1.000  N
  N2       1.0000 0.51910  0.13100  0.61370  Biso   1.000  N
  N3       1.0000 0.51910  0.36900  0.11370  Biso   1.000  N
  N4       1.0000 0.48090  0.86900  0.38630  Biso   1.000  N
  N5       1.0000 0.56340  0.56960  0.91210  Biso   1.000  N
  N6       1.0000 0.43660  0.06960  0.58790  Biso   1.000  N
  N7       1.0000 0.43660  0.43040  0.08790  Biso   1.000  N
  N8       1.0000 0.56340  0.93040  0.41210  Biso   1.000  N
  N9       1.0000 0.42610  0.51690  0.74130  Biso   1.000  N
  N10      1.0000 0.57390  0.01690  0.75870  Biso   1.000  N
  N11      1.0000 0.57390  0.48310  0.25870  Biso   1.000  N
  N12      1.0000 0.42610  0.98310  0.24130  Biso   1.000  N
  N13      1.0000 0.22950  0.38580  0.42250  Biso   1.000  N
  N14      1.0000 0.77050  0.88580  0.07750  Biso   1.000  N
  N15      1.0000 0.77050  0.61420  0.57750  Biso   1.000  N
  N16      1.0000 0.22950  0.11420  0.92250  Biso   1.000  N
  N17      1.0000 0.20470  0.43887  0.67750  Biso   1.000  N
  N18      1.0000 0.79530  0.93887  0.82250  Biso   1.000  N
  N19      1.0000 0.79530  0.56113  0.32250  Biso   1.000  N
  N20      1.0000 0.20470  0.06113  0.17750  Biso   1.000  N
  C1       1.0000 0.52640  0.50270  0.82280  Biso   1.000  C
  C2       1.0000 0.47360  0.00270  0.67720  Biso   1.000  C
  C3       1.0000 0.47360  0.49730  0.17720  Biso   1.000  C
  C4       1.0000 0.52640  0.99730  0.32280  Biso   1.000  C
  H1       1.0000 0.56580  0.44980  0.81580  Biso   1.000  H
  H2       1.0000 0.43420  0.94980  0.68420  Biso   1.000  H
  H3       1.0000 0.43420  0.55020  0.18420  Biso   1.000  H
  H4       1.0000 0.56580  0.05020  0.31580  Biso   1.000  H
  C5       1.0000 0.40120  0.59880  0.78450  Biso   1.000  C
  C6       1.0000 0.59880  0.09880  0.71550  Biso   1.000  C
  C7       1.0000 0.59880  0.40120  0.21550  Biso   1.000  C
  C8       1.0000 0.40120  0.90120  0.28450  Biso   1.000  C
  H5       1.0000 0.33670  0.62930  0.74820  Biso   1.000  H
  H6       1.0000 0.66330  0.12930  0.75180  Biso   1.000  H
  H7       1.0000 0.66330  0.37070  0.25180  Biso   1.000  H
  H8       1.0000 0.33670  0.87070  0.24820  Biso   1.000  H
  C9       1.0000 0.48610  0.71750  0.96380  Biso   1.000  C
  C10      1.0000 0.51390  0.21750  0.53620  Biso   1.000  C
  C11      1.0000 0.51390  0.28250  0.03620  Biso   1.000  C
  C12      1.0000 0.48610  0.78250  0.46380  Biso   1.000  C
  H9       1.0000 0.51920  0.70690  0.06500  Biso   1.000  H
  H10      1.0000 0.48080  0.20690  0.43500  Biso   1.000  H
  H11      1.0000 0.48080  0.29310  0.93500  Biso   1.000  H
  H12      1.0000 0.51920  0.79310  0.56500  Biso   1.000  H
  H13      1.0000 0.41380  0.73980  0.95700  Biso   1.000  H
  H14      1.0000 0.58620  0.23980  0.54300  Biso   1.000  H
  H15      1.0000 0.58620  0.26020  0.04300  Biso   1.000  H
  H16      1.0000 0.41380  0.76020  0.45700  Biso   1.000  H
  C13      1.0000 0.54920  0.79080  0.90660  Biso   1.000  C
  C14      1.0000 0.45080  0.29080  0.59340  Biso   1.000  C
  C15      1.0000 0.45080  0.20920  0.09340  Biso   1.000  C
  C16      1.0000 0.54920  0.70920  0.40660  Biso   1.000  C
  C17      1.0000 0.24660  0.36030  0.29670  Biso   1.000  C
  C18      1.0000 0.75340  0.86030  0.20330  Biso   1.000  C
  C19      1.0000 0.75340  0.63970  0.70330  Biso   1.000  C
  C20      1.0000 0.24660  0.13970  0.79670  Biso   1.000  C
  H17      1.0000 0.31580  0.36320  0.28270  Biso   1.000  H
  H18      1.0000 0.68420  0.86320  0.21730  Biso   1.000  H
  H19      1.0000 0.68420  0.63680  0.71730  Biso   1.000  H
  H20      1.0000 0.31580  0.13680  0.78270  Biso   1.000  H
  C21      1.0000 0.16360  0.32910  0.18460  Biso   1.000  C
  C22      1.0000 0.83640  0.82910  0.31540  Biso   1.000  C
  C23      1.0000 0.83640  0.67090  0.81540  Biso   1.000  C
  C24      1.0000 0.16360  0.17090  0.68460  Biso   1.000  C
  H21      1.0000 0.17770  0.31190  0.09710  Biso   1.000  H
  H22      1.0000 0.82230  0.81190  0.40290  Biso   1.000  H
  H23      1.0000 0.82230  0.68810  0.90290  Biso   1.000  H
  H24      1.0000 0.17770  0.18810  0.59710  Biso   1.000  H
  C25      1.0000 0.06150  0.32390  0.20340  Biso   1.000  C
  C26      1.0000 0.93850  0.82390  0.29660  Biso   1.000  C
  C27      1.0000 0.93850  0.67610  0.79660  Biso   1.000  C
  C28      1.0000 0.06150  0.17610  0.70340  Biso   1.000  C
  H25      1.0000 0.00560  0.30430  0.12820  Biso   1.000  H
  H26      1.0000 0.99440  0.80430  0.37180  Biso   1.000  H
  H27      1.0000 0.99440  0.69570  0.87180  Biso   1.000  H
  H28      1.0000 0.00560  0.19570  0.62820  Biso   1.000  H
  C29      1.0000 0.04120  0.34810  0.33690  Biso   1.000  C
  C30      1.0000 0.95880  0.84810  0.16310  Biso   1.000  C
  C31      1.0000 0.95880  0.65190  0.66310  Biso   1.000  C
  C32      1.0000 0.04120  0.15190  0.83690  Biso   1.000  C
  C33      1.0000 0.12870  0.38010  0.44410  Biso   1.000  C
  C34      1.0000 0.87130  0.88010  0.05590  Biso   1.000  C
  C35      1.0000 0.87130  0.61990  0.55590  Biso   1.000  C
  C36      1.0000 0.12870  0.11990  0.94410  Biso   1.000  C
  C37      1.0000 0.11560  0.40760  0.58200  Biso   1.000  C
  C38      1.0000 0.88440  0.90760  0.91800  Biso   1.000  C
  C39      1.0000 0.88440  0.59240  0.41800  Biso   1.000  C
  C40      1.0000 0.11560  0.09240  0.08200  Biso   1.000  C
  C41      1.0000 0.01530  0.40000  0.61520  Biso   1.000  C
  C42      1.0000 0.98470  0.90000  0.88480  Biso   1.000  C
  C43      1.0000 0.98470  0.60000  0.38480  Biso   1.000  C
  C44      1.0000 0.01530  0.10000  0.11520  Biso   1.000  C
  C45      1.0000 0.00850  0.42540  0.75440  Biso   1.000  C
  C46      1.0000 0.99150  0.92540  0.74560  Biso   1.000  C
  C47      1.0000 0.99150  0.57460  0.24560  Biso   1.000  C
  C48      1.0000 0.00850  0.07460  0.25440  Biso   1.000  C
  H29      1.0000 0.94320  0.42220  0.78070  Biso   1.000  H
  H30      1.0000 0.05680  0.92220  0.71930  Biso   1.000  H
  H31      1.0000 0.05680  0.57780  0.21930  Biso   1.000  H
  H32      1.0000 0.94320  0.07780  0.28070  Biso   1.000  H
  C49      1.0000 0.09850  0.45470  0.85130  Biso   1.000  C
  C50      1.0000 0.90150  0.95470  0.64870  Biso   1.000  C
  C51      1.0000 0.90150  0.54530  0.14870  Biso   1.000  C
  C52      1.0000 0.09850  0.04530  0.35130  Biso   1.000  C
  H33      1.0000 0.09530  0.47070  0.94460  Biso   1.000  H
  H34      1.0000 0.90470  0.97070  0.55540  Biso   1.000  H
  H35      1.0000 0.90470  0.52930  0.05540  Biso   1.000  H
  H36      1.0000 0.09530  0.02930  0.44460  Biso   1.000  H
  C53      1.0000 0.19520  0.46050  0.80930  Biso   1.000  C
  C54      1.0000 0.80480  0.96050  0.69070  Biso   1.000  C
  C55      1.0000 0.80480  0.53950  0.19070  Biso   1.000  C
  C56      1.0000 0.19520  0.03950  0.30930  Biso   1.000  C
  H37      1.0000 0.25590  0.48050  0.87660  Biso   1.000  H
  H38      1.0000 0.74410  0.98050  0.62340  Biso   1.000  H
  H39      1.0000 0.74410  0.51950  0.12340  Biso   1.000  H
  H40      1.0000 0.25590  0.01950  0.37660  Biso   1.000  H
  C57      1.0000 0.93880  0.34230  0.37250  Biso   1.000  C
  C58      1.0000 0.06120  0.84230  0.12750  Biso   1.000  C
  C59      1.0000 0.06120  0.65770  0.62750  Biso   1.000  C
  C60      1.0000 0.93880  0.15770  0.87250  Biso   1.000  C
  H41      1.0000 0.87980  0.32130  0.30340  Biso   1.000  H
  H42      1.0000 0.12020  0.82130  0.19660  Biso   1.000  H
  H43      1.0000 0.12020  0.67870  0.69660  Biso   1.000  H
  H44      1.0000 0.87980  0.17870  0.80340  Biso   1.000  H
  C61      1.0000 0.92620  0.36670  0.50450  Biso   1.000  C
  C62      1.0000 0.07380  0.86670  0.99550  Biso   1.000  C
  C63      1.0000 0.07380  0.63330  0.49550  Biso   1.000  C
  C64      1.0000 0.92620  0.13330  0.00450  Biso   1.000  C
  H45      1.0000 0.85880  0.36190  0.52420  Biso   1.000  H
  H46      1.0000 0.14120  0.86190  0.97580  Biso   1.000  H
  H47      1.0000 0.14120  0.63810  0.47580  Biso   1.000  H
  H48      1.0000 0.85880  0.13810  0.02420  Biso   1.000  H
  H49      1.0000 0.30300  0.57000  0.37000  Biso   1.000  H
  H50      1.0000 0.69700  0.07000  0.13000  Biso   1.000  H
  H51      1.0000 0.69700  0.43000  0.63000  Biso   1.000  H
  H52      1.0000 0.30300  0.93000  0.87000  Biso   1.000  H
  H53      1.0000 0.39500  0.58100  0.46400  Biso   1.000  H
  H54      1.0000 0.60500  0.08100  0.03600  Biso   1.000  H
  H55      1.0000 0.60500  0.41900  0.53600  Biso   1.000  H
  H56      1.0000 0.39500  0.91900  0.96400  Biso   1.000  H
  O13      1.0000 0.22300  0.57550  0.15550  Biso   1.000  O
  O14      1.0000 0.77700  0.07550  0.34450  Biso   1.000  O
  O15      1.0000 0.77700  0.42450  0.84450  Biso   1.000  O
  O16      1.0000 0.22300  0.92450  0.65550  Biso   1.000  O
  O17      1.0000 0.31060  0.70090  0.17760  Biso   1.000  O
  O18      1.0000 0.68940  0.20090  0.32240  Biso   1.000  O
  O19      1.0000 0.68940  0.29910  0.82240  Biso   1.000  O
  O20      1.0000 0.31060  0.79910  0.67760  Biso   1.000  O
  O21      1.0000 0.21170  0.66680  0.97330  Biso   1.000  O
  O22      1.0000 0.78830  0.16680  0.52670  Biso   1.000  O
  O23      1.0000 0.78830  0.33320  0.02670  Biso   1.000  O
  O24      1.0000 0.21170  0.83320  0.47330  Biso   1.000  O
  N21      1.0000 0.24610  0.64930  0.10170  Biso   1.000  N
  N22      1.0000 0.75390  0.14930  0.39830  Biso   1.000  N
  N23      1.0000 0.75390  0.35070  0.89830  Biso   1.000  N
  N24      1.0000 0.24610  0.85070  0.60170  Biso   1.000  N
