data_image0
_cell_length_a       15.973
_cell_length_b       13.994
_cell_length_c       9.078
_cell_angle_alpha    90
_cell_angle_beta     114.26
_cell_angle_gamma    90

_symmetry_space_group_name_H-M    "P 1"
_symmetry_int_tables_number       1

loop_
  _symmetry_equiv_pos_as_xyz
  'x, y, z'

loop_
  _atom_site_label
  _atom_site_occupancy
  _atom_site_fract_x
  _atom_site_fract_y
  _atom_site_fract_z
  _atom_site_thermal_displace_type
  _atom_site_B_iso_or_equiv
  _atom_site_type_symbol
  Cu1      1.0000 0.00000  0.29187  0.25000  Biso   1.000  Cu
  Cu2      1.0000 0.50000  0.79187  0.25000  Biso   1.000  Cu
  Cu3      1.0000 0.00000  0.70813  0.75000  Biso   1.000  Cu
  Cu4      1.0000 0.50000  0.20813  0.75000  Biso   1.000  Cu
  Cu5      1.0000 0.00000  0.63918  0.25000  Biso   1.000  Cu
  Cu6      1.0000 0.50000  0.13918  0.25000  Biso   1.000  Cu
  Cu7      1.0000 0.00000  0.36082  0.75000  Biso   1.000  Cu
  Cu8      1.0000 0.50000  0.86082  0.75000  Biso   1.000  Cu
  Cl1      1.0000 0.00000  0.45950  0.25000  Biso   1.000  Cl
  Cl2      1.0000 0.50000  0.95950  0.25000  Biso   1.000  Cl
  Cl3      1.0000 0.00000  0.54050  0.75000  Biso   1.000  Cl
  Cl4      1.0000 0.50000  0.04050  0.75000  Biso   1.000  Cl
  Cl5      1.0000 0.00000  0.13200  0.25000  Biso   1.000  Cl
  Cl6      1.0000 0.50000  0.63200  0.25000  Biso   1.000  Cl
  Cl7      1.0000 0.00000  0.86800  0.75000  Biso   1.000  Cl
  Cl8      1.0000 0.50000  0.36800  0.75000  Biso   1.000  Cl
  O1       1.0000 0.11470  0.29600  0.45130  Biso   1.000  O
  O2       1.0000 0.61470  0.79600  0.45130  Biso   1.000  O
  O3       1.0000 0.88530  0.29600  0.04870  Biso   1.000  O
  O4       1.0000 0.38530  0.79600  0.04870  Biso   1.000  O
  O5       1.0000 0.88530  0.70400  0.54870  Biso   1.000  O
  O6       1.0000 0.38530  0.20400  0.54870  Biso   1.000  O
  O7       1.0000 0.11470  0.70400  0.95130  Biso   1.000  O
  O8       1.0000 0.61470  0.20400  0.95130  Biso   1.000  O
  O9       1.0000 0.01260  0.31240  0.55560  Biso   1.000  O
  O10      1.0000 0.51260  0.81240  0.55560  Biso   1.000  O
  O11      1.0000 0.98740  0.31240  0.94440  Biso   1.000  O
  O12      1.0000 0.48740  0.81240  0.94440  Biso   1.000  O
  O13      1.0000 0.98740  0.68760  0.44440  Biso   1.000  O
  O14      1.0000 0.48740  0.18760  0.44440  Biso   1.000  O
  O15      1.0000 0.01260  0.68760  0.05560  Biso   1.000  O
  O16      1.0000 0.51260  0.18760  0.05560  Biso   1.000  O
  C1       1.0000 0.09360  0.31150  0.56930  Biso   1.000  C
  C2       1.0000 0.59360  0.81150  0.56930  Biso   1.000  C
  C3       1.0000 0.90640  0.31150  0.93070  Biso   1.000  C
  C4       1.0000 0.40640  0.81150  0.93070  Biso   1.000  C
  C5       1.0000 0.90640  0.68850  0.43070  Biso   1.000  C
  C6       1.0000 0.40640  0.18850  0.43070  Biso   1.000  C
  C7       1.0000 0.09360  0.68850  0.06930  Biso   1.000  C
  C8       1.0000 0.59360  0.18850  0.06930  Biso   1.000  C
  C9       1.0000 0.16920  0.33350  0.72860  Biso   1.000  C
  C10      1.0000 0.66920  0.83350  0.72860  Biso   1.000  C
  C11      1.0000 0.83080  0.33350  0.77140  Biso   1.000  C
  C12      1.0000 0.33080  0.83350  0.77140  Biso   1.000  C
  C13      1.0000 0.83080  0.66650  0.27140  Biso   1.000  C
  C14      1.0000 0.33080  0.16650  0.27140  Biso   1.000  C
  C15      1.0000 0.16920  0.66650  0.22860  Biso   1.000  C
  C16      1.0000 0.66920  0.16650  0.22860  Biso   1.000  C
  N1       1.0000 0.13890  0.35900  0.84080  Biso   1.000  N
  N2       1.0000 0.63890  0.85900  0.84080  Biso   1.000  N
  N3       1.0000 0.86110  0.35900  0.65920  Biso   1.000  N
  N4       1.0000 0.36110  0.85900  0.65920  Biso   1.000  N
  N5       1.0000 0.86110  0.64100  0.15920  Biso   1.000  N
  N6       1.0000 0.36110  0.14100  0.15920  Biso   1.000  N
  N7       1.0000 0.13890  0.64100  0.34080  Biso   1.000  N
  N8       1.0000 0.63890  0.14100  0.34080  Biso   1.000  N
  C17      1.0000 0.26050  0.32760  0.75630  Biso   1.000  C
  C18      1.0000 0.76050  0.82760  0.75630  Biso   1.000  C
  C19      1.0000 0.73950  0.32760  0.74370  Biso   1.000  C
  C20      1.0000 0.23950  0.82760  0.74370  Biso   1.000  C
  C21      1.0000 0.73950  0.67240  0.24370  Biso   1.000  C
  C22      1.0000 0.23950  0.17240  0.24370  Biso   1.000  C
  C23      1.0000 0.26050  0.67240  0.25630  Biso   1.000  C
  C24      1.0000 0.76050  0.17240  0.25630  Biso   1.000  C
  H1       1.0000 0.27300  0.30800  0.67000  Biso   1.000  H
  H2       1.0000 0.77300  0.80800  0.67000  Biso   1.000  H
  H3       1.0000 0.72700  0.30800  0.83000  Biso   1.000  H
  H4       1.0000 0.22700  0.80800  0.83000  Biso   1.000  H
  H5       1.0000 0.72700  0.69200  0.33000  Biso   1.000  H
  H6       1.0000 0.22700  0.19200  0.33000  Biso   1.000  H
  H7       1.0000 0.27300  0.69200  0.17000  Biso   1.000  H
  H8       1.0000 0.77300  0.19200  0.17000  Biso   1.000  H
  C25      1.0000 0.32500  0.34810  0.91020  Biso   1.000  C
  C26      1.0000 0.82500  0.84810  0.91020  Biso   1.000  C
  C27      1.0000 0.67500  0.34810  0.58980  Biso   1.000  C
  C28      1.0000 0.17500  0.84810  0.58980  Biso   1.000  C
  C29      1.0000 0.67500  0.65190  0.08980  Biso   1.000  C
  C30      1.0000 0.17500  0.15190  0.08980  Biso   1.000  C
  C31      1.0000 0.32500  0.65190  0.41020  Biso   1.000  C
  C32      1.0000 0.82500  0.15190  0.41020  Biso   1.000  C
  H9       1.0000 0.37300  0.32800  0.93600  Biso   1.000  H
  H10      1.0000 0.87300  0.82800  0.93600  Biso   1.000  H
  H11      1.0000 0.62700  0.32800  0.56400  Biso   1.000  H
  H12      1.0000 0.12700  0.82800  0.56400  Biso   1.000  H
  H13      1.0000 0.62700  0.67200  0.06400  Biso   1.000  H
  H14      1.0000 0.12700  0.17200  0.06400  Biso   1.000  H
  H15      1.0000 0.37300  0.67200  0.43600  Biso   1.000  H
  H16      1.0000 0.87300  0.17200  0.43600  Biso   1.000  H
  C33      1.0000 0.29680  0.37380  0.03350  Biso   1.000  C
  C34      1.0000 0.79680  0.87380  0.03350  Biso   1.000  C
  C35      1.0000 0.70320  0.37380  0.46650  Biso   1.000  C
  C36      1.0000 0.20320  0.87380  0.46650  Biso   1.000  C
  C37      1.0000 0.70320  0.62620  0.96650  Biso   1.000  C
  C38      1.0000 0.20320  0.12620  0.96650  Biso   1.000  C
  C39      1.0000 0.29680  0.62620  0.53350  Biso   1.000  C
  C40      1.0000 0.79680  0.12620  0.53350  Biso   1.000  C
  C41      1.0000 0.20180  0.38190  0.99410  Biso   1.000  C
  C42      1.0000 0.70180  0.88190  0.99410  Biso   1.000  C
  C43      1.0000 0.79820  0.38190  0.50590  Biso   1.000  C
  C44      1.0000 0.29820  0.88190  0.50590  Biso   1.000  C
  C45      1.0000 0.79820  0.61810  0.00590  Biso   1.000  C
  C46      1.0000 0.29820  0.11810  0.00590  Biso   1.000  C
  C47      1.0000 0.20180  0.61810  0.49410  Biso   1.000  C
  C48      1.0000 0.70180  0.11810  0.49410  Biso   1.000  C
  C49      1.0000 0.35900  0.39330  0.19210  Biso   1.000  C
  C50      1.0000 0.85900  0.89330  0.19210  Biso   1.000  C
  C51      1.0000 0.64100  0.39330  0.30790  Biso   1.000  C
  C52      1.0000 0.14100  0.89330  0.30790  Biso   1.000  C
  C53      1.0000 0.64100  0.60670  0.80790  Biso   1.000  C
  C54      1.0000 0.14100  0.10670  0.80790  Biso   1.000  C
  C55      1.0000 0.35900  0.60670  0.69210  Biso   1.000  C
  C56      1.0000 0.85900  0.10670  0.69210  Biso   1.000  C
  H17      1.0000 0.40800  0.38400  0.21600  Biso   1.000  H
  H18      1.0000 0.90800  0.88400  0.21600  Biso   1.000  H
  H19      1.0000 0.59200  0.38400  0.28400  Biso   1.000  H
  H20      1.0000 0.09200  0.88400  0.28400  Biso   1.000  H
  H21      1.0000 0.59200  0.61600  0.78400  Biso   1.000  H
  H22      1.0000 0.09200  0.11600  0.78400  Biso   1.000  H
  H23      1.0000 0.40800  0.61600  0.71600  Biso   1.000  H
  H24      1.0000 0.90800  0.11600  0.71600  Biso   1.000  H
  C57      1.0000 0.33060  0.41660  0.31240  Biso   1.000  C
  C58      1.0000 0.83060  0.91660  0.31240  Biso   1.000  C
  C59      1.0000 0.66940  0.41660  0.18760  Biso   1.000  C
  C60      1.0000 0.16940  0.91660  0.18760  Biso   1.000  C
  C61      1.0000 0.66940  0.58340  0.68760  Biso   1.000  C
  C62      1.0000 0.16940  0.08340  0.68760  Biso   1.000  C
  C63      1.0000 0.33060  0.58340  0.81240  Biso   1.000  C
  C64      1.0000 0.83060  0.08340  0.81240  Biso   1.000  C
  H25      1.0000 0.37000  0.43200  0.40900  Biso   1.000  H
  H26      1.0000 0.87000  0.93200  0.40900  Biso   1.000  H
  H27      1.0000 0.63000  0.43200  0.09100  Biso   1.000  H
  H28      1.0000 0.13000  0.93200  0.09100  Biso   1.000  H
  H29      1.0000 0.63000  0.56800  0.59100  Biso   1.000  H
  H30      1.0000 0.13000  0.06800  0.59100  Biso   1.000  H
  H31      1.0000 0.37000  0.56800  0.90900  Biso   1.000  H
  H32      1.0000 0.87000  0.06800  0.90900  Biso   1.000  H
  C65      1.0000 0.23430  0.42500  0.26840  Biso   1.000  C
  C66      1.0000 0.73430  0.92500  0.26840  Biso   1.000  C
  C67      1.0000 0.76570  0.42500  0.23160  Biso   1.000  C
  C68      1.0000 0.26570  0.92500  0.23160  Biso   1.000  C
  C69      1.0000 0.76570  0.57500  0.73160  Biso   1.000  C
  C70      1.0000 0.26570  0.07500  0.73160  Biso   1.000  C
  C71      1.0000 0.23430  0.57500  0.76840  Biso   1.000  C
  C72      1.0000 0.73430  0.07500  0.76840  Biso   1.000  C
  H33      1.0000 0.21000  0.45100  0.34200  Biso   1.000  H
  H34      1.0000 0.71000  0.95100  0.34200  Biso   1.000  H
  H35      1.0000 0.79000  0.45100  0.15800  Biso   1.000  H
  H36      1.0000 0.29000  0.95100  0.15800  Biso   1.000  H
  H37      1.0000 0.79000  0.54900  0.65800  Biso   1.000  H
  H38      1.0000 0.29000  0.04900  0.65800  Biso   1.000  H
  H39      1.0000 0.21000  0.54900  0.84200  Biso   1.000  H
  H40      1.0000 0.71000  0.04900  0.84200  Biso   1.000  H
  C73      1.0000 0.17090  0.41050  0.11230  Biso   1.000  C
  C74      1.0000 0.67090  0.91050  0.11230  Biso   1.000  C
  C75      1.0000 0.82910  0.41050  0.38770  Biso   1.000  C
  C76      1.0000 0.32910  0.91050  0.38770  Biso   1.000  C
  C77      1.0000 0.82910  0.58950  0.88770  Biso   1.000  C
  C78      1.0000 0.32910  0.08950  0.88770  Biso   1.000  C
  C79      1.0000 0.17090  0.58950  0.61230  Biso   1.000  C
  C80      1.0000 0.67090  0.08950  0.61230  Biso   1.000  C
  H41      1.0000 0.12100  0.40100  0.08500  Biso   1.000  H
  H42      1.0000 0.62100  0.90100  0.08500  Biso   1.000  H
  H43      1.0000 0.87900  0.40100  0.41500  Biso   1.000  H
  H44      1.0000 0.37900  0.90100  0.41500  Biso   1.000  H
  H45      1.0000 0.87900  0.59900  0.91500  Biso   1.000  H
  H46      1.0000 0.37900  0.09900  0.91500  Biso   1.000  H
  H47      1.0000 0.12100  0.59900  0.58500  Biso   1.000  H
  H48      1.0000 0.62100  0.09900  0.58500  Biso   1.000  H
