data_image0
_cell_length_a       13.715
_cell_length_b       16.334
_cell_length_c       26.25
_cell_angle_alpha    90
_cell_angle_beta     90
_cell_angle_gamma    90

_symmetry_space_group_name_H-M    "P 1"
_symmetry_int_tables_number       1

loop_
  _symmetry_equiv_pos_as_xyz
  'x, y, z'

loop_
  _atom_site_label
  _atom_site_occupancy
  _atom_site_fract_x
  _atom_site_fract_y
  _atom_site_fract_z
  _atom_site_thermal_displace_type
  _atom_site_B_iso_or_equiv
  _atom_site_type_symbol
  Cu1      1.0000 0.71646  0.21995  0.12329  Biso   1.000  Cu
  Cu2      1.0000 0.78354  0.78005  0.62329  Biso   1.000  Cu
  Cu3      1.0000 0.28354  0.71995  0.37671  Biso   1.000  Cu
  Cu4      1.0000 0.21646  0.28005  0.87671  Biso   1.000  Cu
  Cu5      1.0000 0.58147  0.96341  0.37016  Biso   1.000  Cu
  Cu6      1.0000 0.91853  0.03659  0.87016  Biso   1.000  Cu
  Cu7      1.0000 0.41853  0.46341  0.12984  Biso   1.000  Cu
  Cu8      1.0000 0.08147  0.53659  0.62984  Biso   1.000  Cu
  Cu9      1.0000 0.68150  0.22891  0.61671  Biso   1.000  Cu
  Cu10     1.0000 0.81850  0.77109  0.11671  Biso   1.000  Cu
  Cu11     1.0000 0.31850  0.72891  0.88329  Biso   1.000  Cu
  Cu12     1.0000 0.18150  0.27109  0.38329  Biso   1.000  Cu
  Cu13     1.0000 0.59475  0.47796  0.87263  Biso   1.000  Cu
  Cu14     1.0000 0.90525  0.52204  0.37263  Biso   1.000  Cu
  Cu15     1.0000 0.40525  0.97796  0.62737  Biso   1.000  Cu
  Cu16     1.0000 0.09475  0.02204  0.12737  Biso   1.000  Cu
  N1       1.0000 0.71040  0.21460  0.04787  Biso   1.000  N
  N2       1.0000 0.78960  0.78540  0.54787  Biso   1.000  N
  N3       1.0000 0.28960  0.71460  0.45213  Biso   1.000  N
  N4       1.0000 0.21040  0.28540  0.95213  Biso   1.000  N
  N5       1.0000 0.70870  0.23330  0.94314  Biso   1.000  N
  N6       1.0000 0.79130  0.76670  0.44314  Biso   1.000  N
  N7       1.0000 0.29130  0.73330  0.55686  Biso   1.000  N
  N8       1.0000 0.20870  0.26670  0.05686  Biso   1.000  N
  N9       1.0000 0.68920  0.22719  0.19732  Biso   1.000  N
  N10      1.0000 0.81080  0.77281  0.69732  Biso   1.000  N
  N11      1.0000 0.31080  0.72719  0.30268  Biso   1.000  N
  N12      1.0000 0.18920  0.27281  0.80268  Biso   1.000  N
  N13      1.0000 0.67320  0.21160  0.30193  Biso   1.000  N
  N14      1.0000 0.82680  0.78840  0.80193  Biso   1.000  N
  N15      1.0000 0.32680  0.71160  0.19807  Biso   1.000  N
  N16      1.0000 0.17320  0.28840  0.69807  Biso   1.000  N
  N17      1.0000 0.66120  0.23770  0.54125  Biso   1.000  N
  N18      1.0000 0.83880  0.76230  0.04125  Biso   1.000  N
  N19      1.0000 0.33880  0.73770  0.95875  Biso   1.000  N
  N20      1.0000 0.16120  0.26230  0.45875  Biso   1.000  N
  N21      1.0000 0.65650  0.21940  0.43674  Biso   1.000  N
  N22      1.0000 0.84350  0.78060  0.93674  Biso   1.000  N
  N23      1.0000 0.34350  0.71940  0.06326  Biso   1.000  N
  N24      1.0000 0.15650  0.28060  0.56326  Biso   1.000  N
  N25      1.0000 0.67540  0.21676  0.69239  Biso   1.000  N
  N26      1.0000 0.82460  0.78324  0.19239  Biso   1.000  N
  N27      1.0000 0.32460  0.71676  0.80761  Biso   1.000  N
  N28      1.0000 0.17540  0.28324  0.30761  Biso   1.000  N
  N29      1.0000 0.67550  0.22730  0.79728  Biso   1.000  N
  N30      1.0000 0.82450  0.77270  0.29728  Biso   1.000  N
  N31      1.0000 0.32450  0.72730  0.70272  Biso   1.000  N
  N32      1.0000 0.17550  0.27270  0.20272  Biso   1.000  N
  N33      1.0000 0.57760  0.86966  0.32151  Biso   1.000  N
  N34      1.0000 0.92240  0.13034  0.82151  Biso   1.000  N
  N35      1.0000 0.42240  0.36966  0.17849  Biso   1.000  N
  N36      1.0000 0.07760  0.63034  0.67849  Biso   1.000  N
  N37      1.0000 0.56390  0.87309  0.42150  Biso   1.000  N
  N38      1.0000 0.93610  0.12691  0.92150  Biso   1.000  N
  N39      1.0000 0.43610  0.37309  0.07850  Biso   1.000  N
  N40      1.0000 0.06390  0.62691  0.57850  Biso   1.000  N
  N41      1.0000 0.58880  0.57389  0.82336  Biso   1.000  N
  N42      1.0000 0.91120  0.42611  0.32336  Biso   1.000  N
  N43      1.0000 0.41120  0.07389  0.67664  Biso   1.000  N
  N44      1.0000 0.08880  0.92611  0.17664  Biso   1.000  N
  N45      1.0000 0.59190  0.56934  0.92427  Biso   1.000  N
  N46      1.0000 0.90810  0.43066  0.42427  Biso   1.000  N
  N47      1.0000 0.40810  0.06934  0.57573  Biso   1.000  N
  N48      1.0000 0.09190  0.93066  0.07573  Biso   1.000  N
  O1       1.0000 0.70020  0.33675  0.11120  Biso   1.000  O
  O2       1.0000 0.79980  0.66325  0.61120  Biso   1.000  O
  O3       1.0000 0.29980  0.83675  0.38880  Biso   1.000  O
  O4       1.0000 0.20020  0.16325  0.88880  Biso   1.000  O
  O5       1.0000 0.67240  0.42632  0.05033  Biso   1.000  O
  O6       1.0000 0.82760  0.57368  0.55033  Biso   1.000  O
  O7       1.0000 0.32760  0.92632  0.44967  Biso   1.000  O
  O8       1.0000 0.17240  0.07368  0.94967  Biso   1.000  O
  O9       1.0000 0.61990  0.39214  0.92277  Biso   1.000  O
  O10      1.0000 0.88010  0.60786  0.42277  Biso   1.000  O
  O11      1.0000 0.38010  0.89214  0.57723  Biso   1.000  O
  O12      1.0000 0.11990  0.10786  0.07723  Biso   1.000  O
  O13      1.0000 0.77230  0.42220  0.94691  Biso   1.000  O
  O14      1.0000 0.72770  0.57780  0.44691  Biso   1.000  O
  O15      1.0000 0.22770  0.92220  0.55309  Biso   1.000  O
  O16      1.0000 0.27230  0.07780  0.05309  Biso   1.000  O
  O17      1.0000 0.70420  0.10306  0.13514  Biso   1.000  O
  O18      1.0000 0.79580  0.89694  0.63514  Biso   1.000  O
  O19      1.0000 0.29580  0.60306  0.36486  Biso   1.000  O
  O20      1.0000 0.20420  0.39694  0.86486  Biso   1.000  O
  O21      1.0000 0.68030  0.01299  0.19705  Biso   1.000  O
  O22      1.0000 0.81970  0.98701  0.69705  Biso   1.000  O
  O23      1.0000 0.31970  0.51299  0.30295  Biso   1.000  O
  O24      1.0000 0.18030  0.48701  0.80295  Biso   1.000  O
  O25      1.0000 0.60280  0.04380  0.31707  Biso   1.000  O
  O26      1.0000 0.89720  0.95620  0.81707  Biso   1.000  O
  O27      1.0000 0.39720  0.54380  0.18293  Biso   1.000  O
  O28      1.0000 0.10280  0.45620  0.68293  Biso   1.000  O
  O29      1.0000 0.76520  0.03212  0.30726  Biso   1.000  O
  O30      1.0000 0.73480  0.96788  0.80726  Biso   1.000  O
  O31      1.0000 0.23480  0.53212  0.19274  Biso   1.000  O
  O32      1.0000 0.26520  0.46788  0.69274  Biso   1.000  O
  O33      1.0000 0.66380  0.11309  0.60365  Biso   1.000  O
  O34      1.0000 0.83620  0.88691  0.10365  Biso   1.000  O
  O35      1.0000 0.33620  0.61309  0.89635  Biso   1.000  O
  O36      1.0000 0.16380  0.38691  0.39635  Biso   1.000  O
  O37      1.0000 0.65690  0.02179  0.54180  Biso   1.000  O
  O38      1.0000 0.84310  0.97821  0.04180  Biso   1.000  O
  O39      1.0000 0.34310  0.52179  0.95820  Biso   1.000  O
  O40      1.0000 0.15690  0.47821  0.45820  Biso   1.000  O
  O41      1.0000 0.59320  0.04843  0.42127  Biso   1.000  O
  O42      1.0000 0.90680  0.95157  0.92127  Biso   1.000  O
  O43      1.0000 0.40680  0.54843  0.07873  Biso   1.000  O
  O44      1.0000 0.09320  0.45157  0.57873  Biso   1.000  O
  O45      1.0000 0.75520  0.04040  0.43535  Biso   1.000  O
  O46      1.0000 0.74480  0.95960  0.93535  Biso   1.000  O
  O47      1.0000 0.24480  0.54040  0.06465  Biso   1.000  O
  O48      1.0000 0.25520  0.45960  0.56465  Biso   1.000  O
  O49      1.0000 0.66930  0.34398  0.63287  Biso   1.000  O
  O50      1.0000 0.83070  0.65602  0.13287  Biso   1.000  O
  O51      1.0000 0.33070  0.84398  0.86713  Biso   1.000  O
  O52      1.0000 0.16930  0.15602  0.36713  Biso   1.000  O
  O53      1.0000 0.64020  0.42780  0.69660  Biso   1.000  O
  O54      1.0000 0.85980  0.57220  0.19660  Biso   1.000  O
  O55      1.0000 0.35980  0.92780  0.80340  Biso   1.000  O
  O56      1.0000 0.14020  0.07220  0.30340  Biso   1.000  O
  O57      1.0000 0.59630  0.39425  0.81834  Biso   1.000  O
  O58      1.0000 0.90370  0.60575  0.31834  Biso   1.000  O
  O59      1.0000 0.40370  0.89425  0.68166  Biso   1.000  O
  O60      1.0000 0.09630  0.10575  0.18166  Biso   1.000  O
  O61      1.0000 0.75250  0.41040  0.80007  Biso   1.000  O
  O62      1.0000 0.74750  0.58960  0.30007  Biso   1.000  O
  O63      1.0000 0.24750  0.91040  0.69993  Biso   1.000  O
  O64      1.0000 0.25250  0.08960  0.19993  Biso   1.000  O
  O65      1.0000 0.87510  0.21597  0.13503  Biso   1.000  O
  O66      1.0000 0.62490  0.78403  0.63503  Biso   1.000  O
  O67      1.0000 0.12490  0.71597  0.36497  Biso   1.000  O
  O68      1.0000 0.37510  0.28403  0.86497  Biso   1.000  O
  O69      1.0000 0.42080  0.00243  0.36383  Biso   1.000  O
  O70      1.0000 0.07920  0.99757  0.86383  Biso   1.000  O
  O71      1.0000 0.57920  0.50243  0.13617  Biso   1.000  O
  O72      1.0000 0.92080  0.49757  0.63617  Biso   1.000  O
  O73      1.0000 0.83850  0.21852  0.60521  Biso   1.000  O
  O74      1.0000 0.66150  0.78148  0.10521  Biso   1.000  O
  O75      1.0000 0.16150  0.71852  0.89479  Biso   1.000  O
  O76      1.0000 0.33850  0.28148  0.39479  Biso   1.000  O
  H1       1.0000 0.87200  0.25350  0.62170  Biso   1.000  H
  H2       1.0000 0.62800  0.74650  0.12170  Biso   1.000  H
  H3       1.0000 0.12800  0.75350  0.87830  Biso   1.000  H
  H4       1.0000 0.37200  0.24650  0.37830  Biso   1.000  H
  O77      1.0000 0.43180  0.44896  0.87185  Biso   1.000  O
  O78      1.0000 0.06820  0.55104  0.37185  Biso   1.000  O
  O79      1.0000 0.56820  0.94896  0.62815  Biso   1.000  O
  O80      1.0000 0.93180  0.05104  0.12815  Biso   1.000  O
  C1       1.0000 0.70280  0.28970  0.02656  Biso   1.000  C
  C2       1.0000 0.79720  0.71030  0.52656  Biso   1.000  C
  C3       1.0000 0.29720  0.78970  0.47344  Biso   1.000  C
  C4       1.0000 0.20280  0.21030  0.97344  Biso   1.000  C
  C5       1.0000 0.70260  0.29790  0.97346  Biso   1.000  C
  C6       1.0000 0.79740  0.70210  0.47346  Biso   1.000  C
  C7       1.0000 0.29740  0.79790  0.52654  Biso   1.000  C
  C8       1.0000 0.20260  0.20210  0.02654  Biso   1.000  C
  C9       1.0000 0.71410  0.15910  0.96523  Biso   1.000  C
  C10      1.0000 0.78590  0.84090  0.46523  Biso   1.000  C
  C11      1.0000 0.28590  0.65910  0.53477  Biso   1.000  C
  C12      1.0000 0.21410  0.34090  0.03477  Biso   1.000  C
  H5       1.0000 0.71680  0.11280  0.94470  Biso   1.000  H
  H6       1.0000 0.78320  0.88720  0.44470  Biso   1.000  H
  H7       1.0000 0.28320  0.61280  0.55530  Biso   1.000  H
  H8       1.0000 0.21680  0.38720  0.05530  Biso   1.000  H
  C13      1.0000 0.71580  0.14940  0.01823  Biso   1.000  C
  C14      1.0000 0.78420  0.85060  0.51823  Biso   1.000  C
  C15      1.0000 0.28420  0.64940  0.48177  Biso   1.000  C
  C16      1.0000 0.21580  0.35060  0.98177  Biso   1.000  C
  H9       1.0000 0.72080  0.09740  0.03250  Biso   1.000  H
  H10      1.0000 0.77920  0.90260  0.53250  Biso   1.000  H
  H11      1.0000 0.27920  0.59740  0.46750  Biso   1.000  H
  H12      1.0000 0.22080  0.40260  0.96750  Biso   1.000  H
  C17      1.0000 0.69080  0.35770  0.06468  Biso   1.000  C
  C18      1.0000 0.80920  0.64230  0.56468  Biso   1.000  C
  C19      1.0000 0.30920  0.85770  0.43532  Biso   1.000  C
  C20      1.0000 0.19080  0.14230  0.93532  Biso   1.000  C
  C21      1.0000 0.69970  0.37930  0.94587  Biso   1.000  C
  C22      1.0000 0.80030  0.62070  0.44587  Biso   1.000  C
  C23      1.0000 0.30030  0.87930  0.55413  Biso   1.000  C
  C24      1.0000 0.19970  0.12070  0.05413  Biso   1.000  C
  C25      1.0000 0.68850  0.15390  0.21914  Biso   1.000  C
  C26      1.0000 0.81150  0.84610  0.71914  Biso   1.000  C
  C27      1.0000 0.31150  0.65390  0.28086  Biso   1.000  C
  C28      1.0000 0.18850  0.34610  0.78086  Biso   1.000  C
  C29      1.0000 0.68150  0.14620  0.27178  Biso   1.000  C
  C30      1.0000 0.81850  0.85380  0.77178  Biso   1.000  C
  C31      1.0000 0.31850  0.64620  0.22822  Biso   1.000  C
  C32      1.0000 0.18150  0.35380  0.72822  Biso   1.000  C
  C33      1.0000 0.67450  0.28420  0.27895  Biso   1.000  C
  C34      1.0000 0.82550  0.71580  0.77895  Biso   1.000  C
  C35      1.0000 0.32550  0.78420  0.22105  Biso   1.000  C
  C36      1.0000 0.17450  0.21580  0.72105  Biso   1.000  C
  H13      1.0000 0.66960  0.33120  0.29890  Biso   1.000  H
  H14      1.0000 0.83040  0.66880  0.79890  Biso   1.000  H
  H15      1.0000 0.33040  0.83120  0.20110  Biso   1.000  H
  H16      1.0000 0.16960  0.16880  0.70110  Biso   1.000  H
  C37      1.0000 0.68280  0.29280  0.22701  Biso   1.000  C
  C38      1.0000 0.81720  0.70720  0.72701  Biso   1.000  C
  C39      1.0000 0.31720  0.79280  0.27299  Biso   1.000  C
  C40      1.0000 0.18280  0.20720  0.77299  Biso   1.000  C
  H17      1.0000 0.68380  0.34480  0.21260  Biso   1.000  H
  H18      1.0000 0.81620  0.65520  0.71260  Biso   1.000  H
  H19      1.0000 0.31620  0.84480  0.28740  Biso   1.000  H
  H20      1.0000 0.18380  0.15520  0.78740  Biso   1.000  H
  C41      1.0000 0.69150  0.08320  0.18138  Biso   1.000  C
  C42      1.0000 0.80850  0.91680  0.68138  Biso   1.000  C
  C43      1.0000 0.30850  0.58320  0.31862  Biso   1.000  C
  C44      1.0000 0.19150  0.41680  0.81862  Biso   1.000  C
  C45      1.0000 0.68630  0.06560  0.30074  Biso   1.000  C
  C46      1.0000 0.81370  0.93440  0.80074  Biso   1.000  C
  C47      1.0000 0.31370  0.56560  0.19926  Biso   1.000  C
  C48      1.0000 0.18630  0.43440  0.69926  Biso   1.000  C
  C49      1.0000 0.66440  0.16320  0.51982  Biso   1.000  C
  C50      1.0000 0.83560  0.83680  0.01982  Biso   1.000  C
  C51      1.0000 0.33560  0.66320  0.98018  Biso   1.000  C
  C52      1.0000 0.16440  0.33680  0.48018  Biso   1.000  C
  C53      1.0000 0.66540  0.15500  0.46715  Biso   1.000  C
  C54      1.0000 0.83460  0.84500  0.96715  Biso   1.000  C
  C55      1.0000 0.33460  0.65500  0.03285  Biso   1.000  C
  C56      1.0000 0.16540  0.34500  0.53285  Biso   1.000  C
  C57      1.0000 0.65290  0.29300  0.45930  Biso   1.000  C
  C58      1.0000 0.84710  0.70700  0.95930  Biso   1.000  C
  C59      1.0000 0.34710  0.79300  0.04070  Biso   1.000  C
  C60      1.0000 0.15290  0.20700  0.54070  Biso   1.000  C
  H21      1.0000 0.64830  0.33950  0.43900  Biso   1.000  H
  H22      1.0000 0.85170  0.66050  0.93900  Biso   1.000  H
  H23      1.0000 0.35170  0.83950  0.06100  Biso   1.000  H
  H24      1.0000 0.14830  0.16050  0.56100  Biso   1.000  H
  C61      1.0000 0.65570  0.30220  0.51195  Biso   1.000  C
  C62      1.0000 0.84430  0.69780  0.01195  Biso   1.000  C
  C63      1.0000 0.34430  0.80220  0.98805  Biso   1.000  C
  C64      1.0000 0.15570  0.19780  0.48805  Biso   1.000  C
  H25      1.0000 0.65360  0.35430  0.52630  Biso   1.000  H
  H26      1.0000 0.84640  0.64570  0.02630  Biso   1.000  H
  H27      1.0000 0.34640  0.85430  0.97370  Biso   1.000  H
  H28      1.0000 0.15360  0.14570  0.47370  Biso   1.000  H
  C65      1.0000 0.66330  0.09320  0.55714  Biso   1.000  C
  C66      1.0000 0.83670  0.90680  0.05714  Biso   1.000  C
  C67      1.0000 0.33670  0.59320  0.94286  Biso   1.000  C
  C68      1.0000 0.16330  0.40680  0.44286  Biso   1.000  C
  C69      1.0000 0.67430  0.07250  0.43984  Biso   1.000  C
  C70      1.0000 0.82570  0.92750  0.93984  Biso   1.000  C
  C71      1.0000 0.32570  0.57250  0.06016  Biso   1.000  C
  C72      1.0000 0.17430  0.42750  0.56016  Biso   1.000  C
  C73      1.0000 0.66990  0.29000  0.71567  Biso   1.000  C
  C74      1.0000 0.83010  0.71000  0.21567  Biso   1.000  C
  C75      1.0000 0.33010  0.79000  0.78433  Biso   1.000  C
  C76      1.0000 0.16990  0.21000  0.28433  Biso   1.000  C
  C77      1.0000 0.67070  0.29440  0.76803  Biso   1.000  C
  C78      1.0000 0.82930  0.70560  0.26803  Biso   1.000  C
  C79      1.0000 0.32930  0.79440  0.73197  Biso   1.000  C
  C80      1.0000 0.17070  0.20560  0.23197  Biso   1.000  C
  C81      1.0000 0.67880  0.15590  0.77322  Biso   1.000  C
  C82      1.0000 0.82120  0.84410  0.27322  Biso   1.000  C
  C83      1.0000 0.32120  0.65590  0.72678  Biso   1.000  C
  C84      1.0000 0.17880  0.34410  0.22678  Biso   1.000  C
  H29      1.0000 0.68000  0.10810  0.79240  Biso   1.000  H
  H30      1.0000 0.82000  0.89190  0.29240  Biso   1.000  H
  H31      1.0000 0.32000  0.60810  0.70760  Biso   1.000  H
  H32      1.0000 0.18000  0.39190  0.20760  Biso   1.000  H
  C85      1.0000 0.68050  0.14990  0.72065  Biso   1.000  C
  C86      1.0000 0.81950  0.85010  0.22065  Biso   1.000  C
  C87      1.0000 0.31950  0.64990  0.77935  Biso   1.000  C
  C88      1.0000 0.18050  0.35010  0.27935  Biso   1.000  C
  H33      1.0000 0.68530  0.09890  0.70520  Biso   1.000  H
  H34      1.0000 0.81470  0.90110  0.20520  Biso   1.000  H
  H35      1.0000 0.31470  0.59890  0.79480  Biso   1.000  H
  H36      1.0000 0.18530  0.40110  0.29480  Biso   1.000  H
  C89      1.0000 0.65840  0.36040  0.67948  Biso   1.000  C
  C90      1.0000 0.84160  0.63960  0.17948  Biso   1.000  C
  C91      1.0000 0.34160  0.86040  0.82052  Biso   1.000  C
  C92      1.0000 0.15840  0.13960  0.32052  Biso   1.000  C
  C93      1.0000 0.67370  0.37410  0.79760  Biso   1.000  C
  C94      1.0000 0.82630  0.62590  0.29760  Biso   1.000  C
  C95      1.0000 0.32630  0.87410  0.70240  Biso   1.000  C
  C96      1.0000 0.17370  0.12590  0.20240  Biso   1.000  C
  C97      1.0000 0.58490  0.86940  0.27088  Biso   1.000  C
  C98      1.0000 0.91510  0.13060  0.77088  Biso   1.000  C
  C99      1.0000 0.41510  0.36940  0.22912  Biso   1.000  C
  C100     1.0000 0.08490  0.63060  0.72912  Biso   1.000  C
  H37      1.0000 0.59590  0.91870  0.25410  Biso   1.000  H
  H38      1.0000 0.90410  0.08130  0.75410  Biso   1.000  H
  H39      1.0000 0.40410  0.41870  0.24590  Biso   1.000  H
  H40      1.0000 0.09590  0.58130  0.74590  Biso   1.000  H
  C101     1.0000 0.57670  0.79850  0.24220  Biso   1.000  C
  C102     1.0000 0.92330  0.20150  0.74220  Biso   1.000  C
  C103     1.0000 0.42330  0.29850  0.25780  Biso   1.000  C
  C104     1.0000 0.07670  0.70150  0.75780  Biso   1.000  C
  H41      1.0000 0.57950  0.80100  0.20680  Biso   1.000  H
  H42      1.0000 0.92050  0.19900  0.70680  Biso   1.000  H
  H43      1.0000 0.42050  0.30100  0.29320  Biso   1.000  H
  H44      1.0000 0.07950  0.69900  0.79320  Biso   1.000  H
  C105     1.0000 0.56440  0.72450  0.26620  Biso   1.000  C
  C106     1.0000 0.93560  0.27550  0.76620  Biso   1.000  C
  C107     1.0000 0.43560  0.22450  0.23380  Biso   1.000  C
  C108     1.0000 0.06440  0.77550  0.73380  Biso   1.000  C
  H45      1.0000 0.56170  0.67640  0.24730  Biso   1.000  H
  H46      1.0000 0.93830  0.32360  0.74730  Biso   1.000  H
  H47      1.0000 0.43830  0.17640  0.25270  Biso   1.000  H
  H48      1.0000 0.06170  0.82360  0.75270  Biso   1.000  H
  C109     1.0000 0.54030  0.64870  0.34711  Biso   1.000  C
  C110     1.0000 0.95970  0.35130  0.84711  Biso   1.000  C
  C111     1.0000 0.45970  0.14870  0.15289  Biso   1.000  C
  C112     1.0000 0.04030  0.85130  0.65289  Biso   1.000  C
  H49      1.0000 0.53490  0.59910  0.33000  Biso   1.000  H
  H50      1.0000 0.96510  0.40090  0.83000  Biso   1.000  H
  H51      1.0000 0.46510  0.09910  0.17000  Biso   1.000  H
  H52      1.0000 0.03490  0.90090  0.67000  Biso   1.000  H
  C113     1.0000 0.53310  0.65030  0.39839  Biso   1.000  C
  C114     1.0000 0.96690  0.34970  0.89839  Biso   1.000  C
  C115     1.0000 0.46690  0.15030  0.10161  Biso   1.000  C
  C116     1.0000 0.03310  0.84970  0.60161  Biso   1.000  C
  H53      1.0000 0.52260  0.60160  0.41590  Biso   1.000  H
  H54      1.0000 0.97740  0.39840  0.91590  Biso   1.000  H
  H55      1.0000 0.47740  0.10160  0.08410  Biso   1.000  H
  H56      1.0000 0.02260  0.89840  0.58410  Biso   1.000  H
  C117     1.0000 0.53690  0.73420  0.48057  Biso   1.000  C
  C118     1.0000 0.96310  0.26580  0.98057  Biso   1.000  C
  C119     1.0000 0.46310  0.23420  0.01943  Biso   1.000  C
  C120     1.0000 0.03690  0.76580  0.51943  Biso   1.000  C
  H57      1.0000 0.52900  0.68780  0.50070  Biso   1.000  H
  H58      1.0000 0.97100  0.31220  0.00070  Biso   1.000  H
  H59      1.0000 0.47100  0.18780  0.99930  Biso   1.000  H
  H60      1.0000 0.02900  0.81220  0.49930  Biso   1.000  H
  C121     1.0000 0.54410  0.80930  0.50220  Biso   1.000  C
  C122     1.0000 0.95590  0.19070  0.00220  Biso   1.000  C
  C123     1.0000 0.45590  0.30930  0.99780  Biso   1.000  C
  C124     1.0000 0.04410  0.69070  0.49780  Biso   1.000  C
  H61      1.0000 0.53910  0.81510  0.53730  Biso   1.000  H
  H62      1.0000 0.96090  0.18490  0.03730  Biso   1.000  H
  H63      1.0000 0.46090  0.31510  0.96270  Biso   1.000  H
  H64      1.0000 0.03910  0.68490  0.46270  Biso   1.000  H
  C125     1.0000 0.55890  0.87750  0.47162  Biso   1.000  C
  C126     1.0000 0.94110  0.12250  0.97162  Biso   1.000  C
  C127     1.0000 0.44110  0.37750  0.02838  Biso   1.000  C
  C128     1.0000 0.05890  0.62250  0.52838  Biso   1.000  C
  H65      1.0000 0.56560  0.92840  0.48710  Biso   1.000  H
  H66      1.0000 0.93440  0.07160  0.98710  Biso   1.000  H
  H67      1.0000 0.43440  0.42840  0.01290  Biso   1.000  H
  H68      1.0000 0.06560  0.57160  0.51290  Biso   1.000  H
  C129     1.0000 0.55620  0.72190  0.31884  Biso   1.000  C
  C130     1.0000 0.94380  0.27810  0.81884  Biso   1.000  C
  C131     1.0000 0.44380  0.22190  0.18116  Biso   1.000  C
  C132     1.0000 0.05620  0.77810  0.68116  Biso   1.000  C
  C133     1.0000 0.56440  0.79670  0.34513  Biso   1.000  C
  C134     1.0000 0.93560  0.20330  0.84513  Biso   1.000  C
  C135     1.0000 0.43560  0.29670  0.15487  Biso   1.000  C
  C136     1.0000 0.06440  0.70330  0.65487  Biso   1.000  C
  C137     1.0000 0.55720  0.79900  0.39911  Biso   1.000  C
  C138     1.0000 0.94280  0.20100  0.89911  Biso   1.000  C
  C139     1.0000 0.44280  0.29900  0.10089  Biso   1.000  C
  C140     1.0000 0.05720  0.70100  0.60089  Biso   1.000  C
  C141     1.0000 0.54160  0.72760  0.42715  Biso   1.000  C
  C142     1.0000 0.95840  0.27240  0.92715  Biso   1.000  C
  C143     1.0000 0.45840  0.22760  0.07285  Biso   1.000  C
  C144     1.0000 0.04160  0.77240  0.57285  Biso   1.000  C
  C145     1.0000 0.58690  0.57450  0.77330  Biso   1.000  C
  C146     1.0000 0.91310  0.42550  0.27330  Biso   1.000  C
  C147     1.0000 0.41310  0.07450  0.72670  Biso   1.000  C
  C148     1.0000 0.08690  0.92550  0.22670  Biso   1.000  C
  H69      1.0000 0.58970  0.52480  0.75610  Biso   1.000  H
  H70      1.0000 0.91030  0.47520  0.25610  Biso   1.000  H
  H71      1.0000 0.41030  0.02480  0.74390  Biso   1.000  H
  H72      1.0000 0.08970  0.97520  0.24390  Biso   1.000  H
  C149     1.0000 0.58100  0.64650  0.74484  Biso   1.000  C
  C150     1.0000 0.91900  0.35350  0.24484  Biso   1.000  C
  C151     1.0000 0.41900  0.14650  0.75516  Biso   1.000  C
  C152     1.0000 0.08100  0.85350  0.25516  Biso   1.000  C
  H73      1.0000 0.57950  0.64450  0.70940  Biso   1.000  H
  H74      1.0000 0.92050  0.35550  0.20940  Biso   1.000  H
  H75      1.0000 0.42050  0.14450  0.79060  Biso   1.000  H
  H76      1.0000 0.07950  0.85550  0.29060  Biso   1.000  H
  C153     1.0000 0.57750  0.71930  0.76934  Biso   1.000  C
  C154     1.0000 0.92250  0.28070  0.26934  Biso   1.000  C
  C155     1.0000 0.42250  0.21930  0.73066  Biso   1.000  C
  C156     1.0000 0.07750  0.78070  0.23066  Biso   1.000  C
  H77      1.0000 0.57380  0.76780  0.75080  Biso   1.000  H
  H78      1.0000 0.92620  0.23220  0.25080  Biso   1.000  H
  H79      1.0000 0.42620  0.26780  0.74920  Biso   1.000  H
  H80      1.0000 0.07380  0.73220  0.24920  Biso   1.000  H
  C157     1.0000 0.57920  0.79490  0.85240  Biso   1.000  C
  C158     1.0000 0.92080  0.20510  0.35240  Biso   1.000  C
  C159     1.0000 0.42080  0.29490  0.64760  Biso   1.000  C
  C160     1.0000 0.07920  0.70510  0.14760  Biso   1.000  C
  H81      1.0000 0.57690  0.84540  0.83620  Biso   1.000  H
  H82      1.0000 0.92310  0.15460  0.33620  Biso   1.000  H
  H83      1.0000 0.42310  0.34540  0.66380  Biso   1.000  H
  H84      1.0000 0.07690  0.65460  0.16380  Biso   1.000  H
  C161     1.0000 0.58210  0.79230  0.90460  Biso   1.000  C
  C162     1.0000 0.91790  0.20770  0.40460  Biso   1.000  C
  C163     1.0000 0.41790  0.29230  0.59540  Biso   1.000  C
  C164     1.0000 0.08210  0.70770  0.09540  Biso   1.000  C
  H85      1.0000 0.58190  0.84100  0.92300  Biso   1.000  H
  H86      1.0000 0.91810  0.15900  0.42300  Biso   1.000  H
  H87      1.0000 0.41810  0.34100  0.57700  Biso   1.000  H
  H88      1.0000 0.08190  0.65900  0.07700  Biso   1.000  H
  C165     1.0000 0.58990  0.70940  0.98391  Biso   1.000  C
  C166     1.0000 0.91010  0.29060  0.48391  Biso   1.000  C
  C167     1.0000 0.41010  0.20940  0.51609  Biso   1.000  C
  C168     1.0000 0.08990  0.79060  0.01609  Biso   1.000  C
  H89      1.0000 0.59100  0.75590  0.00440  Biso   1.000  H
  H90      1.0000 0.90900  0.24410  0.50440  Biso   1.000  H
  H91      1.0000 0.40900  0.25590  0.49560  Biso   1.000  H
  H92      1.0000 0.09100  0.74410  0.99560  Biso   1.000  H
  C169     1.0000 0.59260  0.63370  0.00520  Biso   1.000  C
  C170     1.0000 0.90740  0.36630  0.50520  Biso   1.000  C
  C171     1.0000 0.40740  0.13370  0.49480  Biso   1.000  C
  C172     1.0000 0.09260  0.86630  0.99480  Biso   1.000  C
  H93      1.0000 0.59310  0.62810  0.04050  Biso   1.000  H
  H94      1.0000 0.90690  0.37190  0.54050  Biso   1.000  H
  H95      1.0000 0.40690  0.12810  0.45950  Biso   1.000  H
  H96      1.0000 0.09310  0.87190  0.95950  Biso   1.000  H
  C173     1.0000 0.59470  0.56570  0.97486  Biso   1.000  C
  C174     1.0000 0.90530  0.43430  0.47486  Biso   1.000  C
  C175     1.0000 0.40530  0.06570  0.52514  Biso   1.000  C
  C176     1.0000 0.09470  0.93430  0.02514  Biso   1.000  C
  H97      1.0000 0.59810  0.51460  0.99030  Biso   1.000  H
  H98      1.0000 0.90190  0.48540  0.49030  Biso   1.000  H
  H99      1.0000 0.40190  0.01460  0.50970  Biso   1.000  H
  H100     1.0000 0.09810  0.98540  0.00970  Biso   1.000  H
  C177     1.0000 0.57950  0.72150  0.82228  Biso   1.000  C
  C178     1.0000 0.92050  0.27850  0.32228  Biso   1.000  C
  C179     1.0000 0.42050  0.22150  0.67772  Biso   1.000  C
  C180     1.0000 0.07950  0.77850  0.17772  Biso   1.000  C
  C181     1.0000 0.58490  0.64660  0.84803  Biso   1.000  C
  C182     1.0000 0.91510  0.35340  0.34803  Biso   1.000  C
  C183     1.0000 0.41510  0.14660  0.65197  Biso   1.000  C
  C184     1.0000 0.08490  0.85340  0.15197  Biso   1.000  C
  C185     1.0000 0.58780  0.64460  0.90252  Biso   1.000  C
  C186     1.0000 0.91220  0.35540  0.40252  Biso   1.000  C
  C187     1.0000 0.41220  0.14460  0.59748  Biso   1.000  C
  C188     1.0000 0.08780  0.85540  0.09748  Biso   1.000  C
  C189     1.0000 0.58540  0.71690  0.93106  Biso   1.000  C
  C190     1.0000 0.91460  0.28310  0.43106  Biso   1.000  C
  C191     1.0000 0.41460  0.21690  0.56894  Biso   1.000  C
  C192     1.0000 0.08540  0.78310  0.06894  Biso   1.000  C
  O81      1.0000 0.97340  0.32390  0.63980  Biso   1.000  O
  O82      1.0000 0.52660  0.67610  0.13980  Biso   1.000  O
  O83      1.0000 0.02660  0.82390  0.86020  Biso   1.000  O
  O84      1.0000 0.47340  0.17610  0.36020  Biso   1.000  O
  O85      1.0000 0.02390  0.31070  0.11263  Biso   1.000  O
  O86      1.0000 0.47610  0.68930  0.61263  Biso   1.000  O
  O87      1.0000 0.97610  0.81070  0.38737  Biso   1.000  O
  O88      1.0000 0.52390  0.18930  0.88737  Biso   1.000  O
  O89      1.0000 0.63810  0.48800  0.23539  Biso   1.000  O
  O90      1.0000 0.86190  0.51200  0.73539  Biso   1.000  O
  O91      1.0000 0.36190  0.98800  0.26461  Biso   1.000  O
  O92      1.0000 0.13810  0.01200  0.76461  Biso   1.000  O
  O93      1.0000 0.90580  0.05720  0.23461  Biso   1.000  O
  O94      1.0000 0.59420  0.94280  0.73461  Biso   1.000  O
  O95      1.0000 0.09420  0.55720  0.26539  Biso   1.000  O
  O96      1.0000 0.40580  0.44280  0.76539  Biso   1.000  O
  O97      1.0000 0.90450  0.05980  0.60590  Biso   1.000  O
  O98      1.0000 0.59550  0.94020  0.10590  Biso   1.000  O
  O99      1.0000 0.09550  0.55980  0.89410  Biso   1.000  O
  O100     1.0000 0.40450  0.44020  0.39410  Biso   1.000  O
  O101     1.0000 0.91560  0.04070  0.50330  Biso   1.000  O
  O102     1.0000 0.58440  0.95930  0.00330  Biso   1.000  O
  O103     1.0000 0.08440  0.54070  0.99670  Biso   1.000  O
  O104     1.0000 0.41560  0.45930  0.49670  Biso   1.000  O
  O105     1.0000 0.63280  0.55040  0.62720  Biso   1.000  O
  O106     1.0000 0.86720  0.44960  0.12720  Biso   1.000  O
  O107     1.0000 0.36720  0.05040  0.87280  Biso   1.000  O
  O108     1.0000 0.13280  0.94960  0.37280  Biso   1.000  O
  O109     1.0000 0.60720  0.50060  0.52210  Biso   1.000  O
  O110     1.0000 0.89280  0.49940  0.02210  Biso   1.000  O
  O111     1.0000 0.39280  0.00060  0.97790  Biso   1.000  O
  O112     1.0000 0.10720  0.99940  0.47790  Biso   1.000  O
  O113     1.0000 0.58770  0.53390  0.52320  Biso   1.000  O
  O114     1.0000 0.91230  0.46610  0.02320  Biso   1.000  O
  O115     1.0000 0.41230  0.03390  0.97680  Biso   1.000  O
  O116     1.0000 0.08770  0.96610  0.47680  Biso   1.000  O
  O117     1.0000 0.56550  0.01510  0.86620  Biso   1.000  O
  O118     1.0000 0.93450  0.98490  0.36620  Biso   1.000  O
  O119     1.0000 0.43450  0.51510  0.63380  Biso   1.000  O
  O120     1.0000 0.06550  0.48490  0.13380  Biso   1.000  O
  O121     1.0000 0.58840  0.02750  0.87980  Biso   1.000  O
  O122     1.0000 0.91160  0.97250  0.37980  Biso   1.000  O
  O123     1.0000 0.41160  0.52750  0.62020  Biso   1.000  O
  O124     1.0000 0.08840  0.47250  0.12020  Biso   1.000  O
  O125     1.0000 0.70510  0.46730  0.37130  Biso   1.000  O
  O126     1.0000 0.79490  0.53270  0.87130  Biso   1.000  O
  O127     1.0000 0.29490  0.96730  0.12870  Biso   1.000  O
  O128     1.0000 0.20510  0.03270  0.62870  Biso   1.000  O
  O129     1.0000 0.53580  0.43730  0.32540  Biso   1.000  O
  O130     1.0000 0.96420  0.56270  0.82540  Biso   1.000  O
  O131     1.0000 0.46420  0.93730  0.17460  Biso   1.000  O
  O132     1.0000 0.03580  0.06270  0.67460  Biso   1.000  O
  O133     1.0000 0.63360  0.45320  0.36030  Biso   1.000  O
  O134     1.0000 0.86640  0.54680  0.86030  Biso   1.000  O
  O135     1.0000 0.36640  0.95320  0.13970  Biso   1.000  O
  O136     1.0000 0.13360  0.04680  0.63970  Biso   1.000  O
