data_image0
_cell_length_a       28.812
_cell_length_b       6.612
_cell_length_c       21.508
_cell_angle_alpha    90
_cell_angle_beta     107.47
_cell_angle_gamma    90

_symmetry_space_group_name_H-M    "P 1"
_symmetry_int_tables_number       1

loop_
  _symmetry_equiv_pos_as_xyz
  'x, y, z'

loop_
  _atom_site_label
  _atom_site_occupancy
  _atom_site_fract_x
  _atom_site_fract_y
  _atom_site_fract_z
  _atom_site_thermal_displace_type
  _atom_site_B_iso_or_equiv
  _atom_site_type_symbol
  Cu1      1.0000 0.11157  0.33731  0.63889  Biso   1.000  Cu
  Cu2      1.0000 0.88843  0.33731  0.86111  Biso   1.000  Cu
  Cu3      1.0000 0.61157  0.83731  0.63889  Biso   1.000  Cu
  Cu4      1.0000 0.38843  0.83731  0.86111  Biso   1.000  Cu
  Cu5      1.0000 0.88843  0.66269  0.36111  Biso   1.000  Cu
  Cu6      1.0000 0.11157  0.66269  0.13889  Biso   1.000  Cu
  Cu7      1.0000 0.38843  0.16269  0.36111  Biso   1.000  Cu
  Cu8      1.0000 0.61157  0.16269  0.13889  Biso   1.000  Cu
  Eu1      1.0000 0.14481  0.87189  0.41728  Biso   1.000  Eu
  Eu2      1.0000 0.85519  0.87189  0.08272  Biso   1.000  Eu
  Eu3      1.0000 0.64481  0.37189  0.41728  Biso   1.000  Eu
  Eu4      1.0000 0.35519  0.37189  0.08272  Biso   1.000  Eu
  Eu5      1.0000 0.85519  0.12811  0.58272  Biso   1.000  Eu
  Eu6      1.0000 0.14481  0.12811  0.91728  Biso   1.000  Eu
  Eu7      1.0000 0.35519  0.62811  0.58272  Biso   1.000  Eu
  Eu8      1.0000 0.64481  0.62811  0.91728  Biso   1.000  Eu
  N1       1.0000 0.06826  0.10620  0.60394  Biso   1.000  N
  N2       1.0000 0.93174  0.10620  0.89606  Biso   1.000  N
  N3       1.0000 0.56826  0.60620  0.60394  Biso   1.000  N
  N4       1.0000 0.43174  0.60620  0.89606  Biso   1.000  N
  N5       1.0000 0.93174  0.89380  0.39606  Biso   1.000  N
  N6       1.0000 0.06826  0.89380  0.10394  Biso   1.000  N
  N7       1.0000 0.43174  0.39380  0.39606  Biso   1.000  N
  N8       1.0000 0.56826  0.39380  0.10394  Biso   1.000  N
  N9       1.0000 0.15581  0.56770  0.66399  Biso   1.000  N
  N10      1.0000 0.84419  0.56770  0.83601  Biso   1.000  N
  N11      1.0000 0.65581  0.06770  0.66399  Biso   1.000  N
  N12      1.0000 0.34419  0.06770  0.83601  Biso   1.000  N
  N13      1.0000 0.84419  0.43230  0.33601  Biso   1.000  N
  N14      1.0000 0.15581  0.43230  0.16399  Biso   1.000  N
  N15      1.0000 0.34419  0.93230  0.33601  Biso   1.000  N
  N16      1.0000 0.65581  0.93230  0.16399  Biso   1.000  N
  O1       1.0000 0.08574  0.47570  0.51967  Biso   1.000  O
  O2       1.0000 0.91426  0.47570  0.98033  Biso   1.000  O
  O3       1.0000 0.58574  0.97570  0.51967  Biso   1.000  O
  O4       1.0000 0.41426  0.97570  0.98033  Biso   1.000  O
  O5       1.0000 0.91426  0.52430  0.48033  Biso   1.000  O
  O6       1.0000 0.08574  0.52430  0.01967  Biso   1.000  O
  O7       1.0000 0.41426  0.02430  0.48033  Biso   1.000  O
  O8       1.0000 0.58574  0.02430  0.01967  Biso   1.000  O
  O9       1.0000 0.08325  0.71400  0.44569  Biso   1.000  O
  O10      1.0000 0.91675  0.71400  0.05431  Biso   1.000  O
  O11      1.0000 0.58325  0.21400  0.44569  Biso   1.000  O
  O12      1.0000 0.41675  0.21400  0.05431  Biso   1.000  O
  O13      1.0000 0.91675  0.28600  0.55431  Biso   1.000  O
  O14      1.0000 0.08325  0.28600  0.94569  Biso   1.000  O
  O15      1.0000 0.41675  0.78600  0.55431  Biso   1.000  O
  O16      1.0000 0.58325  0.78600  0.94569  Biso   1.000  O
  O17      1.0000 0.15505  0.95550  0.52776  Biso   1.000  O
  O18      1.0000 0.84495  0.95550  0.97224  Biso   1.000  O
  O19      1.0000 0.65505  0.45550  0.52776  Biso   1.000  O
  O20      1.0000 0.34495  0.45550  0.97224  Biso   1.000  O
  O21      1.0000 0.84495  0.04450  0.47224  Biso   1.000  O
  O22      1.0000 0.15505  0.04450  0.02776  Biso   1.000  O
  O23      1.0000 0.34495  0.54450  0.47224  Biso   1.000  O
  O24      1.0000 0.65505  0.54450  0.02776  Biso   1.000  O
  O25      1.0000 0.15470  0.19200  0.59893  Biso   1.000  O
  O26      1.0000 0.84530  0.19200  0.90107  Biso   1.000  O
  O27      1.0000 0.65470  0.69200  0.59893  Biso   1.000  O
  O28      1.0000 0.34530  0.69200  0.90107  Biso   1.000  O
  O29      1.0000 0.84530  0.80800  0.40107  Biso   1.000  O
  O30      1.0000 0.15470  0.80800  0.09893  Biso   1.000  O
  O31      1.0000 0.34530  0.30800  0.40107  Biso   1.000  O
  O32      1.0000 0.65470  0.30800  0.09893  Biso   1.000  O
  O33      1.0000 0.07236  0.49470  0.68242  Biso   1.000  O
  O34      1.0000 0.92764  0.49470  0.81758  Biso   1.000  O
  O35      1.0000 0.57236  0.99470  0.68242  Biso   1.000  O
  O36      1.0000 0.42764  0.99470  0.81758  Biso   1.000  O
  O37      1.0000 0.92764  0.50530  0.31758  Biso   1.000  O
  O38      1.0000 0.07236  0.50530  0.18242  Biso   1.000  O
  O39      1.0000 0.42764  0.00530  0.31758  Biso   1.000  O
  O40      1.0000 0.57236  0.00530  0.18242  Biso   1.000  O
  O41      1.0000 0.07501  0.77220  0.74120  Biso   1.000  O
  O42      1.0000 0.92499  0.77220  0.75880  Biso   1.000  O
  O43      1.0000 0.57501  0.27220  0.74120  Biso   1.000  O
  O44      1.0000 0.42499  0.27220  0.75880  Biso   1.000  O
  O45      1.0000 0.92499  0.22780  0.25880  Biso   1.000  O
  O46      1.0000 0.07501  0.22780  0.24120  Biso   1.000  O
  O47      1.0000 0.42499  0.72780  0.25880  Biso   1.000  O
  O48      1.0000 0.57501  0.72780  0.24120  Biso   1.000  O
  O49      1.0000 0.14717  0.19740  0.74647  Biso   1.000  O
  O50      1.0000 0.85283  0.19740  0.75353  Biso   1.000  O
  O51      1.0000 0.64717  0.69740  0.74647  Biso   1.000  O
  O52      1.0000 0.35283  0.69740  0.75353  Biso   1.000  O
  O53      1.0000 0.85283  0.80260  0.25353  Biso   1.000  O
  O54      1.0000 0.14717  0.80260  0.24647  Biso   1.000  O
  O55      1.0000 0.35283  0.30260  0.25353  Biso   1.000  O
  O56      1.0000 0.64717  0.30260  0.24647  Biso   1.000  O
  O57      1.0000 0.06967  0.90110  0.32327  Biso   1.000  O
  O58      1.0000 0.93033  0.90110  0.17673  Biso   1.000  O
  O59      1.0000 0.56967  0.40110  0.32327  Biso   1.000  O
  O60      1.0000 0.43033  0.40110  0.17673  Biso   1.000  O
  O61      1.0000 0.93033  0.09890  0.67673  Biso   1.000  O
  O62      1.0000 0.06967  0.09890  0.82327  Biso   1.000  O
  O63      1.0000 0.43033  0.59890  0.67673  Biso   1.000  O
  O64      1.0000 0.56967  0.59890  0.82327  Biso   1.000  O
  O65      1.0000 0.15236  0.57870  0.35170  Biso   1.000  O
  O66      1.0000 0.84764  0.57870  0.14830  Biso   1.000  O
  O67      1.0000 0.65236  0.07870  0.35170  Biso   1.000  O
  O68      1.0000 0.34764  0.07870  0.14830  Biso   1.000  O
  O69      1.0000 0.84764  0.42130  0.64830  Biso   1.000  O
  O70      1.0000 0.15236  0.42130  0.85170  Biso   1.000  O
  O71      1.0000 0.34764  0.92130  0.64830  Biso   1.000  O
  O72      1.0000 0.65236  0.92130  0.85170  Biso   1.000  O
  O73      1.0000 0.30412  0.88340  0.51419  Biso   1.000  O
  O74      1.0000 0.69588  0.88340  0.98581  Biso   1.000  O
  O75      1.0000 0.80412  0.38340  0.51419  Biso   1.000  O
  O76      1.0000 0.19588  0.38340  0.98581  Biso   1.000  O
  O77      1.0000 0.69588  0.11660  0.48581  Biso   1.000  O
  O78      1.0000 0.30412  0.11660  0.01419  Biso   1.000  O
  O79      1.0000 0.19588  0.61660  0.48581  Biso   1.000  O
  O80      1.0000 0.80412  0.61660  0.01419  Biso   1.000  O
  O81      1.0000 0.16497  0.97660  0.82802  Biso   1.000  O
  O82      1.0000 0.83503  0.97660  0.67198  Biso   1.000  O
  O83      1.0000 0.66497  0.47660  0.82802  Biso   1.000  O
  O84      1.0000 0.33503  0.47660  0.67198  Biso   1.000  O
  O85      1.0000 0.83503  0.02340  0.17198  Biso   1.000  O
  O86      1.0000 0.16497  0.02340  0.32802  Biso   1.000  O
  O87      1.0000 0.33503  0.52340  0.17198  Biso   1.000  O
  O88      1.0000 0.66497  0.52340  0.32802  Biso   1.000  O
  O89      1.0000 0.22947  0.96020  0.45054  Biso   1.000  O
  O90      1.0000 0.77053  0.96020  0.04946  Biso   1.000  O
  O91      1.0000 0.72947  0.46020  0.45054  Biso   1.000  O
  O92      1.0000 0.27053  0.46020  0.04946  Biso   1.000  O
  O93      1.0000 0.77053  0.03980  0.54946  Biso   1.000  O
  O94      1.0000 0.22947  0.03980  0.95054  Biso   1.000  O
  O95      1.0000 0.27053  0.53980  0.54946  Biso   1.000  O
  O96      1.0000 0.72947  0.53980  0.95054  Biso   1.000  O
  O97      1.0000 0.12131  0.23220  0.41911  Biso   1.000  O
  O98      1.0000 0.87869  0.23220  0.08089  Biso   1.000  O
  O99      1.0000 0.62131  0.73220  0.41911  Biso   1.000  O
  O100     1.0000 0.37869  0.73220  0.08089  Biso   1.000  O
  O101     1.0000 0.87869  0.76780  0.58089  Biso   1.000  O
  O102     1.0000 0.12131  0.76780  0.91911  Biso   1.000  O
  O103     1.0000 0.37869  0.26780  0.58089  Biso   1.000  O
  O104     1.0000 0.62131  0.26780  0.91911  Biso   1.000  O
  C1       1.0000 0.02601  0.06600  0.61460  Biso   1.000  C
  C2       1.0000 0.97399  0.06600  0.88540  Biso   1.000  C
  C3       1.0000 0.52601  0.56600  0.61460  Biso   1.000  C
  C4       1.0000 0.47399  0.56600  0.88540  Biso   1.000  C
  C5       1.0000 0.97399  0.93400  0.38540  Biso   1.000  C
  C6       1.0000 0.02601  0.93400  0.11460  Biso   1.000  C
  C7       1.0000 0.47399  0.43400  0.38540  Biso   1.000  C
  C8       1.0000 0.52601  0.43400  0.11460  Biso   1.000  C
  H1       1.0000 0.01370  0.15670  0.63870  Biso   1.000  H
  H2       1.0000 0.98630  0.15670  0.86130  Biso   1.000  H
  H3       1.0000 0.51370  0.65670  0.63870  Biso   1.000  H
  H4       1.0000 0.48630  0.65670  0.86130  Biso   1.000  H
  H5       1.0000 0.98630  0.84330  0.36130  Biso   1.000  H
  H6       1.0000 0.01370  0.84330  0.13870  Biso   1.000  H
  H7       1.0000 0.48630  0.34330  0.36130  Biso   1.000  H
  H8       1.0000 0.51370  0.34330  0.13870  Biso   1.000  H
  C9       1.0000 0.00005  0.89210  0.59050  Biso   1.000  C
  C10      1.0000 0.99995  0.89210  0.90950  Biso   1.000  C
  C11      1.0000 0.50005  0.39210  0.59050  Biso   1.000  C
  C12      1.0000 0.49995  0.39210  0.90950  Biso   1.000  C
  C13      1.0000 0.99995  0.10790  0.40950  Biso   1.000  C
  C14      1.0000 0.00005  0.10790  0.09050  Biso   1.000  C
  C15      1.0000 0.49995  0.60790  0.40950  Biso   1.000  C
  C16      1.0000 0.50005  0.60790  0.09050  Biso   1.000  C
  H9       1.0000 0.97080  0.86430  0.59870  Biso   1.000  H
  H10      1.0000 0.02920  0.86430  0.90130  Biso   1.000  H
  H11      1.0000 0.47080  0.36430  0.59870  Biso   1.000  H
  H12      1.0000 0.52920  0.36430  0.90130  Biso   1.000  H
  H13      1.0000 0.02920  0.13570  0.40130  Biso   1.000  H
  H14      1.0000 0.97080  0.13570  0.09870  Biso   1.000  H
  H15      1.0000 0.52920  0.63570  0.40130  Biso   1.000  H
  H16      1.0000 0.47080  0.63570  0.09870  Biso   1.000  H
  C17      1.0000 0.01857  0.76190  0.55430  Biso   1.000  C
  C18      1.0000 0.98143  0.76190  0.94570  Biso   1.000  C
  C19      1.0000 0.51857  0.26190  0.55430  Biso   1.000  C
  C20      1.0000 0.48143  0.26190  0.94570  Biso   1.000  C
  C21      1.0000 0.98143  0.23810  0.44570  Biso   1.000  C
  C22      1.0000 0.01857  0.23810  0.05430  Biso   1.000  C
  C23      1.0000 0.48143  0.73810  0.44570  Biso   1.000  C
  C24      1.0000 0.51857  0.73810  0.05430  Biso   1.000  C
  H17      1.0000 0.00170  0.64350  0.53840  Biso   1.000  H
  H18      1.0000 0.99830  0.64350  0.96160  Biso   1.000  H
  H19      1.0000 0.50170  0.14350  0.53840  Biso   1.000  H
  H20      1.0000 0.49830  0.14350  0.96160  Biso   1.000  H
  H21      1.0000 0.99830  0.35650  0.46160  Biso   1.000  H
  H22      1.0000 0.00170  0.35650  0.03840  Biso   1.000  H
  H23      1.0000 0.49830  0.85650  0.46160  Biso   1.000  H
  H24      1.0000 0.50170  0.85650  0.03840  Biso   1.000  H
  C25      1.0000 0.06209  0.80300  0.54090  Biso   1.000  C
  C26      1.0000 0.93791  0.80300  0.95910  Biso   1.000  C
  C27      1.0000 0.56209  0.30300  0.54090  Biso   1.000  C
  C28      1.0000 0.43791  0.30300  0.95910  Biso   1.000  C
  C29      1.0000 0.93791  0.19700  0.45910  Biso   1.000  C
  C30      1.0000 0.06209  0.19700  0.04090  Biso   1.000  C
  C31      1.0000 0.43791  0.69700  0.45910  Biso   1.000  C
  C32      1.0000 0.56209  0.69700  0.04090  Biso   1.000  C
  C33      1.0000 0.08643  0.98040  0.56759  Biso   1.000  C
  C34      1.0000 0.91357  0.98040  0.93241  Biso   1.000  C
  C35      1.0000 0.58643  0.48040  0.56759  Biso   1.000  C
  C36      1.0000 0.41357  0.48040  0.93241  Biso   1.000  C
  C37      1.0000 0.91357  0.01960  0.43241  Biso   1.000  C
  C38      1.0000 0.08643  0.01960  0.06759  Biso   1.000  C
  C39      1.0000 0.41357  0.51960  0.43241  Biso   1.000  C
  C40      1.0000 0.58643  0.51960  0.06759  Biso   1.000  C
  C41      1.0000 0.13498  0.04680  0.56307  Biso   1.000  C
  C42      1.0000 0.86502  0.04680  0.93693  Biso   1.000  C
  C43      1.0000 0.63498  0.54680  0.56307  Biso   1.000  C
  C44      1.0000 0.36502  0.54680  0.93693  Biso   1.000  C
  C45      1.0000 0.86502  0.95320  0.43693  Biso   1.000  C
  C46      1.0000 0.13498  0.95320  0.06307  Biso   1.000  C
  C47      1.0000 0.36502  0.45320  0.43693  Biso   1.000  C
  C48      1.0000 0.63498  0.45320  0.06307  Biso   1.000  C
  C49      1.0000 0.07964  0.65230  0.49950  Biso   1.000  C
  C50      1.0000 0.92036  0.65230  0.00050  Biso   1.000  C
  C51      1.0000 0.57964  0.15230  0.49950  Biso   1.000  C
  C52      1.0000 0.42036  0.15230  0.00050  Biso   1.000  C
  C53      1.0000 0.92036  0.34770  0.50050  Biso   1.000  C
  C54      1.0000 0.07964  0.34770  0.99950  Biso   1.000  C
  C55      1.0000 0.42036  0.84770  0.50050  Biso   1.000  C
  C56      1.0000 0.57964  0.84770  0.99950  Biso   1.000  C
  C57      1.0000 0.19663  0.59230  0.64700  Biso   1.000  C
  C58      1.0000 0.80337  0.59230  0.85300  Biso   1.000  C
  C59      1.0000 0.69663  0.09230  0.64700  Biso   1.000  C
  C60      1.0000 0.30337  0.09230  0.85300  Biso   1.000  C
  C61      1.0000 0.80337  0.40770  0.35300  Biso   1.000  C
  C62      1.0000 0.19663  0.40770  0.14700  Biso   1.000  C
  C63      1.0000 0.30337  0.90770  0.35300  Biso   1.000  C
  C64      1.0000 0.69663  0.90770  0.14700  Biso   1.000  C
  H25      1.0000 0.20520  0.49670  0.62070  Biso   1.000  H
  H26      1.0000 0.79480  0.49670  0.87930  Biso   1.000  H
  H27      1.0000 0.70520  0.99670  0.62070  Biso   1.000  H
  H28      1.0000 0.29480  0.99670  0.87930  Biso   1.000  H
  H29      1.0000 0.79480  0.50330  0.37930  Biso   1.000  H
  H30      1.0000 0.20520  0.50330  0.12070  Biso   1.000  H
  H31      1.0000 0.29480  0.00330  0.37930  Biso   1.000  H
  H32      1.0000 0.70520  0.00330  0.12070  Biso   1.000  H
  C65      1.0000 0.22590  0.75830  0.66840  Biso   1.000  C
  C66      1.0000 0.77410  0.75830  0.83160  Biso   1.000  C
  C67      1.0000 0.72590  0.25830  0.66840  Biso   1.000  C
  C68      1.0000 0.27410  0.25830  0.83160  Biso   1.000  C
  C69      1.0000 0.77410  0.24170  0.33160  Biso   1.000  C
  C70      1.0000 0.22590  0.24170  0.16840  Biso   1.000  C
  C71      1.0000 0.27410  0.74170  0.33160  Biso   1.000  C
  C72      1.0000 0.72590  0.74170  0.16840  Biso   1.000  C
  H33      1.0000 0.25420  0.77540  0.65680  Biso   1.000  H
  H34      1.0000 0.74580  0.77540  0.84320  Biso   1.000  H
  H35      1.0000 0.75420  0.27540  0.65680  Biso   1.000  H
  H36      1.0000 0.24580  0.27540  0.84320  Biso   1.000  H
  H37      1.0000 0.74580  0.22460  0.34320  Biso   1.000  H
  H38      1.0000 0.25420  0.22460  0.15680  Biso   1.000  H
  H39      1.0000 0.24580  0.72460  0.34320  Biso   1.000  H
  H40      1.0000 0.75420  0.72460  0.15680  Biso   1.000  H
  C73      1.0000 0.21276  0.89790  0.70700  Biso   1.000  C
  C74      1.0000 0.78724  0.89790  0.79300  Biso   1.000  C
  C75      1.0000 0.71276  0.39790  0.70700  Biso   1.000  C
  C76      1.0000 0.28724  0.39790  0.79300  Biso   1.000  C
  C77      1.0000 0.78724  0.10210  0.29300  Biso   1.000  C
  C78      1.0000 0.21276  0.10210  0.20700  Biso   1.000  C
  C79      1.0000 0.28724  0.60210  0.29300  Biso   1.000  C
  C80      1.0000 0.71276  0.60210  0.20700  Biso   1.000  C
  H41      1.0000 0.23190  0.01240  0.72070  Biso   1.000  H
  H42      1.0000 0.76810  0.01240  0.77930  Biso   1.000  H
  H43      1.0000 0.73190  0.51240  0.72070  Biso   1.000  H
  H44      1.0000 0.26810  0.51240  0.77930  Biso   1.000  H
  H45      1.0000 0.76810  0.98760  0.27930  Biso   1.000  H
  H46      1.0000 0.23190  0.98760  0.22070  Biso   1.000  H
  H47      1.0000 0.26810  0.48760  0.27930  Biso   1.000  H
  H48      1.0000 0.73190  0.48760  0.22070  Biso   1.000  H
  C81      1.0000 0.17083  0.86980  0.72590  Biso   1.000  C
  C82      1.0000 0.82917  0.86980  0.77410  Biso   1.000  C
  C83      1.0000 0.67083  0.36980  0.72590  Biso   1.000  C
  C84      1.0000 0.32917  0.36980  0.77410  Biso   1.000  C
  C85      1.0000 0.82917  0.13020  0.27410  Biso   1.000  C
  C86      1.0000 0.17083  0.13020  0.22590  Biso   1.000  C
  C87      1.0000 0.32917  0.63020  0.27410  Biso   1.000  C
  C88      1.0000 0.67083  0.63020  0.22590  Biso   1.000  C
  C89      1.0000 0.14248  0.70070  0.70145  Biso   1.000  C
  C90      1.0000 0.85752  0.70070  0.79855  Biso   1.000  C
  C91      1.0000 0.64248  0.20070  0.70145  Biso   1.000  C
  C92      1.0000 0.35752  0.20070  0.79855  Biso   1.000  C
  C93      1.0000 0.85752  0.29930  0.29855  Biso   1.000  C
  C94      1.0000 0.14248  0.29930  0.20145  Biso   1.000  C
  C95      1.0000 0.35752  0.79930  0.29855  Biso   1.000  C
  C96      1.0000 0.64248  0.79930  0.20145  Biso   1.000  C
  C97      1.0000 0.09281  0.65590  0.71050  Biso   1.000  C
  C98      1.0000 0.90719  0.65590  0.78950  Biso   1.000  C
  C99      1.0000 0.59281  0.15590  0.71050  Biso   1.000  C
  C100     1.0000 0.40719  0.15590  0.78950  Biso   1.000  C
  C101     1.0000 0.90719  0.34410  0.28950  Biso   1.000  C
  C102     1.0000 0.09281  0.34410  0.21050  Biso   1.000  C
  C103     1.0000 0.40719  0.84410  0.28950  Biso   1.000  C
  C104     1.0000 0.59281  0.84410  0.21050  Biso   1.000  C
  C105     1.0000 0.15895  0.02580  0.76980  Biso   1.000  C
  C106     1.0000 0.84105  0.02580  0.73020  Biso   1.000  C
  C107     1.0000 0.65895  0.52580  0.76980  Biso   1.000  C
  C108     1.0000 0.34105  0.52580  0.73020  Biso   1.000  C
  C109     1.0000 0.84105  0.97420  0.23020  Biso   1.000  C
  C110     1.0000 0.15895  0.97420  0.26980  Biso   1.000  C
  C111     1.0000 0.34105  0.47420  0.23020  Biso   1.000  C
  C112     1.0000 0.65895  0.47420  0.26980  Biso   1.000  C
  C113     1.0000 0.25998  0.84900  0.49000  Biso   1.000  C
  C114     1.0000 0.74002  0.84900  0.01000  Biso   1.000  C
  C115     1.0000 0.75998  0.34900  0.49000  Biso   1.000  C
  C116     1.0000 0.24002  0.34900  0.01000  Biso   1.000  C
  C117     1.0000 0.74002  0.15100  0.51000  Biso   1.000  C
  C118     1.0000 0.25998  0.15100  0.99000  Biso   1.000  C
  C119     1.0000 0.24002  0.65100  0.51000  Biso   1.000  C
  C120     1.0000 0.75998  0.65100  0.99000  Biso   1.000  C
  O105     1.0000 0.23474  0.34930  0.38440  Biso   1.000  O
  O106     1.0000 0.76526  0.34930  0.11560  Biso   1.000  O
  O107     1.0000 0.73474  0.84930  0.38440  Biso   1.000  O
  O108     1.0000 0.26526  0.84930  0.11560  Biso   1.000  O
  O109     1.0000 0.76526  0.65070  0.61560  Biso   1.000  O
  O110     1.0000 0.23474  0.65070  0.88440  Biso   1.000  O
  O111     1.0000 0.26526  0.15070  0.61560  Biso   1.000  O
  O112     1.0000 0.73474  0.15070  0.88440  Biso   1.000  O
  H49      1.0000 0.25280  0.43420  0.41030  Biso   1.000  H
  H50      1.0000 0.74720  0.43420  0.08970  Biso   1.000  H
  H51      1.0000 0.75280  0.93420  0.41030  Biso   1.000  H
  H52      1.0000 0.24720  0.93420  0.08970  Biso   1.000  H
  H53      1.0000 0.74720  0.56580  0.58970  Biso   1.000  H
  H54      1.0000 0.25280  0.56580  0.91030  Biso   1.000  H
  H55      1.0000 0.24720  0.06580  0.58970  Biso   1.000  H
  H56      1.0000 0.75280  0.06580  0.91030  Biso   1.000  H
  H57      1.0000 0.25110  0.28940  0.36290  Biso   1.000  H
  H58      1.0000 0.74890  0.28940  0.13710  Biso   1.000  H
  H59      1.0000 0.75110  0.78940  0.36290  Biso   1.000  H
  H60      1.0000 0.24890  0.78940  0.13710  Biso   1.000  H
  H61      1.0000 0.74890  0.71060  0.63710  Biso   1.000  H
  H62      1.0000 0.25110  0.71060  0.86290  Biso   1.000  H
  H63      1.0000 0.24890  0.21060  0.63710  Biso   1.000  H
  H64      1.0000 0.75110  0.21060  0.86290  Biso   1.000  H
  H65      1.0000 0.01660  0.46930  0.75570  Biso   1.000  H
  H66      1.0000 0.98340  0.46930  0.74430  Biso   1.000  H
  H67      1.0000 0.51660  0.96930  0.75570  Biso   1.000  H
  H68      1.0000 0.48340  0.96930  0.74430  Biso   1.000  H
  H69      1.0000 0.98340  0.53070  0.24430  Biso   1.000  H
  H70      1.0000 0.01660  0.53070  0.25570  Biso   1.000  H
  H71      1.0000 0.48340  0.03070  0.24430  Biso   1.000  H
  H72      1.0000 0.51660  0.03070  0.25570  Biso   1.000  H
  O113     1.0000 0.99410  0.38280  0.74150  Biso   1.000  O
  O114     1.0000 0.00590  0.38280  0.75850  Biso   1.000  O
  O115     1.0000 0.49410  0.88280  0.74150  Biso   1.000  O
  O116     1.0000 0.50590  0.88280  0.75850  Biso   1.000  O
  O117     1.0000 0.00590  0.61720  0.25850  Biso   1.000  O
  O118     1.0000 0.99410  0.61720  0.24150  Biso   1.000  O
  O119     1.0000 0.50590  0.11720  0.25850  Biso   1.000  O
  O120     1.0000 0.49410  0.11720  0.24150  Biso   1.000  O
  H73      1.0000 0.97290  0.43040  0.70820  Biso   1.000  H
  H74      1.0000 0.02710  0.43040  0.79180  Biso   1.000  H
  H75      1.0000 0.47290  0.93040  0.70820  Biso   1.000  H
  H76      1.0000 0.52710  0.93040  0.79180  Biso   1.000  H
  H77      1.0000 0.02710  0.56960  0.29180  Biso   1.000  H
  H78      1.0000 0.97290  0.56960  0.20820  Biso   1.000  H
  H79      1.0000 0.52710  0.06960  0.29180  Biso   1.000  H
  H80      1.0000 0.47290  0.06960  0.20820  Biso   1.000  H
