data_image0
_cell_length_a       8.9432
_cell_length_b       9.8441
_cell_length_c       14.47
_cell_angle_alpha    90
_cell_angle_beta     103.632
_cell_angle_gamma    90

_symmetry_space_group_name_H-M    "P 1"
_symmetry_int_tables_number       1

loop_
  _symmetry_equiv_pos_as_xyz
  'x, y, z'

loop_
  _atom_site_label
  _atom_site_occupancy
  _atom_site_fract_x
  _atom_site_fract_y
  _atom_site_fract_z
  _atom_site_thermal_displace_type
  _atom_site_B_iso_or_equiv
  _atom_site_type_symbol
  Cu1      1.0000 0.40735  0.66243  0.63796  Biso   1.000  Cu
  Cu2      1.0000 0.59265  0.16243  0.86204  Biso   1.000  Cu
  Cu3      1.0000 0.59265  0.33757  0.36204  Biso   1.000  Cu
  Cu4      1.0000 0.40735  0.83757  0.13796  Biso   1.000  Cu
  Cu5      1.0000 0.50000  0.00000  0.50000  Biso   1.000  Cu
  Cu6      1.0000 0.50000  0.50000  0.00000  Biso   1.000  Cu
  Na1      1.0000 0.02804  0.62325  0.63873  Biso   1.000  Na
  Na2      1.0000 0.97196  0.12325  0.86127  Biso   1.000  Na
  Na3      1.0000 0.97196  0.37675  0.36127  Biso   1.000  Na
  Na4      1.0000 0.02804  0.87675  0.13873  Biso   1.000  Na
  O1       1.0000 0.61070  0.73572  0.69804  Biso   1.000  O
  O2       1.0000 0.38930  0.23572  0.80196  Biso   1.000  O
  O3       1.0000 0.38930  0.26428  0.30196  Biso   1.000  O
  O4       1.0000 0.61070  0.76428  0.19804  Biso   1.000  O
  O5       1.0000 0.85690  0.67501  0.74221  Biso   1.000  O
  O6       1.0000 0.14310  0.17501  0.75779  Biso   1.000  O
  O7       1.0000 0.14310  0.32499  0.25779  Biso   1.000  O
  O8       1.0000 0.85690  0.82499  0.24221  Biso   1.000  O
  O9       1.0000 0.24690  0.55865  0.54944  Biso   1.000  O
  O10      1.0000 0.75310  0.05865  0.95056  Biso   1.000  O
  O11      1.0000 0.75310  0.44135  0.45056  Biso   1.000  O
  O12      1.0000 0.24690  0.94135  0.04944  Biso   1.000  O
  O13      1.0000 0.20220  0.35365  0.48315  Biso   1.000  O
  O14      1.0000 0.79780  0.85365  0.01685  Biso   1.000  O
  O15      1.0000 0.79780  0.64635  0.51685  Biso   1.000  O
  O16      1.0000 0.20220  0.14635  0.98315  Biso   1.000  O
  O17      1.0000 0.34870  0.83648  0.57967  Biso   1.000  O
  O18      1.0000 0.65130  0.33648  0.92033  Biso   1.000  O
  O19      1.0000 0.65130  0.16352  0.42033  Biso   1.000  O
  O20      1.0000 0.34870  0.66352  0.07967  Biso   1.000  O
  O21      1.0000 0.10700  0.83560  0.59614  Biso   1.000  O
  O22      1.0000 0.89300  0.33560  0.90386  Biso   1.000  O
  O23      1.0000 0.89300  0.16440  0.40386  Biso   1.000  O
  O24      1.0000 0.10700  0.66440  0.09614  Biso   1.000  O
  O25      1.0000 0.45416  0.91655  0.37452  Biso   1.000  O
  O26      1.0000 0.54584  0.41655  0.12548  Biso   1.000  O
  O27      1.0000 0.54584  0.08345  0.62548  Biso   1.000  O
  O28      1.0000 0.45416  0.58345  0.87452  Biso   1.000  O
  O29      1.0000 0.26460  0.86522  0.25060  Biso   1.000  O
  O30      1.0000 0.73540  0.36522  0.24940  Biso   1.000  O
  O31      1.0000 0.73540  0.13478  0.74940  Biso   1.000  O
  O32      1.0000 0.26460  0.63478  0.75060  Biso   1.000  O
  O33      1.0000 0.99310  0.38630  0.63865  Biso   1.000  O
  O34      1.0000 0.00690  0.88630  0.86135  Biso   1.000  O
  O35      1.0000 0.00690  0.61370  0.36135  Biso   1.000  O
  O36      1.0000 0.99310  0.11370  0.13865  Biso   1.000  O
  N1       1.0000 0.50500  0.48230  0.67410  Biso   1.000  N
  N2       1.0000 0.49500  0.98230  0.82590  Biso   1.000  N
  N3       1.0000 0.49500  0.51770  0.32590  Biso   1.000  N
  N4       1.0000 0.50500  0.01770  0.17410  Biso   1.000  N
  N5       1.0000 0.28110  0.06220  0.46430  Biso   1.000  N
  N6       1.0000 0.71890  0.56220  0.03570  Biso   1.000  N
  N7       1.0000 0.71890  0.93780  0.53570  Biso   1.000  N
  N8       1.0000 0.28110  0.43780  0.96430  Biso   1.000  N
  C1       1.0000 0.71900  0.64740  0.71275  Biso   1.000  C
  C2       1.0000 0.28100  0.14740  0.78725  Biso   1.000  C
  C3       1.0000 0.28100  0.35260  0.28725  Biso   1.000  C
  C4       1.0000 0.71900  0.85260  0.21275  Biso   1.000  C
  C5       1.0000 0.67330  0.50000  0.69110  Biso   1.000  C
  C6       1.0000 0.32670  0.00000  0.80890  Biso   1.000  C
  C7       1.0000 0.32670  0.50000  0.30890  Biso   1.000  C
  C8       1.0000 0.67330  0.00000  0.19110  Biso   1.000  C
  H1       1.0000 0.70750  0.47060  0.63470  Biso   1.000  H
  H2       1.0000 0.29250  0.97060  0.86530  Biso   1.000  H
  H3       1.0000 0.29250  0.52940  0.36530  Biso   1.000  H
  H4       1.0000 0.70750  0.02940  0.13470  Biso   1.000  H
  H5       1.0000 0.72460  0.44290  0.74470  Biso   1.000  H
  H6       1.0000 0.27540  0.94290  0.75530  Biso   1.000  H
  H7       1.0000 0.27540  0.55710  0.25530  Biso   1.000  H
  H8       1.0000 0.72460  0.05710  0.24470  Biso   1.000  H
  C9       1.0000 0.43330  0.38330  0.60075  Biso   1.000  C
  C10      1.0000 0.56670  0.88330  0.89925  Biso   1.000  C
  C11      1.0000 0.56670  0.61670  0.39925  Biso   1.000  C
  C12      1.0000 0.43330  0.11670  0.10075  Biso   1.000  C
  H9       1.0000 0.41620  0.29800  0.63160  Biso   1.000  H
  H10      1.0000 0.58380  0.79800  0.86840  Biso   1.000  H
  H11      1.0000 0.58380  0.70200  0.36840  Biso   1.000  H
  H12      1.0000 0.41620  0.20200  0.13160  Biso   1.000  H
  H13      1.0000 0.50380  0.36460  0.55970  Biso   1.000  H
  H14      1.0000 0.49620  0.86460  0.94030  Biso   1.000  H
  H15      1.0000 0.49620  0.63540  0.44030  Biso   1.000  H
  H16      1.0000 0.50380  0.13540  0.05970  Biso   1.000  H
  C13      1.0000 0.28130  0.43350  0.54014  Biso   1.000  C
  C14      1.0000 0.71870  0.93350  0.95986  Biso   1.000  C
  C15      1.0000 0.71870  0.56650  0.45986  Biso   1.000  C
  C16      1.0000 0.28130  0.06650  0.04014  Biso   1.000  C
  C17      1.0000 0.21690  0.89040  0.57446  Biso   1.000  C
  C18      1.0000 0.78310  0.39040  0.92554  Biso   1.000  C
  C19      1.0000 0.78310  0.10960  0.42554  Biso   1.000  C
  C20      1.0000 0.21690  0.60960  0.07446  Biso   1.000  C
  C21      1.0000 0.20410  0.03860  0.54247  Biso   1.000  C
  C22      1.0000 0.79590  0.53860  0.95753  Biso   1.000  C
  C23      1.0000 0.79590  0.96140  0.45753  Biso   1.000  C
  C24      1.0000 0.20410  0.46140  0.04247  Biso   1.000  C
  H17      1.0000 0.09530  0.06350  0.52140  Biso   1.000  H
  H18      1.0000 0.90470  0.56350  0.97860  Biso   1.000  H
  H19      1.0000 0.90470  0.93650  0.47860  Biso   1.000  H
  H20      1.0000 0.09530  0.43650  0.02140  Biso   1.000  H
  H21      1.0000 0.25090  0.09690  0.59640  Biso   1.000  H
  H22      1.0000 0.74910  0.59690  0.90360  Biso   1.000  H
  H23      1.0000 0.74910  0.90310  0.40360  Biso   1.000  H
  H24      1.0000 0.25090  0.40310  0.09640  Biso   1.000  H
  C25      1.0000 0.20220  0.99390  0.37500  Biso   1.000  C
  C26      1.0000 0.79780  0.49390  0.12500  Biso   1.000  C
  C27      1.0000 0.79780  0.00610  0.62500  Biso   1.000  C
  C28      1.0000 0.20220  0.50610  0.87500  Biso   1.000  C
  H25      1.0000 0.14670  0.06180  0.33030  Biso   1.000  H
  H26      1.0000 0.85330  0.56180  0.16970  Biso   1.000  H
  H27      1.0000 0.85330  0.93820  0.66970  Biso   1.000  H
  H28      1.0000 0.14670  0.43820  0.83030  Biso   1.000  H
  H29      1.0000 0.12670  0.92940  0.38850  Biso   1.000  H
  H30      1.0000 0.87330  0.42940  0.11150  Biso   1.000  H
  H31      1.0000 0.87330  0.07060  0.61150  Biso   1.000  H
  H32      1.0000 0.12670  0.57060  0.88850  Biso   1.000  H
  C29      1.0000 0.31420  0.91940  0.32982  Biso   1.000  C
  C30      1.0000 0.68580  0.41940  0.17018  Biso   1.000  C
  C31      1.0000 0.68580  0.08060  0.67018  Biso   1.000  C
  C32      1.0000 0.31420  0.58060  0.82982  Biso   1.000  C
  H33      1.0000 0.03600  0.32000  0.66900  Biso   1.000  H
  H34      1.0000 0.96400  0.82000  0.83100  Biso   1.000  H
  H35      1.0000 0.96400  0.68000  0.33100  Biso   1.000  H
  H36      1.0000 0.03600  0.18000  0.16900  Biso   1.000  H
  H37      1.0000 0.95500  0.36500  0.58500  Biso   1.000  H
  H38      1.0000 0.04500  0.86500  0.91500  Biso   1.000  H
  H39      1.0000 0.04500  0.63500  0.41500  Biso   1.000  H
  H40      1.0000 0.95500  0.13500  0.08500  Biso   1.000  H
  H41      1.0000 0.27700  0.15110  0.45480  Biso   1.000  H
  H42      1.0000 0.72300  0.65110  0.04520  Biso   1.000  H
  H43      1.0000 0.72300  0.84890  0.54520  Biso   1.000  H
  H44      1.0000 0.27700  0.34890  0.95480  Biso   1.000  H
  H45      1.0000 0.48600  0.45900  0.73050  Biso   1.000  H
  H46      1.0000 0.51400  0.95900  0.76950  Biso   1.000  H
  H47      1.0000 0.51400  0.54100  0.26950  Biso   1.000  H
  H48      1.0000 0.48600  0.04100  0.23050  Biso   1.000  H
