data_image0
_cell_length_a       15.515
_cell_length_b       16.214
_cell_length_c       23.466
_cell_angle_alpha    90.73
_cell_angle_beta     97.26
_cell_angle_gamma    100.57

_symmetry_space_group_name_H-M    "P 1"
_symmetry_int_tables_number       1

loop_
  _symmetry_equiv_pos_as_xyz
  'x, y, z'

loop_
  _atom_site_label
  _atom_site_occupancy
  _atom_site_fract_x
  _atom_site_fract_y
  _atom_site_fract_z
  _atom_site_thermal_displace_type
  _atom_site_B_iso_or_equiv
  _atom_site_type_symbol
  Cu1      1.0000 0.28298  0.01670  0.63498  Biso   1.000  Cu
  Cu2      1.0000 0.71702  0.98330  0.36502  Biso   1.000  Cu
  O1       1.0000 0.38000  0.02450  0.69770  Biso   1.000  O
  O2       1.0000 0.62000  0.97550  0.30230  Biso   1.000  O
  O3       1.0000 0.46250  0.13810  0.66740  Biso   1.000  O
  O4       1.0000 0.53750  0.86190  0.33260  Biso   1.000  O
  O5       1.0000 0.39110  0.61600  0.19970  Biso   1.000  O
  O6       1.0000 0.60890  0.38400  0.80030  Biso   1.000  O
  O7       1.0000 0.47880  0.54090  0.16520  Biso   1.000  O
  O8       1.0000 0.52120  0.45910  0.83480  Biso   1.000  O
  O9       1.0000 0.18270  0.00130  0.57390  Biso   1.000  O
  O10      1.0000 0.81730  0.99870  0.42610  Biso   1.000  O
  O11      1.0000 0.27120  0.09630  0.53290  Biso   1.000  O
  O12      1.0000 0.72880  0.90370  0.46710  Biso   1.000  O
  O13      1.0000 0.28000  0.51100  0.03460  Biso   1.000  O
  O14      1.0000 0.72000  0.48900  0.96540  Biso   1.000  O
  O15      1.0000 0.18910  0.57040  0.07840  Biso   1.000  O
  O16      1.0000 0.81090  0.42960  0.92160  Biso   1.000  O
  O17      1.0000 0.20810  0.90190  0.67970  Biso   1.000  O
  O18      1.0000 0.79190  0.09810  0.32030  Biso   1.000  O
  H1       1.0000 0.18040  0.91500  0.70650  Biso   1.000  H
  H2       1.0000 0.81960  0.08500  0.29350  Biso   1.000  H
  H3       1.0000 0.23910  0.86850  0.69570  Biso   1.000  H
  H4       1.0000 0.76090  0.13150  0.30430  Biso   1.000  H
  O19      1.0000 0.21150  0.66610  0.19100  Biso   1.000  O
  O20      1.0000 0.78850  0.33390  0.80900  Biso   1.000  O
  H5       1.0000 0.23990  0.71130  0.20820  Biso   1.000  H
  H6       1.0000 0.76010  0.28870  0.79180  Biso   1.000  H
  H7       1.0000 0.18750  0.64060  0.21810  Biso   1.000  H
  H8       1.0000 0.81250  0.35940  0.78190  Biso   1.000  H
  N1       1.0000 0.50950  0.97550  0.89440  Biso   1.000  N
  N2       1.0000 0.49050  0.02450  0.10560  Biso   1.000  N
  C1       1.0000 0.44520  0.08650  0.70350  Biso   1.000  C
  C2       1.0000 0.55480  0.91350  0.29650  Biso   1.000  C
  Cu3      1.0000 0.29185  0.59121  0.13912  Biso   1.000  Cu
  Cu4      1.0000 0.70815  0.40879  0.86088  Biso   1.000  Cu
  N3       1.0000 0.34830  0.68730  0.09340  Biso   1.000  N
  N4       1.0000 0.65170  0.31270  0.90660  Biso   1.000  N
  C3       1.0000 0.50520  0.08750  0.75840  Biso   1.000  C
  C4       1.0000 0.49480  0.91250  0.24160  Biso   1.000  C
  N5       1.0000 0.34220  0.94220  0.58950  Biso   1.000  N
  N6       1.0000 0.65780  0.05780  0.41050  Biso   1.000  N
  C5       1.0000 0.47810  0.03320  0.80270  Biso   1.000  C
  C6       1.0000 0.52190  0.96680  0.19730  Biso   1.000  C
  H9       1.0000 0.42170  0.00050  0.79950  Biso   1.000  H
  H10      1.0000 0.57830  0.99950  0.20050  Biso   1.000  H
  N7       1.0000 0.51900  0.70380  0.39950  Biso   1.000  N
  N8       1.0000 0.48100  0.29620  0.60050  Biso   1.000  N
  C7       1.0000 0.53950  0.03120  0.85070  Biso   1.000  C
  C8       1.0000 0.46050  0.96880  0.14930  Biso   1.000  C
  N9       1.0000 0.10670  0.13930  0.34290  Biso   1.000  N
  N10      1.0000 0.89330  0.86070  0.65710  Biso   1.000  N
  C9       1.0000 0.62330  0.07620  0.85740  Biso   1.000  C
  C10      1.0000 0.37670  0.92380  0.14260  Biso   1.000  C
  H11      1.0000 0.66300  0.07040  0.88960  Biso   1.000  H
  H12      1.0000 0.33700  0.92960  0.11040  Biso   1.000  H
  N11      1.0000 0.24660  0.48570  0.17940  Biso   1.000  N
  N12      1.0000 0.75340  0.51430  0.82060  Biso   1.000  N
  C11      1.0000 0.64840  0.13140  0.81480  Biso   1.000  C
  C12      1.0000 0.35160  0.86860  0.18520  Biso   1.000  C
  H13      1.0000 0.70430  0.16520  0.81910  Biso   1.000  H
  H14      1.0000 0.29570  0.83480  0.18090  Biso   1.000  H
  N13      1.0000 0.23590  0.10240  0.67800  Biso   1.000  N
  N14      1.0000 0.76410  0.89760  0.32200  Biso   1.000  N
  C13      1.0000 0.58860  0.13530  0.76590  Biso   1.000  C
  C14      1.0000 0.41140  0.86470  0.23410  Biso   1.000  C
  H15      1.0000 0.60590  0.17160  0.73730  Biso   1.000  H
  H16      1.0000 0.39410  0.82840  0.26270  Biso   1.000  H
  N15      1.0000 0.10440  0.40520  0.84690  Biso   1.000  N
  N16      1.0000 0.89560  0.59480  0.15310  Biso   1.000  N
  C15      1.0000 0.43750  0.98280  0.91660  Biso   1.000  C
  C16      1.0000 0.56250  0.01720  0.08340  Biso   1.000  C
  H17      1.0000 0.40680  0.02500  0.90450  Biso   1.000  H
  H18      1.0000 0.59320  0.97500  0.09550  Biso   1.000  H
  C17      1.0000 0.40620  0.92750  0.95850  Biso   1.000  C
  C18      1.0000 0.59380  0.07250  0.04150  Biso   1.000  C
  H19      1.0000 0.35420  0.93170  0.97310  Biso   1.000  H
  H20      1.0000 0.64580  0.06830  0.02690  Biso   1.000  H
  C19      1.0000 0.45260  0.86910  0.97670  Biso   1.000  C
  C20      1.0000 0.54740  0.13090  0.02330  Biso   1.000  C
  C21      1.0000 0.52980  0.86330  0.95400  Biso   1.000  C
  C22      1.0000 0.47020  0.13670  0.04600  Biso   1.000  C
  H21      1.0000 0.56340  0.82360  0.96690  Biso   1.000  H
  H22      1.0000 0.43660  0.17640  0.03310  Biso   1.000  H
  C23      1.0000 0.55520  0.91610  0.91300  Biso   1.000  C
  C24      1.0000 0.44480  0.08390  0.08700  Biso   1.000  C
  H23      1.0000 0.60600  0.91130  0.89690  Biso   1.000  H
  H24      1.0000 0.39400  0.08870  0.10310  Biso   1.000  H
  C25      1.0000 0.41630  0.80690  0.01730  Biso   1.000  C
  C26      1.0000 0.58370  0.19310  0.98270  Biso   1.000  C
  C27      1.0000 0.32720  0.78790  0.02170  Biso   1.000  C
  C28      1.0000 0.67280  0.21210  0.97830  Biso   1.000  C
  H25      1.0000 0.28850  0.81540  0.99910  Biso   1.000  H
  H26      1.0000 0.71150  0.18460  0.00090  Biso   1.000  H
  C29      1.0000 0.29480  0.72910  0.05910  Biso   1.000  C
  C30      1.0000 0.70520  0.27090  0.94090  Biso   1.000  C
  H27      1.0000 0.23430  0.71750  0.06100  Biso   1.000  H
  H28      1.0000 0.76570  0.28250  0.93900  Biso   1.000  H
  C31      1.0000 0.43390  0.70790  0.09090  Biso   1.000  C
  C32      1.0000 0.56610  0.29210  0.90910  Biso   1.000  C
  H29      1.0000 0.47100  0.68110  0.11540  Biso   1.000  H
  H30      1.0000 0.52900  0.31890  0.88460  Biso   1.000  H
  C33      1.0000 0.47310  0.76560  0.05510  Biso   1.000  C
  C34      1.0000 0.52690  0.23440  0.94490  Biso   1.000  C
  H31      1.0000 0.53410  0.77740  0.05540  Biso   1.000  H
  H32      1.0000 0.46590  0.22260  0.94460  Biso   1.000  H
  C35      1.0000 0.42420  0.96030  0.58180  Biso   1.000  C
  C36      1.0000 0.57580  0.03970  0.41820  Biso   1.000  C
  H33      1.0000 0.45870  0.00840  0.60040  Biso   1.000  H
  H34      1.0000 0.54130  0.99160  0.39960  Biso   1.000  H
  C37      1.0000 0.46450  0.91190  0.54710  Biso   1.000  C
  C38      1.0000 0.53550  0.08810  0.45290  Biso   1.000  C
  H35      1.0000 0.52330  0.93000  0.54190  Biso   1.000  H
  H36      1.0000 0.47670  0.07000  0.45810  Biso   1.000  H
  C39      1.0000 0.41920  0.83960  0.52130  Biso   1.000  C
  C40      1.0000 0.58080  0.16040  0.47870  Biso   1.000  C
  C41      1.0000 0.33070  0.82210  0.53110  Biso   1.000  C
  C42      1.0000 0.66930  0.17790  0.46890  Biso   1.000  C
  H37      1.0000 0.29430  0.77380  0.51400  Biso   1.000  H
  H38      1.0000 0.70570  0.22620  0.48600  Biso   1.000  H
  C43      1.0000 0.29740  0.87100  0.56340  Biso   1.000  C
  C44      1.0000 0.70260  0.12900  0.43660  Biso   1.000  C
  H39      1.0000 0.23820  0.85490  0.56850  Biso   1.000  H
  H40      1.0000 0.76180  0.14510  0.43150  Biso   1.000  H
  C45      1.0000 0.45500  0.78910  0.48260  Biso   1.000  C
  C46      1.0000 0.54500  0.21090  0.51740  Biso   1.000  C
  C47      1.0000 0.54260  0.80930  0.47220  Biso   1.000  C
  C48      1.0000 0.45740  0.19070  0.52780  Biso   1.000  C
  H41      1.0000 0.58090  0.85260  0.49380  Biso   1.000  H
  H42      1.0000 0.41910  0.14740  0.50620  Biso   1.000  H
  C49      1.0000 0.57360  0.76640  0.43060  Biso   1.000  C
  C50      1.0000 0.42640  0.23360  0.56940  Biso   1.000  C
  H43      1.0000 0.63230  0.78080  0.42420  Biso   1.000  H
  H44      1.0000 0.36770  0.21920  0.57580  Biso   1.000  H
  C51      1.0000 0.43590  0.67930  0.41010  Biso   1.000  C
  C52      1.0000 0.56410  0.32070  0.58990  Biso   1.000  C
  H45      1.0000 0.40000  0.63290  0.39010  Biso   1.000  H
  H46      1.0000 0.60000  0.36710  0.60990  Biso   1.000  H
  C53      1.0000 0.40410  0.72160  0.44970  Biso   1.000  C
  C54      1.0000 0.59590  0.27840  0.55030  Biso   1.000  C
  H47      1.0000 0.34530  0.70490  0.45530  Biso   1.000  H
  H48      1.0000 0.65470  0.29510  0.54470  Biso   1.000  H
  C55      1.0000 0.54670  0.65910  0.35380  Biso   1.000  C
  C56      1.0000 0.45330  0.34090  0.64620  Biso   1.000  C
  C57      1.0000 0.62820  0.63020  0.36280  Biso   1.000  C
  C58      1.0000 0.37180  0.36980  0.63720  Biso   1.000  C
  H49      1.0000 0.66440  0.63970  0.39790  Biso   1.000  H
  H50      1.0000 0.33560  0.36030  0.60210  Biso   1.000  H
  C59      1.0000 0.65170  0.58820  0.31870  Biso   1.000  C
  C60      1.0000 0.34830  0.41180  0.68130  Biso   1.000  C
  H51      1.0000 0.70620  0.57130  0.32320  Biso   1.000  H
  H52      1.0000 0.29380  0.42870  0.67680  Biso   1.000  H
  C61      1.0000 0.59640  0.56960  0.26670  Biso   1.000  C
  C62      1.0000 0.40360  0.43040  0.73330  Biso   1.000  C
  H53      1.0000 0.61120  0.53670  0.23800  Biso   1.000  H
  H54      1.0000 0.38880  0.46330  0.76200  Biso   1.000  H
  C63      1.0000 0.52000  0.60100  0.25890  Biso   1.000  C
  C64      1.0000 0.48000  0.39900  0.74110  Biso   1.000  C
  C65      1.0000 0.49470  0.64620  0.30270  Biso   1.000  C
  C66      1.0000 0.50530  0.35380  0.69730  Biso   1.000  C
  H55      1.0000 0.44260  0.66720  0.29680  Biso   1.000  H
  H56      1.0000 0.55740  0.33280  0.70320  Biso   1.000  H
  C67      1.0000 0.45770  0.58280  0.20320  Biso   1.000  C
  C68      1.0000 0.54230  0.41720  0.79680  Biso   1.000  C
  C69      1.0000 0.20400  0.04350  0.53170  Biso   1.000  C
  C70      1.0000 0.79600  0.95650  0.46830  Biso   1.000  C
  C71      1.0000 0.14070  0.02790  0.47610  Biso   1.000  C
  C72      1.0000 0.85930  0.97210  0.52390  Biso   1.000  C
  C73      1.0000 0.14890  0.08680  0.43630  Biso   1.000  C
  C74      1.0000 0.85110  0.91320  0.56370  Biso   1.000  C
  H57      1.0000 0.18960  0.13660  0.44390  Biso   1.000  H
  H58      1.0000 0.81040  0.86340  0.55610  Biso   1.000  H
  C75      1.0000 0.09500  0.07190  0.38320  Biso   1.000  C
  C76      1.0000 0.90500  0.92810  0.61680  Biso   1.000  C
  C77      1.0000 0.03660  0.99940  0.37080  Biso   1.000  C
  C78      1.0000 0.96340  0.00060  0.62920  Biso   1.000  C
  H59      1.0000 0.00340  0.98990  0.33460  Biso   1.000  H
  H60      1.0000 0.99660  0.01010  0.66540  Biso   1.000  H
  C79      1.0000 0.02660  0.94070  0.41100  Biso   1.000  C
  C80      1.0000 0.97340  0.05930  0.58900  Biso   1.000  C
  H61      1.0000 0.98550  0.89120  0.40260  Biso   1.000  H
  H62      1.0000 0.01450  0.10880  0.59740  Biso   1.000  H
  C81      1.0000 0.07780  0.95360  0.46540  Biso   1.000  C
  C82      1.0000 0.92220  0.04640  0.53460  Biso   1.000  C
  H63      1.0000 0.07000  0.91400  0.49350  Biso   1.000  H
  H64      1.0000 0.93000  0.08600  0.50650  Biso   1.000  H
  C83      1.0000 0.10470  0.21810  0.36000  Biso   1.000  C
  C84      1.0000 0.89530  0.78190  0.64000  Biso   1.000  C
  H65      1.0000 0.08790  0.22760  0.39580  Biso   1.000  H
  H66      1.0000 0.91210  0.77240  0.60420  Biso   1.000  H
  C85      1.0000 0.12650  0.28400  0.32650  Biso   1.000  C
  C86      1.0000 0.87350  0.71600  0.67350  Biso   1.000  C
  H67      1.0000 0.12560  0.33800  0.34010  Biso   1.000  H
  H68      1.0000 0.87440  0.66200  0.65990  Biso   1.000  H
  C87      1.0000 0.14980  0.27270  0.27270  Biso   1.000  C
  C88      1.0000 0.85020  0.72730  0.72730  Biso   1.000  C
  C89      1.0000 0.14360  0.19040  0.25300  Biso   1.000  C
  C90      1.0000 0.85640  0.80960  0.74700  Biso   1.000  C
  H69      1.0000 0.15340  0.17970  0.21550  Biso   1.000  H
  H70      1.0000 0.84660  0.82030  0.78450  Biso   1.000  H
  C91      1.0000 0.12350  0.12590  0.28780  Biso   1.000  C
  C92      1.0000 0.87650  0.87410  0.71220  Biso   1.000  C
  H71      1.0000 0.12090  0.07130  0.27420  Biso   1.000  H
  H72      1.0000 0.87910  0.92870  0.72580  Biso   1.000  H
  C93      1.0000 0.17930  0.34390  0.23810  Biso   1.000  C
  C94      1.0000 0.82070  0.65610  0.76190  Biso   1.000  C
  C95      1.0000 0.21970  0.42210  0.26790  Biso   1.000  C
  C96      1.0000 0.78030  0.57790  0.73210  Biso   1.000  C
  H73      1.0000 0.22550  0.42770  0.30770  Biso   1.000  H
  H74      1.0000 0.77450  0.57230  0.69230  Biso   1.000  H
  C97      1.0000 0.24910  0.48730  0.23550  Biso   1.000  C
  C98      1.0000 0.75090  0.51270  0.76450  Biso   1.000  C
  H75      1.0000 0.27330  0.53830  0.25490  Biso   1.000  H
  H76      1.0000 0.72670  0.46170  0.74510  Biso   1.000  H
  C99      1.0000 0.20930  0.41030  0.15250  Biso   1.000  C
  C100     1.0000 0.79070  0.58970  0.84750  Biso   1.000  C
  H77      1.0000 0.20580  0.40510  0.11270  Biso   1.000  H
  H78      1.0000 0.79420  0.59490  0.88730  Biso   1.000  H
  C101     1.0000 0.17780  0.34390  0.18150  Biso   1.000  C
  C102     1.0000 0.82220  0.65610  0.81850  Biso   1.000  C
  H79      1.0000 0.15300  0.29420  0.16070  Biso   1.000  H
  H80      1.0000 0.84700  0.70580  0.83930  Biso   1.000  H
  C103     1.0000 0.20060  0.16710  0.65230  Biso   1.000  C
  C104     1.0000 0.79940  0.83290  0.34770  Biso   1.000  C
  H81      1.0000 0.19650  0.17110  0.61260  Biso   1.000  H
  H82      1.0000 0.80350  0.82890  0.38740  Biso   1.000  H
  C105     1.0000 0.17160  0.22560  0.68390  Biso   1.000  C
  C106     1.0000 0.82840  0.77440  0.31610  Biso   1.000  C
  H83      1.0000 0.14930  0.26920  0.66550  Biso   1.000  H
  H84      1.0000 0.85070  0.73080  0.33450  Biso   1.000  H
  C107     1.0000 0.17500  0.22060  0.74170  Biso   1.000  C
  C108     1.0000 0.82500  0.77940  0.25830  Biso   1.000  C
  C109     1.0000 0.20810  0.15830  0.76670  Biso   1.000  C
  C110     1.0000 0.79190  0.84170  0.23330  Biso   1.000  C
  H85      1.0000 0.21070  0.15370  0.80630  Biso   1.000  H
  H86      1.0000 0.78930  0.84630  0.19370  Biso   1.000  H
  C111     1.0000 0.23960  0.09870  0.73420  Biso   1.000  C
  C112     1.0000 0.76040  0.90130  0.26580  Biso   1.000  C
  H87      1.0000 0.26340  0.05620  0.75290  Biso   1.000  H
  H88      1.0000 0.73660  0.94380  0.24710  Biso   1.000  H
  C113     1.0000 0.14490  0.28740  0.77560  Biso   1.000  C
  C114     1.0000 0.85510  0.71260  0.22440  Biso   1.000  C
  C115     1.0000 0.13440  0.36170  0.75780  Biso   1.000  C
  C116     1.0000 0.86560  0.63830  0.24220  Biso   1.000  C
  H89      1.0000 0.13720  0.37290  0.71930  Biso   1.000  H
  H90      1.0000 0.86280  0.62710  0.28070  Biso   1.000  H
  C117     1.0000 0.11910  0.42390  0.79390  Biso   1.000  C
  C118     1.0000 0.88090  0.57610  0.20610  Biso   1.000  C
  H91      1.0000 0.11930  0.47790  0.78120  Biso   1.000  H
  H92      1.0000 0.88070  0.52210  0.21880  Biso   1.000  H
  C119     1.0000 0.10560  0.32670  0.86630  Biso   1.000  C
  C120     1.0000 0.89440  0.67330  0.13370  Biso   1.000  C
  H93      1.0000 0.09410  0.31400  0.90350  Biso   1.000  H
  H94      1.0000 0.90590  0.68600  0.09650  Biso   1.000  H
  C121     1.0000 0.12340  0.26820  0.83140  Biso   1.000  C
  C122     1.0000 0.87660  0.73180  0.16860  Biso   1.000  C
  H95      1.0000 0.12170  0.21390  0.84400  Biso   1.000  H
  H96      1.0000 0.87830  0.78610  0.15600  Biso   1.000  H
  C123     1.0000 0.09500  0.46720  0.88900  Biso   1.000  C
  C124     1.0000 0.90500  0.53280  0.11100  Biso   1.000  C
  C125     1.0000 0.03180  0.52010  0.87750  Biso   1.000  C
  C126     1.0000 0.96820  0.47990  0.12250  Biso   1.000  C
  H97      1.0000 0.99610  0.51650  0.84220  Biso   1.000  H
  H98      1.0000 0.00390  0.48350  0.15780  Biso   1.000  H
  C127     1.0000 0.02480  0.57740  0.92050  Biso   1.000  C
  C128     1.0000 0.97520  0.42260  0.07950  Biso   1.000  C
  H99      1.0000 0.98310  0.61210  0.91490  Biso   1.000  H
  H100     1.0000 0.01690  0.38790  0.08510  Biso   1.000  H
  C129     1.0000 0.08100  0.58230  0.97210  Biso   1.000  C
  C130     1.0000 0.91900  0.41770  0.02790  Biso   1.000  C
  H101     1.0000 0.07680  0.62070  0.00100  Biso   1.000  H
  H102     1.0000 0.92320  0.37930  0.99900  Biso   1.000  H
  C131     1.0000 0.14410  0.52970  0.98110  Biso   1.000  C
  C132     1.0000 0.85590  0.47030  0.01890  Biso   1.000  C
  C133     1.0000 0.15240  0.47400  0.94000  Biso   1.000  C
  C134     1.0000 0.84760  0.52600  0.06000  Biso   1.000  C
  H103     1.0000 0.19560  0.44090  0.94560  Biso   1.000  H
  H104     1.0000 0.80440  0.55910  0.05440  Biso   1.000  H
  C135     1.0000 0.21190  0.53690  0.03790  Biso   1.000  C
  C136     1.0000 0.78810  0.46310  0.96210  Biso   1.000  C
  O21      1.0000 0.01460  0.42260  0.64410  Biso   1.000  O
  O22      1.0000 0.98540  0.57740  0.35590  Biso   1.000  O
  O23      1.0000 0.94570  0.25010  0.63970  Biso   1.000  O
  O24      1.0000 0.05430  0.74990  0.36030  Biso   1.000  O
  O25      1.0000 0.91860  0.27630  0.52190  Biso   1.000  O
  O26      1.0000 0.08140  0.72370  0.47810  Biso   1.000  O
  O27      1.0000 0.96140  0.43890  0.27710  Biso   1.000  O
  O28      1.0000 0.03860  0.56110  0.72290  Biso   1.000  O
  O29      1.0000 0.20980  0.45230  0.56750  Biso   1.000  O
  O30      1.0000 0.79020  0.54770  0.43250  Biso   1.000  O
  O31      1.0000 0.22400  0.29380  0.52850  Biso   1.000  O
  O32      1.0000 0.77600  0.70620  0.47150  Biso   1.000  O
  O33      1.0000 0.05980  0.30280  0.46650  Biso   1.000  O
  O34      1.0000 0.94020  0.69720  0.53350  Biso   1.000  O
  O35      1.0000 0.94690  0.44470  0.44900  Biso   1.000  O
  O36      1.0000 0.05310  0.55530  0.55100  Biso   1.000  O
  O37      1.0000 0.82590  0.32780  0.43060  Biso   1.000  O
  O38      1.0000 0.17410  0.67220  0.56940  Biso   1.000  O
  O39      1.0000 0.90870  0.19200  0.41440  Biso   1.000  O
  O40      1.0000 0.09130  0.80800  0.58560  Biso   1.000  O
  O41      1.0000 0.96490  0.35010  0.37750  Biso   1.000  O
  O42      1.0000 0.03510  0.64990  0.62250  Biso   1.000  O
  O43      1.0000 0.03600  0.52520  0.44550  Biso   1.000  O
  O44      1.0000 0.96400  0.47480  0.55450  Biso   1.000  O
  O45      1.0000 0.01140  0.40930  0.51160  Biso   1.000  O
  O46      1.0000 0.98860  0.59070  0.48840  Biso   1.000  O
  O47      1.0000 0.09350  0.49220  0.50030  Biso   1.000  O
  O48      1.0000 0.90650  0.50780  0.49970  Biso   1.000  O
  O49      1.0000 0.18910  0.42240  0.45670  Biso   1.000  O
  O50      1.0000 0.81090  0.57760  0.54330  Biso   1.000  O
  O51      1.0000 0.14720  0.62890  0.41040  Biso   1.000  O
  O52      1.0000 0.85280  0.37110  0.58960  Biso   1.000  O
  O53      1.0000 0.27560  0.54050  0.38930  Biso   1.000  O
  O54      1.0000 0.72440  0.45950  0.61070  Biso   1.000  O
  O55      1.0000 0.23690  0.57500  0.49920  Biso   1.000  O
  O56      1.0000 0.76310  0.42500  0.50080  Biso   1.000  O
  O57      1.0000 0.14580  0.54620  0.63620  Biso   1.000  O
  O58      1.0000 0.85420  0.45380  0.36380  Biso   1.000  O
  O59      1.0000 0.31580  0.60110  0.61030  Biso   1.000  O
  O60      1.0000 0.68420  0.39890  0.38970  Biso   1.000  O
  O61      1.0000 0.09760  0.47290  0.36780  Biso   1.000  O
  O62      1.0000 0.90240  0.52710  0.63220  Biso   1.000  O
  O63      1.0000 0.07920  0.32650  0.57970  Biso   1.000  O
  O64      1.0000 0.92080  0.67350  0.42030  Biso   1.000  O
  W1       1.0000 0.96263  0.33095  0.59329  Biso   1.000  W
  W2       1.0000 0.03737  0.66905  0.40671  Biso   1.000  W
  P1       1.0000 0.00000  0.50000  0.50000  Biso   1.000  P
  W3       1.0000 0.14991  0.35875  0.52009  Biso   1.000  W
  W4       1.0000 0.85009  0.64125  0.47991  Biso   1.000  W
  W5       1.0000 0.93648  0.29275  0.44426  Biso   1.000  W
  W6       1.0000 0.06352  0.70725  0.55574  Biso   1.000  W
  W7       1.0000 0.97264  0.45930  0.34934  Biso   1.000  W
  W8       1.0000 0.02736  0.54070  0.65066  Biso   1.000  W
  W9       1.0000 0.18723  0.52846  0.42551  Biso   1.000  W
  W10      1.0000 0.81277  0.47154  0.57449  Biso   1.000  W
  W11      1.0000 0.21314  0.56997  0.57619  Biso   1.000  W
  W12      1.0000 0.78686  0.43003  0.42381  Biso   1.000  W
  O65      1.0000 0.04220  0.97750  0.06110  Biso   1.000  O
  O66      1.0000 0.95780  0.02250  0.93890  Biso   1.000  O
  O67      1.0000 0.17240  0.94300  0.10160  Biso   1.000  O
  O68      1.0000 0.82760  0.05700  0.89840  Biso   1.000  O
  O69      1.0000 0.27810  0.09090  0.15620  Biso   1.000  O
  O70      1.0000 0.72190  0.90910  0.84380  Biso   1.000  O
  O71      1.0000 0.09610  0.04800  0.15000  Biso   1.000  O
  O72      1.0000 0.90390  0.95200  0.85000  Biso   1.000  O
  O73      1.0000 0.94290  0.01550  0.04020  Biso   1.000  O
  O74      1.0000 0.05710  0.98450  0.95980  Biso   1.000  O
  O75      1.0000 0.01970  0.89130  0.13360  Biso   1.000  O
  O76      1.0000 0.98030  0.10870  0.86640  Biso   1.000  O
  O77      1.0000 0.96660  0.98390  0.21940  Biso   1.000  O
  O78      1.0000 0.03340  0.01610  0.78060  Biso   1.000  O
  O79      1.0000 0.93830  0.08980  0.13070  Biso   1.000  O
  O80      1.0000 0.06170  0.91020  0.86930  Biso   1.000  O
  O81      1.0000 0.86420  0.93230  0.11470  Biso   1.000  O
  O82      1.0000 0.13580  0.06770  0.88530  Biso   1.000  O
  O83      1.0000 0.91030  0.93750  0.98900  Biso   1.000  O
  O84      1.0000 0.08970  0.06250  0.01100  Biso   1.000  O
  O85      1.0000 0.80170  0.04620  0.05210  Biso   1.000  O
  O86      1.0000 0.19830  0.95380  0.94790  Biso   1.000  O
  O87      1.0000 0.68840  0.89410  0.06490  Biso   1.000  O
  O88      1.0000 0.31160  0.10590  0.93510  Biso   1.000  O
  O89      1.0000 0.75810  0.94090  0.96330  Biso   1.000  O
  O90      1.0000 0.24190  0.05910  0.03670  Biso   1.000  O
  O91      1.0000 0.82210  0.82780  0.02490  Biso   1.000  O
  O92      1.0000 0.17790  0.17220  0.97510  Biso   1.000  O
  O93      1.0000 0.01810  0.91430  0.99540  Biso   1.000  O
  O94      1.0000 0.98190  0.08570  0.00460  Biso   1.000  O
  O95      1.0000 0.83740  0.83310  0.91640  Biso   1.000  O
  O96      1.0000 0.16260  0.16690  0.08360  Biso   1.000  O
  O97      1.0000 0.85060  0.68290  0.96970  Biso   1.000  O
  O98      1.0000 0.14940  0.31710  0.03030  Biso   1.000  O
  O99      1.0000 0.99380  0.78900  0.93490  Biso   1.000  O
  O100     1.0000 0.00620  0.21100  0.06510  Biso   1.000  O
  O101     1.0000 0.16160  0.78970  0.90360  Biso   1.000  O
  O102     1.0000 0.83840  0.21030  0.09640  Biso   1.000  O
  O103     1.0000 0.13270  0.83360  0.01300  Biso   1.000  O
  O104     1.0000 0.86730  0.16640  0.98700  Biso   1.000  O
  O105     1.0000 0.97740  0.78520  0.04650  Biso   1.000  O
  O106     1.0000 0.02260  0.21480  0.95350  Biso   1.000  O
  O107     1.0000 0.12450  0.77500  0.12320  Biso   1.000  O
  O108     1.0000 0.87550  0.22500  0.87680  Biso   1.000  O
  P2       1.0000 0.00000  0.00000  0.00000  Biso   1.000  P
  W13      1.0000 0.18606  0.05924  0.10415  Biso   1.000  W
  W14      1.0000 0.81394  0.94076  0.89585  Biso   1.000  W
  W15      1.0000 0.97776  0.98975  0.14880  Biso   1.000  W
  W16      1.0000 0.02224  0.01025  0.85120  Biso   1.000  W
  W17      1.0000 0.78893  0.92951  0.04338  Biso   1.000  W
  W18      1.0000 0.21107  0.07049  0.95662  Biso   1.000  W
  W19      1.0000 0.89779  0.78564  0.97802  Biso   1.000  W
  W20      1.0000 0.10221  0.21436  0.02198  Biso   1.000  W
  W21      1.0000 0.10709  0.85643  0.93537  Biso   1.000  W
  W22      1.0000 0.89291  0.14357  0.06463  Biso   1.000  W
  W23      1.0000 0.08645  0.84669  0.08314  Biso   1.000  W
  W24      1.0000 0.91355  0.15331  0.91686  Biso   1.000  W
  O109     1.0000 0.25620  0.70890  0.31020  Biso   1.000  O
  O110     1.0000 0.74380  0.29110  0.68980  Biso   1.000  O
  H105     1.0000 0.22490  0.66040  0.30240  Biso   1.000  H
  H106     1.0000 0.77510  0.33960  0.69760  Biso   1.000  H
  H107     1.0000 0.29270  0.70670  0.34010  Biso   1.000  H
  H108     1.0000 0.70730  0.29330  0.65990  Biso   1.000  H
  O111     1.0000 0.42580  0.48440  0.51130  Biso   1.000  O
  O112     1.0000 0.57420  0.51560  0.48870  Biso   1.000  O
  H109     1.0000 0.44400  0.52080  0.53870  Biso   1.000  H
  H110     1.0000 0.55600  0.47920  0.46130  Biso   1.000  H
  O113     1.0000 0.28400  0.69000  0.87400  Biso   1.000  O
  O114     1.0000 0.71600  0.31000  0.12600  Biso   1.000  O
  H111     1.0000 0.24130  0.66880  0.89240  Biso   1.000  H
  H112     1.0000 0.75870  0.33120  0.10760  Biso   1.000  H
  H113     1.0000 0.31240  0.73870  0.88460  Biso   1.000  H
  H114     1.0000 0.68760  0.26130  0.11540  Biso   1.000  H
  O115     1.0000 0.46500  0.44280  0.45140  Biso   1.000  O
  O116     1.0000 0.53500  0.55720  0.54860  Biso   1.000  O
  H115     1.0000 0.44620  0.40620  0.42430  Biso   1.000  H
  H116     1.0000 0.55380  0.59380  0.57570  Biso   1.000  H
