data_image0
_cell_length_a       13.771
_cell_length_b       19.682
_cell_length_c       10.702
_cell_angle_alpha    90
_cell_angle_beta     90
_cell_angle_gamma    90

_symmetry_space_group_name_H-M    "P 1"
_symmetry_int_tables_number       1

loop_
  _symmetry_equiv_pos_as_xyz
  'x, y, z'

loop_
  _atom_site_label
  _atom_site_occupancy
  _atom_site_fract_x
  _atom_site_fract_y
  _atom_site_fract_z
  _atom_site_thermal_displace_type
  _atom_site_B_iso_or_equiv
  _atom_site_type_symbol
  Cu1      1.0000 0.75000  0.25000  0.22450  Biso   1.000  Cu
  Cu2      1.0000 0.25000  0.75000  0.22450  Biso   1.000  Cu
  Cu3      1.0000 0.25000  0.25000  0.72450  Biso   1.000  Cu
  Cu4      1.0000 0.75000  0.75000  0.72450  Biso   1.000  Cu
  S1       1.0000 0.61753  0.03914  0.77932  Biso   1.000  S
  S2       1.0000 0.38247  0.96086  0.77932  Biso   1.000  S
  S3       1.0000 0.38247  0.03914  0.27932  Biso   1.000  S
  S4       1.0000 0.61753  0.96086  0.27932  Biso   1.000  S
  S5       1.0000 0.11753  0.53914  0.77932  Biso   1.000  S
  S6       1.0000 0.88247  0.46086  0.77932  Biso   1.000  S
  S7       1.0000 0.88247  0.53914  0.27932  Biso   1.000  S
  S8       1.0000 0.11753  0.46086  0.27932  Biso   1.000  S
  S9       1.0000 0.73363  0.02120  0.66809  Biso   1.000  S
  S10      1.0000 0.26637  0.97880  0.66809  Biso   1.000  S
  S11      1.0000 0.26637  0.02120  0.16809  Biso   1.000  S
  S12      1.0000 0.73363  0.97880  0.16809  Biso   1.000  S
  S13      1.0000 0.23363  0.52120  0.66809  Biso   1.000  S
  S14      1.0000 0.76637  0.47880  0.66809  Biso   1.000  S
  S15      1.0000 0.76637  0.52120  0.16809  Biso   1.000  S
  S16      1.0000 0.23363  0.47880  0.16809  Biso   1.000  S
  N1       1.0000 0.71570  0.18120  0.09010  Biso   1.000  N
  N2       1.0000 0.28430  0.81880  0.09010  Biso   1.000  N
  N3       1.0000 0.28430  0.18120  0.59010  Biso   1.000  N
  N4       1.0000 0.71570  0.81880  0.59010  Biso   1.000  N
  N5       1.0000 0.21570  0.68120  0.09010  Biso   1.000  N
  N6       1.0000 0.78430  0.31880  0.09010  Biso   1.000  N
  N7       1.0000 0.78430  0.68120  0.59010  Biso   1.000  N
  N8       1.0000 0.21570  0.31880  0.59010  Biso   1.000  N
  N9       1.0000 0.73160  0.17810  0.35780  Biso   1.000  N
  N10      1.0000 0.26840  0.82190  0.35780  Biso   1.000  N
  N11      1.0000 0.26840  0.17810  0.85780  Biso   1.000  N
  N12      1.0000 0.73160  0.82190  0.85780  Biso   1.000  N
  N13      1.0000 0.23160  0.67810  0.35780  Biso   1.000  N
  N14      1.0000 0.76840  0.32190  0.35780  Biso   1.000  N
  N15      1.0000 0.76840  0.67810  0.85780  Biso   1.000  N
  N16      1.0000 0.23160  0.32190  0.85780  Biso   1.000  N
  C1       1.0000 0.77500  0.16800  0.99500  Biso   1.000  C
  C2       1.0000 0.22500  0.83200  0.99500  Biso   1.000  C
  C3       1.0000 0.22500  0.16800  0.49500  Biso   1.000  C
  C4       1.0000 0.77500  0.83200  0.49500  Biso   1.000  C
  C5       1.0000 0.27500  0.66800  0.99500  Biso   1.000  C
  C6       1.0000 0.72500  0.33200  0.99500  Biso   1.000  C
  C7       1.0000 0.72500  0.66800  0.49500  Biso   1.000  C
  C8       1.0000 0.27500  0.33200  0.49500  Biso   1.000  C
  H1       1.0000 0.83630  0.18780  0.99510  Biso   1.000  H
  H2       1.0000 0.16370  0.81220  0.99510  Biso   1.000  H
  H3       1.0000 0.16370  0.18780  0.49510  Biso   1.000  H
  H4       1.0000 0.83630  0.81220  0.49510  Biso   1.000  H
  H5       1.0000 0.33630  0.68780  0.99510  Biso   1.000  H
  H6       1.0000 0.66370  0.31220  0.99510  Biso   1.000  H
  H7       1.0000 0.66370  0.68780  0.49510  Biso   1.000  H
  H8       1.0000 0.33630  0.31220  0.49510  Biso   1.000  H
  C9       1.0000 0.75020  0.12620  0.89600  Biso   1.000  C
  C10      1.0000 0.24980  0.87380  0.89600  Biso   1.000  C
  C11      1.0000 0.24980  0.12620  0.39600  Biso   1.000  C
  C12      1.0000 0.75020  0.87380  0.39600  Biso   1.000  C
  C13      1.0000 0.25020  0.62620  0.89600  Biso   1.000  C
  C14      1.0000 0.74980  0.37380  0.89600  Biso   1.000  C
  C15      1.0000 0.74980  0.62620  0.39600  Biso   1.000  C
  C16      1.0000 0.25020  0.37380  0.39600  Biso   1.000  C
  H9       1.0000 0.79250  0.11990  0.82930  Biso   1.000  H
  H10      1.0000 0.20750  0.88010  0.82930  Biso   1.000  H
  H11      1.0000 0.20750  0.11990  0.32930  Biso   1.000  H
  H12      1.0000 0.79250  0.88010  0.32930  Biso   1.000  H
  H13      1.0000 0.29250  0.61990  0.82930  Biso   1.000  H
  H14      1.0000 0.70750  0.38010  0.82930  Biso   1.000  H
  H15      1.0000 0.70750  0.61990  0.32930  Biso   1.000  H
  H16      1.0000 0.29250  0.38010  0.32930  Biso   1.000  H
  C17      1.0000 0.66120  0.09440  0.89870  Biso   1.000  C
  C18      1.0000 0.33880  0.90560  0.89870  Biso   1.000  C
  C19      1.0000 0.33880  0.09440  0.39870  Biso   1.000  C
  C20      1.0000 0.66120  0.90560  0.39870  Biso   1.000  C
  C21      1.0000 0.16120  0.59440  0.89870  Biso   1.000  C
  C22      1.0000 0.83880  0.40560  0.89870  Biso   1.000  C
  C23      1.0000 0.83880  0.59440  0.39870  Biso   1.000  C
  C24      1.0000 0.16120  0.40560  0.39870  Biso   1.000  C
  C25      1.0000 0.59870  0.10630  0.99740  Biso   1.000  C
  C26      1.0000 0.40130  0.89370  0.99740  Biso   1.000  C
  C27      1.0000 0.40130  0.10630  0.49740  Biso   1.000  C
  C28      1.0000 0.59870  0.89370  0.49740  Biso   1.000  C
  C29      1.0000 0.09870  0.60630  0.99740  Biso   1.000  C
  C30      1.0000 0.90130  0.39370  0.99740  Biso   1.000  C
  C31      1.0000 0.90130  0.60630  0.49740  Biso   1.000  C
  C32      1.0000 0.09870  0.39370  0.49740  Biso   1.000  C
  H17      1.0000 0.53790  0.08580  0.00060  Biso   1.000  H
  H18      1.0000 0.46210  0.91420  0.00060  Biso   1.000  H
  H19      1.0000 0.46210  0.08580  0.50060  Biso   1.000  H
  H20      1.0000 0.53790  0.91420  0.50060  Biso   1.000  H
  H21      1.0000 0.03790  0.58580  0.00060  Biso   1.000  H
  H22      1.0000 0.96210  0.41420  0.00060  Biso   1.000  H
  H23      1.0000 0.96210  0.58580  0.50060  Biso   1.000  H
  H24      1.0000 0.03790  0.41420  0.50060  Biso   1.000  H
  C33      1.0000 0.62890  0.14920  0.09030  Biso   1.000  C
  C34      1.0000 0.37110  0.85080  0.09030  Biso   1.000  C
  C35      1.0000 0.37110  0.14920  0.59030  Biso   1.000  C
  C36      1.0000 0.62890  0.85080  0.59030  Biso   1.000  C
  C37      1.0000 0.12890  0.64920  0.09030  Biso   1.000  C
  C38      1.0000 0.87110  0.35080  0.09030  Biso   1.000  C
  C39      1.0000 0.87110  0.64920  0.59030  Biso   1.000  C
  C40      1.0000 0.12890  0.35080  0.59030  Biso   1.000  C
  H25      1.0000 0.58730  0.15670  0.15740  Biso   1.000  H
  H26      1.0000 0.41270  0.84330  0.15740  Biso   1.000  H
  H27      1.0000 0.41270  0.15670  0.65740  Biso   1.000  H
  H28      1.0000 0.58730  0.84330  0.65740  Biso   1.000  H
  H29      1.0000 0.08730  0.65670  0.15740  Biso   1.000  H
  H30      1.0000 0.91270  0.34330  0.15740  Biso   1.000  H
  H31      1.0000 0.91270  0.65670  0.65740  Biso   1.000  H
  H32      1.0000 0.08730  0.34330  0.65740  Biso   1.000  H
  C41      1.0000 0.78670  0.12180  0.35360  Biso   1.000  C
  C42      1.0000 0.21330  0.87820  0.35360  Biso   1.000  C
  C43      1.0000 0.21330  0.12180  0.85360  Biso   1.000  C
  C44      1.0000 0.78670  0.87820  0.85360  Biso   1.000  C
  C45      1.0000 0.28670  0.62180  0.35360  Biso   1.000  C
  C46      1.0000 0.71330  0.37820  0.35360  Biso   1.000  C
  C47      1.0000 0.71330  0.62180  0.85360  Biso   1.000  C
  C48      1.0000 0.28670  0.37820  0.85360  Biso   1.000  C
  H33      1.0000 0.82630  0.11490  0.28430  Biso   1.000  H
  H34      1.0000 0.17370  0.88510  0.28430  Biso   1.000  H
  H35      1.0000 0.17370  0.11490  0.78430  Biso   1.000  H
  H36      1.0000 0.82630  0.88510  0.78430  Biso   1.000  H
  H37      1.0000 0.32630  0.61490  0.28430  Biso   1.000  H
  H38      1.0000 0.67370  0.38510  0.28430  Biso   1.000  H
  H39      1.0000 0.67370  0.61490  0.78430  Biso   1.000  H
  H40      1.0000 0.32630  0.38510  0.78430  Biso   1.000  H
  C49      1.0000 0.78700  0.07430  0.44680  Biso   1.000  C
  C50      1.0000 0.21300  0.92570  0.44680  Biso   1.000  C
  C51      1.0000 0.21300  0.07430  0.94680  Biso   1.000  C
  C52      1.0000 0.78700  0.92570  0.94680  Biso   1.000  C
  C53      1.0000 0.28700  0.57430  0.44680  Biso   1.000  C
  C54      1.0000 0.71300  0.42570  0.44680  Biso   1.000  C
  C55      1.0000 0.71300  0.57430  0.94680  Biso   1.000  C
  C56      1.0000 0.28700  0.42570  0.94680  Biso   1.000  C
  H41      1.0000 0.82610  0.03580  0.44140  Biso   1.000  H
  H42      1.0000 0.17390  0.96420  0.44140  Biso   1.000  H
  H43      1.0000 0.17390  0.03580  0.94140  Biso   1.000  H
  H44      1.0000 0.82610  0.96420  0.94140  Biso   1.000  H
  H45      1.0000 0.32610  0.53580  0.44140  Biso   1.000  H
  H46      1.0000 0.67390  0.46420  0.44140  Biso   1.000  H
  H47      1.0000 0.67390  0.53580  0.94140  Biso   1.000  H
  H48      1.0000 0.32610  0.46420  0.94140  Biso   1.000  H
  C57      1.0000 0.72720  0.08500  0.55040  Biso   1.000  C
  C58      1.0000 0.27280  0.91500  0.55040  Biso   1.000  C
  C59      1.0000 0.27280  0.08500  0.05040  Biso   1.000  C
  C60      1.0000 0.72720  0.91500  0.05040  Biso   1.000  C
  C61      1.0000 0.22720  0.58500  0.55040  Biso   1.000  C
  C62      1.0000 0.77280  0.41500  0.55040  Biso   1.000  C
  C63      1.0000 0.77280  0.58500  0.05040  Biso   1.000  C
  C64      1.0000 0.22720  0.41500  0.05040  Biso   1.000  C
  C65      1.0000 0.67120  0.14270  0.55640  Biso   1.000  C
  C66      1.0000 0.32880  0.85730  0.55640  Biso   1.000  C
  C67      1.0000 0.32880  0.14270  0.05640  Biso   1.000  C
  C68      1.0000 0.67120  0.85730  0.05640  Biso   1.000  C
  C69      1.0000 0.17120  0.64270  0.55640  Biso   1.000  C
  C70      1.0000 0.82880  0.35730  0.55640  Biso   1.000  C
  C71      1.0000 0.82880  0.64270  0.05640  Biso   1.000  C
  C72      1.0000 0.17120  0.35730  0.05640  Biso   1.000  C
  H49      1.0000 0.63160  0.15110  0.62490  Biso   1.000  H
  H50      1.0000 0.36840  0.84890  0.62490  Biso   1.000  H
  H51      1.0000 0.36840  0.15110  0.12490  Biso   1.000  H
  H52      1.0000 0.63160  0.84890  0.12490  Biso   1.000  H
  H53      1.0000 0.13160  0.65110  0.62490  Biso   1.000  H
  H54      1.0000 0.86840  0.34890  0.62490  Biso   1.000  H
  H55      1.0000 0.86840  0.65110  0.12490  Biso   1.000  H
  H56      1.0000 0.13160  0.34890  0.12490  Biso   1.000  H
  C73      1.0000 0.67570  0.18770  0.45760  Biso   1.000  C
  C74      1.0000 0.32430  0.81230  0.45760  Biso   1.000  C
  C75      1.0000 0.32430  0.18770  0.95760  Biso   1.000  C
  C76      1.0000 0.67570  0.81230  0.95760  Biso   1.000  C
  C77      1.0000 0.17570  0.68770  0.45760  Biso   1.000  C
  C78      1.0000 0.82430  0.31230  0.45760  Biso   1.000  C
  C79      1.0000 0.82430  0.68770  0.95760  Biso   1.000  C
  C80      1.0000 0.17570  0.31230  0.95760  Biso   1.000  C
  H57      1.0000 0.63760  0.22670  0.46100  Biso   1.000  H
  H58      1.0000 0.36240  0.77330  0.46100  Biso   1.000  H
  H59      1.0000 0.36240  0.22670  0.96100  Biso   1.000  H
  H60      1.0000 0.63760  0.77330  0.96100  Biso   1.000  H
  H61      1.0000 0.13760  0.72670  0.46100  Biso   1.000  H
  H62      1.0000 0.86240  0.27330  0.46100  Biso   1.000  H
  H63      1.0000 0.86240  0.72670  0.96100  Biso   1.000  H
  H64      1.0000 0.13760  0.27330  0.96100  Biso   1.000  H
  Cl1      1.0000 0.48207  0.28975  0.25429  Biso   1.000  Cl
  Cl2      1.0000 0.51793  0.71025  0.25429  Biso   1.000  Cl
  Cl3      1.0000 0.51793  0.28975  0.75429  Biso   1.000  Cl
  Cl4      1.0000 0.48207  0.71025  0.75429  Biso   1.000  Cl
  Cl5      1.0000 0.98207  0.78975  0.25429  Biso   1.000  Cl
  Cl6      1.0000 0.01793  0.21025  0.25429  Biso   1.000  Cl
  Cl7      1.0000 0.01793  0.78975  0.75429  Biso   1.000  Cl
  Cl8      1.0000 0.98207  0.21025  0.75429  Biso   1.000  Cl
  O1       1.0000 0.57660  0.28650  0.19890  Biso   1.000  O
  O2       1.0000 0.42340  0.71350  0.19890  Biso   1.000  O
  O3       1.0000 0.42340  0.28650  0.69890  Biso   1.000  O
  O4       1.0000 0.57660  0.71350  0.69890  Biso   1.000  O
  O5       1.0000 0.07660  0.78650  0.19890  Biso   1.000  O
  O6       1.0000 0.92340  0.21350  0.19890  Biso   1.000  O
  O7       1.0000 0.92340  0.78650  0.69890  Biso   1.000  O
  O8       1.0000 0.07660  0.21350  0.69890  Biso   1.000  O
  O9       1.0000 0.41300  0.31130  0.17240  Biso   1.000  O
  O10      1.0000 0.58700  0.68870  0.17240  Biso   1.000  O
  O11      1.0000 0.58700  0.31130  0.67240  Biso   1.000  O
  O12      1.0000 0.41300  0.68870  0.67240  Biso   1.000  O
  O13      1.0000 0.91300  0.81130  0.17240  Biso   1.000  O
  O14      1.0000 0.08700  0.18870  0.17240  Biso   1.000  O
  O15      1.0000 0.08700  0.81130  0.67240  Biso   1.000  O
  O16      1.0000 0.91300  0.18870  0.67240  Biso   1.000  O
  O17      1.0000 0.45790  0.22140  0.28860  Biso   1.000  O
  O18      1.0000 0.54210  0.77860  0.28860  Biso   1.000  O
  O19      1.0000 0.54210  0.22140  0.78860  Biso   1.000  O
  O20      1.0000 0.45790  0.77860  0.78860  Biso   1.000  O
  O21      1.0000 0.95790  0.72140  0.28860  Biso   1.000  O
  O22      1.0000 0.04210  0.27860  0.28860  Biso   1.000  O
  O23      1.0000 0.04210  0.72140  0.78860  Biso   1.000  O
  O24      1.0000 0.95790  0.27860  0.78860  Biso   1.000  O
  O25      1.0000 0.48560  0.32950  0.36030  Biso   1.000  O
  O26      1.0000 0.51440  0.67050  0.36030  Biso   1.000  O
  O27      1.0000 0.51440  0.32950  0.86030  Biso   1.000  O
  O28      1.0000 0.48560  0.67050  0.86030  Biso   1.000  O
  O29      1.0000 0.98560  0.82950  0.36030  Biso   1.000  O
  O30      1.0000 0.01440  0.17050  0.36030  Biso   1.000  O
  O31      1.0000 0.01440  0.82950  0.86030  Biso   1.000  O
  O32      1.0000 0.98560  0.17050  0.86030  Biso   1.000  O
  O33      1.0000 0.50000  0.50000  0.33000  Biso   1.000  O
  O34      1.0000 0.50000  0.50000  0.83000  Biso   1.000  O
  O35      1.0000 0.00000  0.00000  0.33000  Biso   1.000  O
  O36      1.0000 0.00000  0.00000  0.83000  Biso   1.000  O
  O37      1.0000 0.46320  0.44670  0.58100  Biso   1.000  O
  O38      1.0000 0.53680  0.55330  0.58100  Biso   1.000  O
  O39      1.0000 0.53680  0.44670  0.08100  Biso   1.000  O
  O40      1.0000 0.46320  0.55330  0.08100  Biso   1.000  O
  O41      1.0000 0.96320  0.94670  0.58100  Biso   1.000  O
  O42      1.0000 0.03680  0.05330  0.58100  Biso   1.000  O
  O43      1.0000 0.03680  0.94670  0.08100  Biso   1.000  O
  O44      1.0000 0.96320  0.05330  0.08100  Biso   1.000  O
