data_image0
_cell_length_a       7.7431
_cell_length_b       9.6388
_cell_length_c       16.0603
_cell_angle_alpha    78.78
_cell_angle_beta     89.746
_cell_angle_gamma    67.578

_symmetry_space_group_name_H-M    "P 1"
_symmetry_int_tables_number       1

loop_
  _symmetry_equiv_pos_as_xyz
  'x, y, z'

loop_
  _atom_site_label
  _atom_site_occupancy
  _atom_site_fract_x
  _atom_site_fract_y
  _atom_site_fract_z
  _atom_site_thermal_displace_type
  _atom_site_B_iso_or_equiv
  _atom_site_type_symbol
  C1       1.0000 0.52820  0.57240  0.21700  Biso   1.000  C
  C2       1.0000 0.47180  0.42760  0.78300  Biso   1.000  C
  H1       1.0000 0.45730  0.51390  0.23330  Biso   1.000  H
  H2       1.0000 0.54270  0.48610  0.76670  Biso   1.000  H
  C3       1.0000 0.43830  0.72060  0.17420  Biso   1.000  C
  C4       1.0000 0.56170  0.27940  0.82580  Biso   1.000  C
  H3       1.0000 0.30960  0.76240  0.16070  Biso   1.000  H
  H4       1.0000 0.69040  0.23760  0.83930  Biso   1.000  H
  C5       1.0000 0.54760  0.80760  0.15140  Biso   1.000  C
  C6       1.0000 0.45240  0.19240  0.84860  Biso   1.000  C
  H5       1.0000 0.49110  0.90990  0.12360  Biso   1.000  H
  H6       1.0000 0.50890  0.09010  0.87640  Biso   1.000  H
  C7       1.0000 0.73710  0.74120  0.17010  Biso   1.000  C
  C8       1.0000 0.26290  0.25880  0.82990  Biso   1.000  C
  H7       1.0000 0.81090  0.79770  0.15530  Biso   1.000  H
  H8       1.0000 0.18910  0.20230  0.84470  Biso   1.000  H
  C9       1.0000 0.81780  0.58840  0.21160  Biso   1.000  C
  C10      1.0000 0.18220  0.41160  0.78840  Biso   1.000  C
  C11      1.0000 0.02890  0.50380  0.23600  Biso   1.000  C
  C12      1.0000 0.97110  0.49620  0.76400  Biso   1.000  C
  C13      1.0000 0.14340  0.46300  0.15970  Biso   1.000  C
  C14      1.0000 0.85660  0.53700  0.84030  Biso   1.000  C
  C15      1.0000 0.11470  0.55740  0.08030  Biso   1.000  C
  C16      1.0000 0.88530  0.44260  0.91970  Biso   1.000  C
  H9       1.0000 0.01370  0.65160  0.06810  Biso   1.000  H
  H10      1.0000 0.98630  0.34840  0.93190  Biso   1.000  H
  C17      1.0000 0.23740  0.51090  0.01900  Biso   1.000  C
  C18      1.0000 0.76260  0.48910  0.98100  Biso   1.000  C
  H11      1.0000 0.21830  0.57280  0.96490  Biso   1.000  H
  H12      1.0000 0.78170  0.42720  0.03510  Biso   1.000  H
  C19      1.0000 0.38800  0.37240  0.03850  Biso   1.000  C
  C20      1.0000 0.61200  0.62760  0.96150  Biso   1.000  C
  H13      1.0000 0.47310  0.33970  0.99850  Biso   1.000  H
  H14      1.0000 0.52690  0.66030  0.00150  Biso   1.000  H
  C21      1.0000 0.40930  0.28300  0.11950  Biso   1.000  C
  C22      1.0000 0.59070  0.71700  0.88050  Biso   1.000  C
  H15      1.0000 0.51070  0.18920  0.13350  Biso   1.000  H
  H16      1.0000 0.48930  0.81080  0.86650  Biso   1.000  H
  C23      1.0000 0.02880  0.65260  0.34000  Biso   1.000  C
  C24      1.0000 0.97120  0.34740  0.66000  Biso   1.000  C
  H17      1.0000 0.03210  0.56730  0.38430  Biso   1.000  H
  H18      1.0000 0.96790  0.43270  0.61570  Biso   1.000  H
  H19      1.0000 0.89970  0.72450  0.32690  Biso   1.000  H
  H20      1.0000 0.10030  0.27550  0.67310  Biso   1.000  H
  C25      1.0000 0.14590  0.73010  0.36910  Biso   1.000  C
  C26      1.0000 0.85410  0.26990  0.63090  Biso   1.000  C
  H21      1.0000 0.09800  0.76750  0.41910  Biso   1.000  H
  H22      1.0000 0.90200  0.23250  0.58090  Biso   1.000  H
  H23      1.0000 0.14130  0.81440  0.32480  Biso   1.000  H
  H24      1.0000 0.85870  0.18560  0.67520  Biso   1.000  H
  H25      1.0000 0.27320  0.65780  0.38200  Biso   1.000  H
  H26      1.0000 0.72680  0.34220  0.61800  Biso   1.000  H
  C27      1.0000 0.14690  0.06900  0.43460  Biso   1.000  C
  C28      1.0000 0.85310  0.93100  0.56540  Biso   1.000  C
  C29      1.0000 0.67590  0.10720  0.30620  Biso   1.000  C
  C30      1.0000 0.32410  0.89280  0.69380  Biso   1.000  C
  C31      1.0000 0.65640  0.57740  0.45130  Biso   1.000  C
  C32      1.0000 0.34360  0.42260  0.54870  Biso   1.000  C
  C33      1.0000 0.59180  0.71510  0.48540  Biso   1.000  C
  C34      1.0000 0.40820  0.28490  0.51460  Biso   1.000  C
  H27      1.0000 0.55170  0.80340  0.43940  Biso   1.000  H
  H28      1.0000 0.44830  0.19660  0.56060  Biso   1.000  H
  H29      1.0000 0.69200  0.71580  0.52010  Biso   1.000  H
  H30      1.0000 0.30800  0.28420  0.47990  Biso   1.000  H
  H31      1.0000 0.48870  0.71760  0.51940  Biso   1.000  H
  H32      1.0000 0.51130  0.28240  0.48060  Biso   1.000  H
  N1       1.0000 0.71420  0.50690  0.23680  Biso   1.000  N
  N2       1.0000 0.28580  0.49310  0.76320  Biso   1.000  N
  N3       1.0000 0.28840  0.32730  0.17850  Biso   1.000  N
  N4       1.0000 0.71160  0.67270  0.82150  Biso   1.000  N
  N5       1.0000 0.70840  0.46870  0.42470  Biso   1.000  N
  N6       1.0000 0.29160  0.53130  0.57530  Biso   1.000  N
  O1       1.0000 0.06080  0.37000  0.29810  Biso   1.000  O
  O2       1.0000 0.93920  0.63000  0.70190  Biso   1.000  O
  O3       1.0000 0.10460  0.59930  0.26610  Biso   1.000  O
  O4       1.0000 0.89540  0.40070  0.73390  Biso   1.000  O
  O5       1.0000 0.98040  0.13480  0.40690  Biso   1.000  O
  O6       1.0000 0.01960  0.86520  0.59310  Biso   1.000  O
  O7       1.0000 0.28830  0.08580  0.40250  Biso   1.000  O
  O8       1.0000 0.71170  0.91420  0.59750  Biso   1.000  O
  O9       1.0000 0.55460  0.05600  0.29260  Biso   1.000  O
  O10      1.0000 0.44540  0.94400  0.70740  Biso   1.000  O
  O11      1.0000 0.63950  0.24010  0.31740  Biso   1.000  O
  O12      1.0000 0.36050  0.75990  0.68260  Biso   1.000  O
  O13      1.0000 0.17090  0.04860  0.22710  Biso   1.000  O
  O14      1.0000 0.82910  0.95140  0.77290  Biso   1.000  O
  O15      1.0000 0.88240  0.23300  0.16360  Biso   1.000  O
  O16      1.0000 0.11760  0.76700  0.83640  Biso   1.000  O
  O17      1.0000 0.97370  0.97630  0.15100  Biso   1.000  O
  O18      1.0000 0.02630  0.02370  0.84900  Biso   1.000  O
  O19      1.0000 0.12660  0.12940  0.07810  Biso   1.000  O
  O20      1.0000 0.87340  0.87060  0.92190  Biso   1.000  O
  Cu1      1.0000 0.84727  0.31135  0.31716  Biso   1.000  Cu
  Cu2      1.0000 0.15273  0.68865  0.68284  Biso   1.000  Cu
  Cu3      1.0000 0.29503  0.20216  0.29106  Biso   1.000  Cu
  Cu4      1.0000 0.70497  0.79784  0.70894  Biso   1.000  Cu
  Cl1      1.0000 0.03800  0.09692  0.15372  Biso   1.000  Cl
  Cl2      1.0000 0.96200  0.90308  0.84628  Biso   1.000  Cl
  H33      1.0000 0.17300  0.99900  0.49300  Biso   1.000  H
  H34      1.0000 0.82700  0.00100  0.50700  Biso   1.000  H
  H35      1.0000 0.78900  0.04700  0.30700  Biso   1.000  H
  H36      1.0000 0.21100  0.95300  0.69300  Biso   1.000  H
