data_image0
_cell_length_a       17.278
_cell_length_b       15.234
_cell_length_c       16.161
_cell_angle_alpha    90
_cell_angle_beta     111.221
_cell_angle_gamma    90

_symmetry_space_group_name_H-M    "P 1"
_symmetry_int_tables_number       1

loop_
  _symmetry_equiv_pos_as_xyz
  'x, y, z'

loop_
  _atom_site_label
  _atom_site_occupancy
  _atom_site_fract_x
  _atom_site_fract_y
  _atom_site_fract_z
  _atom_site_thermal_displace_type
  _atom_site_B_iso_or_equiv
  _atom_site_type_symbol
  Cu1      1.0000 0.50000  0.50000  0.50000  Biso   1.000  Cu
  Cu2      1.0000 0.50000  0.00000  0.00000  Biso   1.000  Cu
  Cu3      1.0000 0.00000  0.50000  0.50000  Biso   1.000  Cu
  Cu4      1.0000 0.00000  0.00000  0.00000  Biso   1.000  Cu
  N1       1.0000 0.24600  0.44010  0.48810  Biso   1.000  N
  N2       1.0000 0.75400  0.94010  0.01190  Biso   1.000  N
  N3       1.0000 0.75400  0.55990  0.51190  Biso   1.000  N
  N4       1.0000 0.24600  0.05990  0.98810  Biso   1.000  N
  N5       1.0000 0.45980  0.41290  0.56530  Biso   1.000  N
  N6       1.0000 0.54020  0.91290  0.93470  Biso   1.000  N
  N7       1.0000 0.54020  0.58710  0.43470  Biso   1.000  N
  N8       1.0000 0.45980  0.08710  0.06530  Biso   1.000  N
  N9       1.0000 0.38500  0.33930  0.62790  Biso   1.000  N
  N10      1.0000 0.61500  0.83930  0.87210  Biso   1.000  N
  N11      1.0000 0.61500  0.66070  0.37210  Biso   1.000  N
  N12      1.0000 0.38500  0.16070  0.12790  Biso   1.000  N
  N13      1.0000 0.02790  0.46070  0.39850  Biso   1.000  N
  N14      1.0000 0.97210  0.96070  0.10150  Biso   1.000  N
  N15      1.0000 0.97210  0.53930  0.60150  Biso   1.000  N
  N16      1.0000 0.02790  0.03930  0.89850  Biso   1.000  N
  N17      1.0000 0.09510  0.41900  0.31190  Biso   1.000  N
  N18      1.0000 0.90490  0.91900  0.18810  Biso   1.000  N
  N19      1.0000 0.90490  0.58100  0.68810  Biso   1.000  N
  N20      1.0000 0.09510  0.08100  0.81190  Biso   1.000  N
  N21      1.0000 0.59450  0.57690  0.64710  Biso   1.000  N
  N22      1.0000 0.40550  0.07690  0.85290  Biso   1.000  N
  N23      1.0000 0.40550  0.42310  0.35290  Biso   1.000  N
  N24      1.0000 0.59450  0.92310  0.14710  Biso   1.000  N
  N25      1.0000 0.06710  0.35210  0.58390  Biso   1.000  N
  N26      1.0000 0.93290  0.85210  0.91610  Biso   1.000  N
  N27      1.0000 0.93290  0.64790  0.41610  Biso   1.000  N
  N28      1.0000 0.06710  0.14790  0.08390  Biso   1.000  N
  N29      1.0000 0.12290  0.33630  0.87360  Biso   1.000  N
  N30      1.0000 0.87710  0.83630  0.62640  Biso   1.000  N
  N31      1.0000 0.87710  0.66370  0.12640  Biso   1.000  N
  N32      1.0000 0.12290  0.16370  0.37360  Biso   1.000  N
  N33      1.0000 0.34830  0.57180  0.09720  Biso   1.000  N
  N34      1.0000 0.65170  0.07180  0.40280  Biso   1.000  N
  N35      1.0000 0.65170  0.42820  0.90280  Biso   1.000  N
  N36      1.0000 0.34830  0.92820  0.59720  Biso   1.000  N
  O1       1.0000 0.60880  0.51250  0.60580  Biso   1.000  O
  O2       1.0000 0.39120  0.01250  0.89420  Biso   1.000  O
  O3       1.0000 0.39120  0.48750  0.39420  Biso   1.000  O
  O4       1.0000 0.60880  0.98750  0.10580  Biso   1.000  O
  O5       1.0000 0.52350  0.60940  0.61880  Biso   1.000  O
  O6       1.0000 0.47650  0.10940  0.88120  Biso   1.000  O
  O7       1.0000 0.47650  0.39060  0.38120  Biso   1.000  O
  O8       1.0000 0.52350  0.89060  0.11880  Biso   1.000  O
  O9       1.0000 0.65000  0.60560  0.71280  Biso   1.000  O
  O10      1.0000 0.35000  0.10560  0.78720  Biso   1.000  O
  O11      1.0000 0.35000  0.39440  0.28720  Biso   1.000  O
  O12      1.0000 0.65000  0.89440  0.21280  Biso   1.000  O
  O13      1.0000 0.09550  0.42920  0.58290  Biso   1.000  O
  O14      1.0000 0.90450  0.92920  0.91710  Biso   1.000  O
  O15      1.0000 0.90450  0.57080  0.41710  Biso   1.000  O
  O16      1.0000 0.09550  0.07080  0.08290  Biso   1.000  O
  O17      1.0000 0.99390  0.33890  0.53910  Biso   1.000  O
  O18      1.0000 0.00610  0.83890  0.96090  Biso   1.000  O
  O19      1.0000 0.00610  0.66110  0.46090  Biso   1.000  O
  O20      1.0000 0.99390  0.16110  0.03910  Biso   1.000  O
  O21      1.0000 0.11370  0.29530  0.62900  Biso   1.000  O
  O22      1.0000 0.88630  0.79530  0.87100  Biso   1.000  O
  O23      1.0000 0.88630  0.70470  0.37100  Biso   1.000  O
  O24      1.0000 0.11370  0.20470  0.12900  Biso   1.000  O
  O25      1.0000 0.23810  0.25880  0.95040  Biso   1.000  O
  O26      1.0000 0.76190  0.75880  0.54960  Biso   1.000  O
  O27      1.0000 0.76190  0.74120  0.04960  Biso   1.000  O
  O28      1.0000 0.23810  0.24120  0.45040  Biso   1.000  O
  O29      1.0000 0.28660  0.65870  0.98840  Biso   1.000  O
  O30      1.0000 0.71340  0.15870  0.51160  Biso   1.000  O
  O31      1.0000 0.71340  0.34130  0.01160  Biso   1.000  O
  O32      1.0000 0.28660  0.84130  0.48840  Biso   1.000  O
  C1       1.0000 0.38950  0.41090  0.58040  Biso   1.000  C
  C2       1.0000 0.61050  0.91090  0.91960  Biso   1.000  C
  C3       1.0000 0.61050  0.58910  0.41960  Biso   1.000  C
  C4       1.0000 0.38950  0.08910  0.08040  Biso   1.000  C
  C5       1.0000 0.32060  0.47330  0.54570  Biso   1.000  C
  C6       1.0000 0.67940  0.97330  0.95430  Biso   1.000  C
  C7       1.0000 0.67940  0.52670  0.45430  Biso   1.000  C
  C8       1.0000 0.32060  0.02670  0.04570  Biso   1.000  C
  C9       1.0000 0.32760  0.56230  0.56520  Biso   1.000  C
  C10      1.0000 0.67240  0.06230  0.93480  Biso   1.000  C
  C11      1.0000 0.67240  0.43770  0.43480  Biso   1.000  C
  C12      1.0000 0.32760  0.93770  0.06520  Biso   1.000  C
  H1       1.0000 0.37770  0.58490  0.60360  Biso   1.000  H
  H2       1.0000 0.62230  0.08490  0.89640  Biso   1.000  H
  H3       1.0000 0.62230  0.41510  0.39640  Biso   1.000  H
  H4       1.0000 0.37770  0.91510  0.10360  Biso   1.000  H
  C13      1.0000 0.26130  0.61660  0.52820  Biso   1.000  C
  C14      1.0000 0.73870  0.11660  0.97180  Biso   1.000  C
  C15      1.0000 0.73870  0.38340  0.47180  Biso   1.000  C
  C16      1.0000 0.26130  0.88340  0.02820  Biso   1.000  C
  H5       1.0000 0.26670  0.67620  0.54160  Biso   1.000  H
  H6       1.0000 0.73330  0.17620  0.95840  Biso   1.000  H
  H7       1.0000 0.73330  0.32380  0.45840  Biso   1.000  H
  H8       1.0000 0.26670  0.82380  0.04160  Biso   1.000  H
  C17      1.0000 0.18730  0.58470  0.47200  Biso   1.000  C
  C18      1.0000 0.81270  0.08470  0.02800  Biso   1.000  C
  C19      1.0000 0.81270  0.41530  0.52800  Biso   1.000  C
  C20      1.0000 0.18730  0.91530  0.97200  Biso   1.000  C
  H9       1.0000 0.14260  0.62260  0.44830  Biso   1.000  H
  H10      1.0000 0.85740  0.12260  0.05170  Biso   1.000  H
  H11      1.0000 0.85740  0.37740  0.55170  Biso   1.000  H
  H12      1.0000 0.14260  0.87740  0.94830  Biso   1.000  H
  C21      1.0000 0.17790  0.49720  0.44990  Biso   1.000  C
  C22      1.0000 0.82210  0.99720  0.05010  Biso   1.000  C
  C23      1.0000 0.82210  0.50280  0.55010  Biso   1.000  C
  C24      1.0000 0.17790  0.00280  0.94990  Biso   1.000  C
  C25      1.0000 0.10050  0.46030  0.38750  Biso   1.000  C
  C26      1.0000 0.89950  0.96030  0.11250  Biso   1.000  C
  C27      1.0000 0.89950  0.53970  0.61250  Biso   1.000  C
  C28      1.0000 0.10050  0.03970  0.88750  Biso   1.000  C
  C29      1.0000 0.50330  0.33800  0.60240  Biso   1.000  C
  C30      1.0000 0.49670  0.83800  0.89760  Biso   1.000  C
  C31      1.0000 0.49670  0.66200  0.39760  Biso   1.000  C
  C32      1.0000 0.50330  0.16200  0.10240  Biso   1.000  C
  C33      1.0000 0.45720  0.29160  0.64300  Biso   1.000  C
  C34      1.0000 0.54280  0.79160  0.85700  Biso   1.000  C
  C35      1.0000 0.54280  0.70840  0.35700  Biso   1.000  C
  C36      1.0000 0.45720  0.20840  0.14300  Biso   1.000  C
  C37      1.0000 0.48420  0.21220  0.68530  Biso   1.000  C
  C38      1.0000 0.51580  0.71220  0.81470  Biso   1.000  C
  C39      1.0000 0.51580  0.78780  0.31470  Biso   1.000  C
  C40      1.0000 0.48420  0.28780  0.18530  Biso   1.000  C
  H13      1.0000 0.45290  0.18110  0.71170  Biso   1.000  H
  H14      1.0000 0.54710  0.68110  0.78830  Biso   1.000  H
  H15      1.0000 0.54710  0.81890  0.28830  Biso   1.000  H
  H16      1.0000 0.45290  0.31890  0.21170  Biso   1.000  H
  C41      1.0000 0.55830  0.18200  0.68640  Biso   1.000  C
  C42      1.0000 0.44170  0.68200  0.81360  Biso   1.000  C
  C43      1.0000 0.44170  0.81800  0.31360  Biso   1.000  C
  C44      1.0000 0.55830  0.31800  0.18640  Biso   1.000  C
  H17      1.0000 0.57970  0.13040  0.71680  Biso   1.000  H
  H18      1.0000 0.42030  0.63040  0.78320  Biso   1.000  H
  H19      1.0000 0.42030  0.86960  0.28320  Biso   1.000  H
  H20      1.0000 0.57970  0.36960  0.21680  Biso   1.000  H
  C45      1.0000 0.60290  0.22560  0.64390  Biso   1.000  C
  C46      1.0000 0.39710  0.72560  0.85610  Biso   1.000  C
  C47      1.0000 0.39710  0.77440  0.35610  Biso   1.000  C
  C48      1.0000 0.60290  0.27440  0.14390  Biso   1.000  C
  H21      1.0000 0.65170  0.20070  0.64310  Biso   1.000  H
  H22      1.0000 0.34830  0.70070  0.85690  Biso   1.000  H
  H23      1.0000 0.34830  0.79930  0.35690  Biso   1.000  H
  H24      1.0000 0.65170  0.29930  0.14310  Biso   1.000  H
  C49      1.0000 0.57750  0.30460  0.60280  Biso   1.000  C
  C50      1.0000 0.42250  0.80460  0.89720  Biso   1.000  C
  C51      1.0000 0.42250  0.69540  0.39720  Biso   1.000  C
  C52      1.0000 0.57750  0.19540  0.10280  Biso   1.000  C
  H25      1.0000 0.60910  0.33470  0.57610  Biso   1.000  H
  H26      1.0000 0.39090  0.83470  0.92390  Biso   1.000  H
  H27      1.0000 0.39090  0.66530  0.42390  Biso   1.000  H
  H28      1.0000 0.60910  0.16530  0.07610  Biso   1.000  H
  C53      1.0000 0.32360  0.32050  0.66920  Biso   1.000  C
  C54      1.0000 0.67640  0.82050  0.83080  Biso   1.000  C
  C55      1.0000 0.67640  0.67950  0.33080  Biso   1.000  C
  C56      1.0000 0.32360  0.17950  0.16920  Biso   1.000  C
  H29      1.0000 0.31920  0.25750  0.67520  Biso   1.000  H
  H30      1.0000 0.68080  0.75750  0.82480  Biso   1.000  H
  H31      1.0000 0.68080  0.74250  0.32480  Biso   1.000  H
  H32      1.0000 0.31920  0.24250  0.17520  Biso   1.000  H
  H33      1.0000 0.26970  0.34230  0.63130  Biso   1.000  H
  H34      1.0000 0.73030  0.84230  0.86870  Biso   1.000  H
  H35      1.0000 0.73030  0.65770  0.36870  Biso   1.000  H
  H36      1.0000 0.26970  0.15770  0.13130  Biso   1.000  H
  C57      1.0000 0.34840  0.36320  0.75940  Biso   1.000  C
  C58      1.0000 0.65160  0.86320  0.74060  Biso   1.000  C
  C59      1.0000 0.65160  0.63680  0.24060  Biso   1.000  C
  C60      1.0000 0.34840  0.13680  0.25940  Biso   1.000  C
  C61      1.0000 0.31640  0.44340  0.76560  Biso   1.000  C
  C62      1.0000 0.68360  0.94340  0.73440  Biso   1.000  C
  C63      1.0000 0.68360  0.55660  0.23440  Biso   1.000  C
  C64      1.0000 0.31640  0.05660  0.26560  Biso   1.000  C
  H37      1.0000 0.27900  0.47010  0.71520  Biso   1.000  H
  H38      1.0000 0.72100  0.97010  0.78480  Biso   1.000  H
  H39      1.0000 0.72100  0.52990  0.28480  Biso   1.000  H
  H40      1.0000 0.27900  0.02990  0.21520  Biso   1.000  H
  C65      1.0000 0.33950  0.48550  0.84700  Biso   1.000  C
  C66      1.0000 0.66050  0.98550  0.65300  Biso   1.000  C
  C67      1.0000 0.66050  0.51450  0.15300  Biso   1.000  C
  C68      1.0000 0.33950  0.01450  0.34700  Biso   1.000  C
  H41      1.0000 0.31610  0.53920  0.85220  Biso   1.000  H
  H42      1.0000 0.68390  0.03920  0.64780  Biso   1.000  H
  H43      1.0000 0.68390  0.46080  0.14780  Biso   1.000  H
  H44      1.0000 0.31610  0.96080  0.35220  Biso   1.000  H
  C69      1.0000 0.39760  0.44670  0.92000  Biso   1.000  C
  C70      1.0000 0.60240  0.94670  0.58000  Biso   1.000  C
  C71      1.0000 0.60240  0.55330  0.08000  Biso   1.000  C
  C72      1.0000 0.39760  0.05330  0.42000  Biso   1.000  C
  H45      1.0000 0.41750  0.47770  0.97310  Biso   1.000  H
  H46      1.0000 0.58250  0.97770  0.52690  Biso   1.000  H
  H47      1.0000 0.58250  0.52230  0.02690  Biso   1.000  H
  H48      1.0000 0.41750  0.02230  0.47310  Biso   1.000  H
  C73      1.0000 0.42570  0.36700  0.91690  Biso   1.000  C
  C74      1.0000 0.57430  0.86700  0.58310  Biso   1.000  C
  C75      1.0000 0.57430  0.63300  0.08310  Biso   1.000  C
  C76      1.0000 0.42570  0.13300  0.41690  Biso   1.000  C
  H49      1.0000 0.46090  0.33950  0.96810  Biso   1.000  H
  H50      1.0000 0.53910  0.83950  0.53190  Biso   1.000  H
  H51      1.0000 0.53910  0.66050  0.03190  Biso   1.000  H
  H52      1.0000 0.46090  0.16050  0.46810  Biso   1.000  H
  C77      1.0000 0.40100  0.32380  0.83300  Biso   1.000  C
  C78      1.0000 0.59900  0.82380  0.66700  Biso   1.000  C
  C79      1.0000 0.59900  0.67620  0.16700  Biso   1.000  C
  C80      1.0000 0.40100  0.17620  0.33300  Biso   1.000  C
  H53      1.0000 0.42130  0.26800  0.82900  Biso   1.000  H
  H54      1.0000 0.57870  0.76800  0.67100  Biso   1.000  H
  H55      1.0000 0.57870  0.73200  0.17100  Biso   1.000  H
  H56      1.0000 0.42130  0.23200  0.32900  Biso   1.000  H
  C81      1.0000 0.97280  0.41660  0.32590  Biso   1.000  C
  C82      1.0000 0.02720  0.91660  0.17410  Biso   1.000  C
  C83      1.0000 0.02720  0.58340  0.67410  Biso   1.000  C
  C84      1.0000 0.97280  0.08340  0.82590  Biso   1.000  C
  C85      1.0000 0.01450  0.38980  0.27140  Biso   1.000  C
  C86      1.0000 0.98550  0.88980  0.22860  Biso   1.000  C
  C87      1.0000 0.98550  0.61020  0.72860  Biso   1.000  C
  C88      1.0000 0.01450  0.11020  0.77140  Biso   1.000  C
  C89      1.0000 0.97480  0.34360  0.19320  Biso   1.000  C
  C90      1.0000 0.02520  0.84360  0.30680  Biso   1.000  C
  C91      1.0000 0.02520  0.65640  0.80680  Biso   1.000  C
  C92      1.0000 0.97480  0.15640  0.69320  Biso   1.000  C
  H57      1.0000 0.00250  0.32690  0.15600  Biso   1.000  H
  H58      1.0000 0.99750  0.82690  0.34400  Biso   1.000  H
  H59      1.0000 0.99750  0.67310  0.84400  Biso   1.000  H
  H60      1.0000 0.00250  0.17310  0.65600  Biso   1.000  H
  C93      1.0000 0.89520  0.32450  0.17430  Biso   1.000  C
  C94      1.0000 0.10480  0.82450  0.32570  Biso   1.000  C
  C95      1.0000 0.10480  0.67550  0.82570  Biso   1.000  C
  C96      1.0000 0.89520  0.17550  0.67430  Biso   1.000  C
  H61      1.0000 0.86720  0.29300  0.12280  Biso   1.000  H
  H62      1.0000 0.13280  0.79300  0.37720  Biso   1.000  H
  H63      1.0000 0.13280  0.70700  0.87720  Biso   1.000  H
  H64      1.0000 0.86720  0.20700  0.62280  Biso   1.000  H
  C97      1.0000 0.85240  0.34930  0.22740  Biso   1.000  C
  C98      1.0000 0.14760  0.84930  0.27260  Biso   1.000  C
  C99      1.0000 0.14760  0.65070  0.77260  Biso   1.000  C
  C100     1.0000 0.85240  0.15070  0.72740  Biso   1.000  C
  H65      1.0000 0.79670  0.33410  0.21070  Biso   1.000  H
  H66      1.0000 0.20330  0.83410  0.28930  Biso   1.000  H
  H67      1.0000 0.20330  0.66590  0.78930  Biso   1.000  H
  H68      1.0000 0.79670  0.16590  0.71070  Biso   1.000  H
  C101     1.0000 0.88950  0.39600  0.30490  Biso   1.000  C
  C102     1.0000 0.11050  0.89600  0.19510  Biso   1.000  C
  C103     1.0000 0.11050  0.60400  0.69510  Biso   1.000  C
  C104     1.0000 0.88950  0.10400  0.80490  Biso   1.000  C
  H69      1.0000 0.86050  0.41260  0.34100  Biso   1.000  H
  H70      1.0000 0.13950  0.91260  0.15900  Biso   1.000  H
  H71      1.0000 0.13950  0.58740  0.65900  Biso   1.000  H
  H72      1.0000 0.86050  0.08740  0.84100  Biso   1.000  H
  C105     1.0000 0.15910  0.41450  0.27120  Biso   1.000  C
  C106     1.0000 0.84090  0.91450  0.22880  Biso   1.000  C
  C107     1.0000 0.84090  0.58550  0.72880  Biso   1.000  C
  C108     1.0000 0.15910  0.08550  0.77120  Biso   1.000  C
  H73      1.0000 0.15590  0.35790  0.24260  Biso   1.000  H
  H74      1.0000 0.84410  0.85790  0.25740  Biso   1.000  H
  H75      1.0000 0.84410  0.64210  0.75740  Biso   1.000  H
  H76      1.0000 0.15590  0.14210  0.74260  Biso   1.000  H
  H77      1.0000 0.21370  0.41940  0.31740  Biso   1.000  H
  H78      1.0000 0.78630  0.91940  0.18260  Biso   1.000  H
  H79      1.0000 0.78630  0.58060  0.68260  Biso   1.000  H
  H80      1.0000 0.21370  0.08060  0.81740  Biso   1.000  H
  C109     1.0000 0.14870  0.48610  0.20400  Biso   1.000  C
  C110     1.0000 0.85130  0.98610  0.29600  Biso   1.000  C
  C111     1.0000 0.85130  0.51390  0.79600  Biso   1.000  C
  C112     1.0000 0.14870  0.01390  0.70400  Biso   1.000  C
  C113     1.0000 0.11220  0.47600  0.11940  Biso   1.000  C
  C114     1.0000 0.88780  0.97600  0.38060  Biso   1.000  C
  C115     1.0000 0.88780  0.52400  0.88060  Biso   1.000  C
  C116     1.0000 0.11220  0.02400  0.61940  Biso   1.000  C
  H81      1.0000 0.08960  0.42160  0.09740  Biso   1.000  H
  H82      1.0000 0.91040  0.92160  0.40260  Biso   1.000  H
  H83      1.0000 0.91040  0.57840  0.90260  Biso   1.000  H
  H84      1.0000 0.08960  0.07840  0.59740  Biso   1.000  H
  C117     1.0000 0.10560  0.54700  0.05840  Biso   1.000  C
  C118     1.0000 0.89440  0.04700  0.44160  Biso   1.000  C
  C119     1.0000 0.89440  0.45300  0.94160  Biso   1.000  C
  C120     1.0000 0.10560  0.95300  0.55840  Biso   1.000  C
  H85      1.0000 0.08520  0.53720  0.99750  Biso   1.000  H
  H86      1.0000 0.91480  0.03720  0.50250  Biso   1.000  H
  H87      1.0000 0.91480  0.46280  0.00250  Biso   1.000  H
  H88      1.0000 0.08520  0.96280  0.49750  Biso   1.000  H
  C121     1.0000 0.12770  0.62170  0.08880  Biso   1.000  C
  C122     1.0000 0.87230  0.12170  0.41120  Biso   1.000  C
  C123     1.0000 0.87230  0.37830  0.91120  Biso   1.000  C
  C124     1.0000 0.12770  0.87830  0.58880  Biso   1.000  C
  H89      1.0000 0.11090  0.66980  0.05100  Biso   1.000  H
  H90      1.0000 0.88910  0.16980  0.44900  Biso   1.000  H
  H91      1.0000 0.88910  0.33020  0.94900  Biso   1.000  H
  H92      1.0000 0.11090  0.83020  0.55100  Biso   1.000  H
  C125     1.0000 0.17500  0.63530  0.17430  Biso   1.000  C
  C126     1.0000 0.82500  0.13530  0.32570  Biso   1.000  C
  C127     1.0000 0.82500  0.36470  0.82570  Biso   1.000  C
  C128     1.0000 0.17500  0.86470  0.67430  Biso   1.000  C
  H93      1.0000 0.20160  0.68870  0.19340  Biso   1.000  H
  H94      1.0000 0.79840  0.18870  0.30660  Biso   1.000  H
  H95      1.0000 0.79840  0.31130  0.80660  Biso   1.000  H
  H96      1.0000 0.20160  0.81130  0.69340  Biso   1.000  H
  C129     1.0000 0.18300  0.56470  0.23480  Biso   1.000  C
  C130     1.0000 0.81700  0.06470  0.26520  Biso   1.000  C
  C131     1.0000 0.81700  0.43530  0.76520  Biso   1.000  C
  C132     1.0000 0.18300  0.93530  0.73480  Biso   1.000  C
  H97      1.0000 0.21170  0.57290  0.29530  Biso   1.000  H
  H98      1.0000 0.78830  0.07290  0.20470  Biso   1.000  H
  H99      1.0000 0.78830  0.42710  0.70470  Biso   1.000  H
  H100     1.0000 0.21170  0.92710  0.79530  Biso   1.000  H
  C133     1.0000 0.20100  0.31260  0.88610  Biso   1.000  C
  C134     1.0000 0.79900  0.81260  0.61390  Biso   1.000  C
  C135     1.0000 0.79900  0.68740  0.11390  Biso   1.000  C
  C136     1.0000 0.20100  0.18740  0.38610  Biso   1.000  C
  H101     1.0000 0.22780  0.33420  0.84980  Biso   1.000  H
  H102     1.0000 0.77220  0.83420  0.65020  Biso   1.000  H
  H103     1.0000 0.77220  0.66580  0.15020  Biso   1.000  H
  H104     1.0000 0.22780  0.16580  0.34980  Biso   1.000  H
  C137     1.0000 0.08050  0.39560  0.80650  Biso   1.000  C
  C138     1.0000 0.91950  0.89560  0.69350  Biso   1.000  C
  C139     1.0000 0.91950  0.60440  0.19350  Biso   1.000  C
  C140     1.0000 0.08050  0.10440  0.30650  Biso   1.000  C
  H105     1.0000 0.02550  0.40460  0.80650  Biso   1.000  H
  H106     1.0000 0.97450  0.90460  0.69350  Biso   1.000  H
  H107     1.0000 0.97450  0.59540  0.19350  Biso   1.000  H
  H108     1.0000 0.02550  0.09540  0.30650  Biso   1.000  H
  H109     1.0000 0.07720  0.37240  0.75010  Biso   1.000  H
  H110     1.0000 0.92280  0.87240  0.74990  Biso   1.000  H
  H111     1.0000 0.92280  0.62760  0.24990  Biso   1.000  H
  H112     1.0000 0.07720  0.12760  0.25010  Biso   1.000  H
  H113     1.0000 0.10970  0.45050  0.81680  Biso   1.000  H
  H114     1.0000 0.89030  0.95050  0.68320  Biso   1.000  H
  H115     1.0000 0.89030  0.54950  0.18320  Biso   1.000  H
  H116     1.0000 0.10970  0.04950  0.31680  Biso   1.000  H
  C141     1.0000 0.09210  0.29090  0.93160  Biso   1.000  C
  C142     1.0000 0.90790  0.79090  0.56840  Biso   1.000  C
  C143     1.0000 0.90790  0.70910  0.06840  Biso   1.000  C
  C144     1.0000 0.09210  0.20910  0.43160  Biso   1.000  C
  H117     1.0000 0.03600  0.30900  0.92050  Biso   1.000  H
  H118     1.0000 0.96400  0.80900  0.57950  Biso   1.000  H
  H119     1.0000 0.96400  0.69100  0.07950  Biso   1.000  H
  H120     1.0000 0.03600  0.19100  0.42050  Biso   1.000  H
  H121     1.0000 0.12600  0.30410  0.99200  Biso   1.000  H
  H122     1.0000 0.87400  0.80410  0.50800  Biso   1.000  H
  H123     1.0000 0.87400  0.69590  0.00800  Biso   1.000  H
  H124     1.0000 0.12600  0.19590  0.49200  Biso   1.000  H
  H125     1.0000 0.09340  0.22890  0.92160  Biso   1.000  H
  H126     1.0000 0.90660  0.72890  0.57840  Biso   1.000  H
  H127     1.0000 0.90660  0.77110  0.07840  Biso   1.000  H
  H128     1.0000 0.09340  0.27110  0.42160  Biso   1.000  H
  C145     1.0000 0.34040  0.64910  0.05060  Biso   1.000  C
  C146     1.0000 0.65960  0.14910  0.44940  Biso   1.000  C
  C147     1.0000 0.65960  0.35090  0.94940  Biso   1.000  C
  C148     1.0000 0.34040  0.85090  0.55060  Biso   1.000  C
  H129     1.0000 0.38020  0.69300  0.07130  Biso   1.000  H
  H130     1.0000 0.61980  0.19300  0.42870  Biso   1.000  H
  H131     1.0000 0.61980  0.30700  0.92870  Biso   1.000  H
  H132     1.0000 0.38020  0.80700  0.57130  Biso   1.000  H
  C149     1.0000 0.41060  0.56810  0.18060  Biso   1.000  C
  C150     1.0000 0.58940  0.06810  0.31940  Biso   1.000  C
  C151     1.0000 0.58940  0.43190  0.81940  Biso   1.000  C
  C152     1.0000 0.41060  0.93190  0.68060  Biso   1.000  C
  H133     1.0000 0.40750  0.51310  0.20830  Biso   1.000  H
  H134     1.0000 0.59250  0.01310  0.29170  Biso   1.000  H
  H135     1.0000 0.59250  0.48690  0.79170  Biso   1.000  H
  H136     1.0000 0.40750  0.98690  0.70830  Biso   1.000  H
  H137     1.0000 0.40380  0.61540  0.21660  Biso   1.000  H
  H138     1.0000 0.59620  0.11540  0.28340  Biso   1.000  H
  H139     1.0000 0.59620  0.38460  0.78340  Biso   1.000  H
  H140     1.0000 0.40380  0.88460  0.71660  Biso   1.000  H
  H141     1.0000 0.46380  0.57300  0.17470  Biso   1.000  H
  H142     1.0000 0.53620  0.07300  0.32530  Biso   1.000  H
  H143     1.0000 0.53620  0.42700  0.82530  Biso   1.000  H
  H144     1.0000 0.46380  0.92700  0.67470  Biso   1.000  H
  C153     1.0000 0.30580  0.49470  0.07760  Biso   1.000  C
  C154     1.0000 0.69420  0.99470  0.42240  Biso   1.000  C
  C155     1.0000 0.69420  0.50530  0.92240  Biso   1.000  C
  C156     1.0000 0.30580  0.00530  0.57760  Biso   1.000  C
  H145     1.0000 0.32630  0.45580  0.12760  Biso   1.000  H
  H146     1.0000 0.67370  0.95580  0.37240  Biso   1.000  H
  H147     1.0000 0.67370  0.54420  0.87240  Biso   1.000  H
  H148     1.0000 0.32630  0.04420  0.62760  Biso   1.000  H
  H149     1.0000 0.31340  0.46820  0.02710  Biso   1.000  H
  H150     1.0000 0.68660  0.96820  0.47290  Biso   1.000  H
  H151     1.0000 0.68660  0.53180  0.97290  Biso   1.000  H
  H152     1.0000 0.31340  0.03180  0.52710  Biso   1.000  H
  H153     1.0000 0.24780  0.50560  0.06420  Biso   1.000  H
  H154     1.0000 0.75220  0.00560  0.43580  Biso   1.000  H
  H155     1.0000 0.75220  0.49440  0.93580  Biso   1.000  H
  H156     1.0000 0.24780  0.99440  0.56420  Biso   1.000  H
