data_image0
_cell_length_a       8.562
_cell_length_b       8.11
_cell_length_c       11.448
_cell_angle_alpha    90
_cell_angle_beta     90
_cell_angle_gamma    90

_symmetry_space_group_name_H-M    "P 1"
_symmetry_int_tables_number       1

loop_
  _symmetry_equiv_pos_as_xyz
  'x, y, z'

loop_
  _atom_site_label
  _atom_site_occupancy
  _atom_site_fract_x
  _atom_site_fract_y
  _atom_site_fract_z
  _atom_site_thermal_displace_type
  _atom_site_B_iso_or_equiv
  _atom_site_type_symbol
  Cu1      1.0000 0.50000  0.50000  0.50000  Biso   1.000  Cu
  Cu2      1.0000 0.50000  0.50000  0.00000  Biso   1.000  Cu
  Cu3      1.0000 0.00000  0.00000  0.00000  Biso   1.000  Cu
  Cu4      1.0000 0.00000  0.00000  0.50000  Biso   1.000  Cu
  O1       1.0000 0.58040  0.29490  0.43330  Biso   1.000  O
  O2       1.0000 0.41960  0.70510  0.93330  Biso   1.000  O
  O3       1.0000 0.08040  0.20510  0.06670  Biso   1.000  O
  O4       1.0000 0.91960  0.79490  0.56670  Biso   1.000  O
  O5       1.0000 0.41960  0.70510  0.56670  Biso   1.000  O
  O6       1.0000 0.58040  0.29490  0.06670  Biso   1.000  O
  O7       1.0000 0.91960  0.79490  0.93330  Biso   1.000  O
  O8       1.0000 0.08040  0.20510  0.43330  Biso   1.000  O
  O9       1.0000 0.74690  0.08680  0.43740  Biso   1.000  O
  O10      1.0000 0.25310  0.91320  0.93740  Biso   1.000  O
  O11      1.0000 0.24690  0.41320  0.06260  Biso   1.000  O
  O12      1.0000 0.75310  0.58680  0.56260  Biso   1.000  O
  O13      1.0000 0.25310  0.91320  0.56260  Biso   1.000  O
  O14      1.0000 0.74690  0.08680  0.06260  Biso   1.000  O
  O15      1.0000 0.75310  0.58680  0.93740  Biso   1.000  O
  O16      1.0000 0.24690  0.41320  0.43740  Biso   1.000  O
  O17      1.0000 0.47710  0.38370  0.65420  Biso   1.000  O
  O18      1.0000 0.52290  0.61630  0.15420  Biso   1.000  O
  O19      1.0000 0.97710  0.11630  0.84580  Biso   1.000  O
  O20      1.0000 0.02290  0.88370  0.34580  Biso   1.000  O
  O21      1.0000 0.52290  0.61630  0.34580  Biso   1.000  O
  O22      1.0000 0.47710  0.38370  0.84580  Biso   1.000  O
  O23      1.0000 0.02290  0.88370  0.15420  Biso   1.000  O
  O24      1.0000 0.97710  0.11630  0.65420  Biso   1.000  O
  C1       1.0000 0.69810  0.22200  0.47210  Biso   1.000  C
  C2       1.0000 0.30190  0.77800  0.97210  Biso   1.000  C
  C3       1.0000 0.19810  0.27800  0.02790  Biso   1.000  C
  C4       1.0000 0.80190  0.72200  0.52790  Biso   1.000  C
  C5       1.0000 0.30190  0.77800  0.52790  Biso   1.000  C
  C6       1.0000 0.69810  0.22200  0.02790  Biso   1.000  C
  C7       1.0000 0.80190  0.72200  0.97210  Biso   1.000  C
  C8       1.0000 0.19810  0.27800  0.47210  Biso   1.000  C
  C9       1.0000 0.49510  0.45330  0.75000  Biso   1.000  C
  C10      1.0000 0.50490  0.54670  0.25000  Biso   1.000  C
  C11      1.0000 0.99510  0.04670  0.75000  Biso   1.000  C
  C12      1.0000 0.00490  0.95330  0.25000  Biso   1.000  C
  H1       1.0000 0.74700  0.27000  0.52300  Biso   1.000  H
  H2       1.0000 0.25300  0.73000  0.02300  Biso   1.000  H
  H3       1.0000 0.24700  0.23000  0.97700  Biso   1.000  H
  H4       1.0000 0.75300  0.77000  0.47700  Biso   1.000  H
  H5       1.0000 0.25300  0.73000  0.47700  Biso   1.000  H
  H6       1.0000 0.74700  0.27000  0.97700  Biso   1.000  H
  H7       1.0000 0.75300  0.77000  0.02300  Biso   1.000  H
  H8       1.0000 0.24700  0.23000  0.52300  Biso   1.000  H
  H9       1.0000 0.54600  0.57700  0.75000  Biso   1.000  H
  H10      1.0000 0.45400  0.42300  0.25000  Biso   1.000  H
  H11      1.0000 0.04600  0.92300  0.75000  Biso   1.000  H
  H12      1.0000 0.95400  0.07700  0.25000  Biso   1.000  H
  N1       1.0000 0.56610  0.96910  0.25000  Biso   1.000  N
  N2       1.0000 0.43390  0.03090  0.75000  Biso   1.000  N
  N3       1.0000 0.06610  0.53090  0.25000  Biso   1.000  N
  N4       1.0000 0.93390  0.46910  0.75000  Biso   1.000  N
  C13      1.0000 0.40170  0.02410  0.25000  Biso   1.000  C
  C14      1.0000 0.59830  0.97590  0.75000  Biso   1.000  C
  C15      1.0000 0.90170  0.47590  0.25000  Biso   1.000  C
  C16      1.0000 0.09830  0.52410  0.75000  Biso   1.000  C
  H13      1.0000 0.39000  0.09900  0.25000  Biso   1.000  H
  H14      1.0000 0.61000  0.90100  0.75000  Biso   1.000  H
  H15      1.0000 0.89000  0.40100  0.25000  Biso   1.000  H
  H16      1.0000 0.11000  0.59900  0.75000  Biso   1.000  H
  H17      1.0000 0.35300  0.98600  0.30300  Biso   1.000  H
  H18      1.0000 0.64700  0.01400  0.80300  Biso   1.000  H
  H19      1.0000 0.85300  0.51400  0.19700  Biso   1.000  H
  H20      1.0000 0.14700  0.48600  0.69700  Biso   1.000  H
  H21      1.0000 0.64700  0.01400  0.69700  Biso   1.000  H
  H22      1.0000 0.35300  0.98600  0.19700  Biso   1.000  H
  H23      1.0000 0.14700  0.48600  0.80300  Biso   1.000  H
  H24      1.0000 0.85300  0.51400  0.30300  Biso   1.000  H
  H25      1.0000 0.55700  0.89800  0.25000  Biso   1.000  H
  H26      1.0000 0.44300  0.10200  0.75000  Biso   1.000  H
  H27      1.0000 0.05700  0.60200  0.25000  Biso   1.000  H
  H28      1.0000 0.94300  0.39800  0.75000  Biso   1.000  H
  H29      1.0000 0.61600  0.00600  0.19100  Biso   1.000  H
  H30      1.0000 0.38400  0.99400  0.69100  Biso   1.000  H
  H31      1.0000 0.11600  0.49400  0.30900  Biso   1.000  H
  H32      1.0000 0.88400  0.50600  0.80900  Biso   1.000  H
  H33      1.0000 0.38400  0.99400  0.80900  Biso   1.000  H
  H34      1.0000 0.61600  0.00600  0.30900  Biso   1.000  H
  H35      1.0000 0.88400  0.50600  0.69100  Biso   1.000  H
  H36      1.0000 0.11600  0.49400  0.19100  Biso   1.000  H
