data_image0
_cell_length_a       9.4896
_cell_length_b       14.993
_cell_length_c       18.225
_cell_angle_alpha    90
_cell_angle_beta     93.815
_cell_angle_gamma    90

_symmetry_space_group_name_H-M    "P 1"
_symmetry_int_tables_number       1

loop_
  _symmetry_equiv_pos_as_xyz
  'x, y, z'

loop_
  _atom_site_label
  _atom_site_occupancy
  _atom_site_fract_x
  _atom_site_fract_y
  _atom_site_fract_z
  _atom_site_thermal_displace_type
  _atom_site_B_iso_or_equiv
  _atom_site_type_symbol
  Gd1      1.0000 0.30373  0.58451  0.99940  Biso   1.000  Gd
  Gd2      1.0000 0.19627  0.08451  0.50060  Biso   1.000  Gd
  Gd3      1.0000 0.69627  0.41549  0.00060  Biso   1.000  Gd
  Gd4      1.0000 0.80373  0.91549  0.49940  Biso   1.000  Gd
  Cu1      1.0000 0.00000  0.00000  0.00000  Biso   1.000  Cu
  Cu2      1.0000 0.50000  0.50000  0.50000  Biso   1.000  Cu
  C1       1.0000 0.05850  0.67197  0.17960  Biso   1.000  C
  C2       1.0000 0.44150  0.17197  0.32040  Biso   1.000  C
  C3       1.0000 0.94150  0.32803  0.82040  Biso   1.000  C
  C4       1.0000 0.55850  0.82803  0.67960  Biso   1.000  C
  C5       1.0000 0.11950  0.73431  0.22751  Biso   1.000  C
  C6       1.0000 0.38050  0.23431  0.27249  Biso   1.000  C
  C7       1.0000 0.88050  0.26569  0.77249  Biso   1.000  C
  C8       1.0000 0.61950  0.76569  0.72751  Biso   1.000  C
  H1       1.0000 0.20710  0.75870  0.21900  Biso   1.000  H
  H2       1.0000 0.29290  0.25870  0.28100  Biso   1.000  H
  H3       1.0000 0.79290  0.24130  0.78100  Biso   1.000  H
  H4       1.0000 0.70710  0.74130  0.71900  Biso   1.000  H
  C9       1.0000 0.04950  0.76022  0.28823  Biso   1.000  C
  C10      1.0000 0.45050  0.26022  0.21177  Biso   1.000  C
  C11      1.0000 0.95050  0.23978  0.71177  Biso   1.000  C
  C12      1.0000 0.54950  0.73978  0.78823  Biso   1.000  C
  H5       1.0000 0.09280  0.80160  0.32040  Biso   1.000  H
  H6       1.0000 0.40720  0.30160  0.17960  Biso   1.000  H
  H7       1.0000 0.90720  0.19840  0.67960  Biso   1.000  H
  H8       1.0000 0.59280  0.69840  0.82040  Biso   1.000  H
  C13      1.0000 0.86650  0.66850  0.25667  Biso   1.000  C
  C14      1.0000 0.63350  0.16850  0.24333  Biso   1.000  C
  C15      1.0000 0.13350  0.33150  0.74333  Biso   1.000  C
  C16      1.0000 0.36650  0.83150  0.75667  Biso   1.000  C
  H9       1.0000 0.77890  0.64510  0.26640  Biso   1.000  H
  H10      1.0000 0.72110  0.14510  0.23360  Biso   1.000  H
  H11      1.0000 0.22110  0.35490  0.73360  Biso   1.000  H
  H12      1.0000 0.27890  0.85490  0.76640  Biso   1.000  H
  C17      1.0000 0.92890  0.63765  0.19487  Biso   1.000  C
  C18      1.0000 0.57110  0.13765  0.30513  Biso   1.000  C
  C19      1.0000 0.07110  0.36235  0.80513  Biso   1.000  C
  C20      1.0000 0.42890  0.86235  0.69487  Biso   1.000  C
  H13      1.0000 0.88440  0.59490  0.16450  Biso   1.000  H
  H14      1.0000 0.61560  0.09490  0.33550  Biso   1.000  H
  H15      1.0000 0.11560  0.40510  0.83550  Biso   1.000  H
  H16      1.0000 0.38440  0.90510  0.66450  Biso   1.000  H
  C21      1.0000 0.13304  0.64296  0.11306  Biso   1.000  C
  C22      1.0000 0.36696  0.14296  0.38694  Biso   1.000  C
  C23      1.0000 0.86696  0.35704  0.88694  Biso   1.000  C
  C24      1.0000 0.63304  0.85704  0.61306  Biso   1.000  C
  C25      1.0000 0.54830  0.52073  0.22191  Biso   1.000  C
  C26      1.0000 0.95170  0.02073  0.27809  Biso   1.000  C
  C27      1.0000 0.45170  0.47927  0.77809  Biso   1.000  C
  C28      1.0000 0.04830  0.97927  0.72191  Biso   1.000  C
  C29      1.0000 0.64090  0.46918  0.26482  Biso   1.000  C
  C30      1.0000 0.85910  0.96918  0.23518  Biso   1.000  C
  C31      1.0000 0.35910  0.53082  0.73518  Biso   1.000  C
  C32      1.0000 0.14090  0.03082  0.76482  Biso   1.000  C
  H17      1.0000 0.69120  0.42340  0.24410  Biso   1.000  H
  H18      1.0000 0.80880  0.92340  0.25590  Biso   1.000  H
  H19      1.0000 0.30880  0.57660  0.75590  Biso   1.000  H
  H20      1.0000 0.19120  0.07660  0.74410  Biso   1.000  H
  C33      1.0000 0.65780  0.48660  0.33932  Biso   1.000  C
  C34      1.0000 0.84220  0.98660  0.16068  Biso   1.000  C
  C35      1.0000 0.34220  0.51340  0.66068  Biso   1.000  C
  C36      1.0000 0.15780  0.01340  0.83932  Biso   1.000  C
  H21      1.0000 0.72000  0.45090  0.36780  Biso   1.000  H
  H22      1.0000 0.78000  0.95090  0.13220  Biso   1.000  H
  H23      1.0000 0.28000  0.54910  0.63220  Biso   1.000  H
  H24      1.0000 0.22000  0.04910  0.86780  Biso   1.000  H
  C37      1.0000 0.50780  0.60294  0.32970  Biso   1.000  C
  C38      1.0000 0.99220  0.10294  0.17030  Biso   1.000  C
  C39      1.0000 0.49220  0.39706  0.67030  Biso   1.000  C
  C40      1.0000 0.00780  0.89706  0.82970  Biso   1.000  C
  H25      1.0000 0.46400  0.65070  0.35150  Biso   1.000  H
  H26      1.0000 0.03600  0.15070  0.14850  Biso   1.000  H
  H27      1.0000 0.53600  0.34930  0.64850  Biso   1.000  H
  H28      1.0000 0.96400  0.84930  0.85150  Biso   1.000  H
  C41      1.0000 0.48190  0.59079  0.25514  Biso   1.000  C
  C42      1.0000 0.01810  0.09079  0.24486  Biso   1.000  C
  C43      1.0000 0.51810  0.40921  0.74486  Biso   1.000  C
  C44      1.0000 0.98190  0.90921  0.75514  Biso   1.000  C
  H29      1.0000 0.42130  0.62870  0.22780  Biso   1.000  H
  H30      1.0000 0.07870  0.12870  0.27220  Biso   1.000  H
  H31      1.0000 0.57870  0.37130  0.77220  Biso   1.000  H
  H32      1.0000 0.92130  0.87130  0.72780  Biso   1.000  H
  C45      1.0000 0.51910  0.50154  0.14143  Biso   1.000  C
  C46      1.0000 0.98090  0.00154  0.35857  Biso   1.000  C
  C47      1.0000 0.48090  0.49846  0.85857  Biso   1.000  C
  C48      1.0000 0.01910  0.99846  0.64143  Biso   1.000  C
  C49      1.0000 0.73700  0.72789  0.99826  Biso   1.000  C
  C50      1.0000 0.76300  0.22789  0.50174  Biso   1.000  C
  C51      1.0000 0.26300  0.27211  0.00174  Biso   1.000  C
  C52      1.0000 0.23700  0.77211  0.49826  Biso   1.000  C
  C53      1.0000 0.88310  0.72796  0.99831  Biso   1.000  C
  C54      1.0000 0.61690  0.22796  0.50169  Biso   1.000  C
  C55      1.0000 0.11690  0.27204  0.00169  Biso   1.000  C
  C56      1.0000 0.38310  0.77204  0.49831  Biso   1.000  C
  H33      1.0000 0.93280  0.67450  0.99820  Biso   1.000  H
  H34      1.0000 0.56720  0.17450  0.50180  Biso   1.000  H
  H35      1.0000 0.06720  0.32550  0.00180  Biso   1.000  H
  H36      1.0000 0.43280  0.82550  0.49820  Biso   1.000  H
  C57      1.0000 0.95350  0.80838  0.99852  Biso   1.000  C
  C58      1.0000 0.54650  0.30838  0.50148  Biso   1.000  C
  C59      1.0000 0.04650  0.19162  0.00148  Biso   1.000  C
  C60      1.0000 0.45350  0.69162  0.49852  Biso   1.000  C
  H37      1.0000 0.05160  0.80810  0.99930  Biso   1.000  H
  H38      1.0000 0.44840  0.30810  0.50070  Biso   1.000  H
  H39      1.0000 0.94840  0.19190  0.00070  Biso   1.000  H
  H40      1.0000 0.55160  0.69190  0.49930  Biso   1.000  H
  C61      1.0000 0.74460  0.88652  0.99477  Biso   1.000  C
  C62      1.0000 0.75540  0.38652  0.50523  Biso   1.000  C
  C63      1.0000 0.25540  0.11348  0.00523  Biso   1.000  C
  C64      1.0000 0.24460  0.61348  0.49477  Biso   1.000  C
  H41      1.0000 0.69720  0.94090  0.99250  Biso   1.000  H
  H42      1.0000 0.80280  0.44090  0.50750  Biso   1.000  H
  H43      1.0000 0.30280  0.05910  0.00750  Biso   1.000  H
  H44      1.0000 0.19720  0.55910  0.49250  Biso   1.000  H
  C65      1.0000 0.66600  0.80870  0.99500  Biso   1.000  C
  C66      1.0000 0.83400  0.30870  0.50500  Biso   1.000  C
  C67      1.0000 0.33400  0.19130  0.00500  Biso   1.000  C
  C68      1.0000 0.16600  0.69130  0.49500  Biso   1.000  C
  H45      1.0000 0.56790  0.81060  0.99300  Biso   1.000  H
  H46      1.0000 0.93210  0.31060  0.50700  Biso   1.000  H
  H47      1.0000 0.43210  0.18940  0.00700  Biso   1.000  H
  H48      1.0000 0.06790  0.68940  0.49300  Biso   1.000  H
  C69      1.0000 0.65790  0.64065  0.00405  Biso   1.000  C
  C70      1.0000 0.84210  0.14065  0.49595  Biso   1.000  C
  C71      1.0000 0.34210  0.35935  0.99595  Biso   1.000  C
  C72      1.0000 0.15790  0.85935  0.50405  Biso   1.000  C
  C73      1.0000 0.33930  0.89580  0.14354  Biso   1.000  C
  C74      1.0000 0.16070  0.39580  0.35646  Biso   1.000  C
  C75      1.0000 0.66070  0.10420  0.85646  Biso   1.000  C
  C76      1.0000 0.83930  0.60420  0.64354  Biso   1.000  C
  C77      1.0000 0.45460  0.83981  0.15345  Biso   1.000  C
  C78      1.0000 0.04540  0.33981  0.34655  Biso   1.000  C
  C79      1.0000 0.54540  0.16019  0.84655  Biso   1.000  C
  C80      1.0000 0.95460  0.66019  0.65345  Biso   1.000  C
  H49      1.0000 0.48620  0.80730  0.11430  Biso   1.000  H
  H50      1.0000 0.01380  0.30730  0.38570  Biso   1.000  H
  H51      1.0000 0.51380  0.19270  0.88570  Biso   1.000  H
  H52      1.0000 0.98620  0.69270  0.61430  Biso   1.000  H
  C81      1.0000 0.52230  0.83314  0.22315  Biso   1.000  C
  C82      1.0000 0.97770  0.33314  0.27685  Biso   1.000  C
  C83      1.0000 0.47770  0.16686  0.77685  Biso   1.000  C
  C84      1.0000 0.02230  0.66686  0.72315  Biso   1.000  C
  H53      1.0000 0.60020  0.79560  0.22910  Biso   1.000  H
  H54      1.0000 0.89980  0.29560  0.27090  Biso   1.000  H
  H55      1.0000 0.39980  0.20440  0.77090  Biso   1.000  H
  H56      1.0000 0.10020  0.70440  0.72910  Biso   1.000  H
  C85      1.0000 0.36980  0.92899  0.27182  Biso   1.000  C
  C86      1.0000 0.13020  0.42899  0.22818  Biso   1.000  C
  C87      1.0000 0.63020  0.07101  0.72818  Biso   1.000  C
  C88      1.0000 0.86980  0.57101  0.77182  Biso   1.000  C
  H57      1.0000 0.33810  0.95880  0.31230  Biso   1.000  H
  H58      1.0000 0.16190  0.45880  0.18770  Biso   1.000  H
  H59      1.0000 0.66190  0.04120  0.68770  Biso   1.000  H
  H60      1.0000 0.83810  0.54120  0.81230  Biso   1.000  H
  C89      1.0000 0.29710  0.94096  0.20431  Biso   1.000  C
  C90      1.0000 0.20290  0.44096  0.29569  Biso   1.000  C
  C91      1.0000 0.70290  0.05904  0.79569  Biso   1.000  C
  C92      1.0000 0.79710  0.55904  0.70431  Biso   1.000  C
  H61      1.0000 0.22000  0.97930  0.19980  Biso   1.000  H
  H62      1.0000 0.28000  0.47930  0.30020  Biso   1.000  H
  H63      1.0000 0.78000  0.02070  0.80020  Biso   1.000  H
  H64      1.0000 0.72000  0.52070  0.69980  Biso   1.000  H
  C93      1.0000 0.25980  0.90651  0.06895  Biso   1.000  C
  C94      1.0000 0.24020  0.40651  0.43105  Biso   1.000  C
  C95      1.0000 0.74020  0.09349  0.93105  Biso   1.000  C
  C96      1.0000 0.75980  0.59349  0.56895  Biso   1.000  C
  N1       1.0000 0.92300  0.72872  0.30280  Biso   1.000  N
  N2       1.0000 0.57700  0.22872  0.19720  Biso   1.000  N
  N3       1.0000 0.07700  0.27128  0.69720  Biso   1.000  N
  N4       1.0000 0.42300  0.77128  0.80280  Biso   1.000  N
  N5       1.0000 0.59140  0.55067  0.37254  Biso   1.000  N
  N6       1.0000 0.90860  0.05067  0.12746  Biso   1.000  N
  N7       1.0000 0.40860  0.44933  0.62746  Biso   1.000  N
  N8       1.0000 0.09140  0.94933  0.87254  Biso   1.000  N
  N9       1.0000 0.88601  0.88674  0.99763  Biso   1.000  N
  N10      1.0000 0.61399  0.38674  0.50237  Biso   1.000  N
  N11      1.0000 0.11399  0.11326  0.00237  Biso   1.000  N
  N12      1.0000 0.38601  0.61326  0.49763  Biso   1.000  N
  N13      1.0000 0.48330  0.87664  0.28166  Biso   1.000  N
  N14      1.0000 0.01670  0.37664  0.21834  Biso   1.000  N
  N15      1.0000 0.51670  0.12336  0.71834  Biso   1.000  N
  N16      1.0000 0.98330  0.62336  0.78166  Biso   1.000  N
  O1       1.0000 0.10242  0.56928  0.08303  Biso   1.000  O
  O2       1.0000 0.39758  0.06928  0.41697  Biso   1.000  O
  O3       1.0000 0.89758  0.43072  0.91697  Biso   1.000  O
  O4       1.0000 0.60242  0.93072  0.58303  Biso   1.000  O
  O5       1.0000 0.22470  0.69362  0.08895  Biso   1.000  O
  O6       1.0000 0.27530  0.19362  0.41105  Biso   1.000  O
  O7       1.0000 0.77530  0.30638  0.91105  Biso   1.000  O
  O8       1.0000 0.72470  0.80638  0.58895  Biso   1.000  O
  O9       1.0000 0.41020  0.53408  0.11122  Biso   1.000  O
  O10      1.0000 0.08980  0.03408  0.38878  Biso   1.000  O
  O11      1.0000 0.58980  0.46592  0.88878  Biso   1.000  O
  O12      1.0000 0.91020  0.96592  0.61122  Biso   1.000  O
  O13      1.0000 0.39511  0.54761  0.88791  Biso   1.000  O
  O14      1.0000 0.10489  0.04761  0.61209  Biso   1.000  O
  O15      1.0000 0.60489  0.45239  0.11209  Biso   1.000  O
  O16      1.0000 0.89511  0.95239  0.38791  Biso   1.000  O
  O17      1.0000 0.52911  0.64646  0.01023  Biso   1.000  O
  O18      1.0000 0.97089  0.14646  0.48977  Biso   1.000  O
  O19      1.0000 0.47089  0.35354  0.98977  Biso   1.000  O
  O20      1.0000 0.02911  0.85354  0.51023  Biso   1.000  O
  O21      1.0000 0.27125  0.42924  0.99584  Biso   1.000  O
  O22      1.0000 0.22875  0.92924  0.50416  Biso   1.000  O
  O23      1.0000 0.72875  0.57076  0.00416  Biso   1.000  O
  O24      1.0000 0.77125  0.07076  0.49584  Biso   1.000  O
  O25      1.0000 0.14176  0.94639  0.07134  Biso   1.000  O
  O26      1.0000 0.35824  0.44639  0.42866  Biso   1.000  O
  O27      1.0000 0.85824  0.05361  0.92866  Biso   1.000  O
  O28      1.0000 0.64176  0.55361  0.57134  Biso   1.000  O
  O29      1.0000 0.31433  0.87838  0.01408  Biso   1.000  O
  O30      1.0000 0.18567  0.37838  0.48592  Biso   1.000  O
  O31      1.0000 0.68567  0.12162  0.98592  Biso   1.000  O
  O32      1.0000 0.81433  0.62162  0.51408  Biso   1.000  O
  O33      1.0000 0.09048  0.57078  0.92213  Biso   1.000  O
  O34      1.0000 0.40952  0.07078  0.57787  Biso   1.000  O
  O35      1.0000 0.90952  0.42922  0.07787  Biso   1.000  O
  O36      1.0000 0.59048  0.92922  0.42213  Biso   1.000  O
  H65      1.0000 0.06700  0.59510  0.88360  Biso   1.000  H
  H66      1.0000 0.43300  0.09510  0.61640  Biso   1.000  H
  H67      1.0000 0.93300  0.40490  0.11640  Biso   1.000  H
  H68      1.0000 0.56700  0.90490  0.38360  Biso   1.000  H
  H69      1.0000 0.04300  0.53740  0.92490  Biso   1.000  H
  H70      1.0000 0.45700  0.03740  0.57510  Biso   1.000  H
  H71      1.0000 0.95700  0.46260  0.07510  Biso   1.000  H
  H72      1.0000 0.54300  0.96260  0.42490  Biso   1.000  H
  O37      1.0000 0.27748  0.72405  0.93098  Biso   1.000  O
  O38      1.0000 0.22252  0.22405  0.56902  Biso   1.000  O
  O39      1.0000 0.72252  0.27595  0.06902  Biso   1.000  O
  O40      1.0000 0.77748  0.77595  0.43098  Biso   1.000  O
  H73      1.0000 0.31500  0.73400  0.89660  Biso   1.000  H
  H74      1.0000 0.18500  0.23400  0.60340  Biso   1.000  H
  H75      1.0000 0.68500  0.26600  0.10340  Biso   1.000  H
  H76      1.0000 0.81500  0.76600  0.39660  Biso   1.000  H
  H77      1.0000 0.28700  0.77100  0.95160  Biso   1.000  H
  H78      1.0000 0.21300  0.27100  0.54840  Biso   1.000  H
  H79      1.0000 0.71300  0.22900  0.04840  Biso   1.000  H
  H80      1.0000 0.78700  0.72900  0.45160  Biso   1.000  H
