data_image0
_cell_length_a       9.428
_cell_length_b       14.95
_cell_length_c       18.141
_cell_angle_alpha    90
_cell_angle_beta     93.73
_cell_angle_gamma    90

_symmetry_space_group_name_H-M    "P 1"
_symmetry_int_tables_number       1

loop_
  _symmetry_equiv_pos_as_xyz
  'x, y, z'

loop_
  _atom_site_label
  _atom_site_occupancy
  _atom_site_fract_x
  _atom_site_fract_y
  _atom_site_fract_z
  _atom_site_thermal_displace_type
  _atom_site_B_iso_or_equiv
  _atom_site_type_symbol
  Er1      1.0000 0.19511  0.58335  0.50055  Biso   1.000  Er
  Er2      1.0000 0.30489  0.08335  0.99945  Biso   1.000  Er
  Er3      1.0000 0.80489  0.41665  0.49945  Biso   1.000  Er
  Er4      1.0000 0.69511  0.91665  0.00055  Biso   1.000  Er
  Cu1      1.0000 0.50000  0.00000  0.50000  Biso   1.000  Cu
  Cu2      1.0000 0.00000  0.50000  0.00000  Biso   1.000  Cu
  O1       1.0000 0.22760  0.43094  0.50380  Biso   1.000  O
  O2       1.0000 0.27240  0.93094  0.99620  Biso   1.000  O
  O3       1.0000 0.77240  0.56906  0.49620  Biso   1.000  O
  O4       1.0000 0.72760  0.06906  0.00380  Biso   1.000  O
  O5       1.0000 0.02650  0.35460  0.51020  Biso   1.000  O
  O6       1.0000 0.47350  0.85460  0.98980  Biso   1.000  O
  O7       1.0000 0.97350  0.64540  0.48980  Biso   1.000  O
  O8       1.0000 0.52650  0.14540  0.01020  Biso   1.000  O
  O9       1.0000 0.35650  0.94635  0.42834  Biso   1.000  O
  O10      1.0000 0.14350  0.44635  0.07166  Biso   1.000  O
  O11      1.0000 0.64350  0.05365  0.57166  Biso   1.000  O
  O12      1.0000 0.85650  0.55365  0.92834  Biso   1.000  O
  O13      1.0000 0.18400  0.87720  0.48647  Biso   1.000  O
  O14      1.0000 0.31600  0.37720  0.01353  Biso   1.000  O
  O15      1.0000 0.81600  0.12280  0.51353  Biso   1.000  O
  O16      1.0000 0.68400  0.62280  0.98647  Biso   1.000  O
  O17      1.0000 0.39460  0.56735  0.41807  Biso   1.000  O
  O18      1.0000 0.10540  0.06735  0.08193  Biso   1.000  O
  O19      1.0000 0.60540  0.43265  0.58193  Biso   1.000  O
  O20      1.0000 0.89460  0.93265  0.91807  Biso   1.000  O
  O21      1.0000 0.27090  0.69106  0.41251  Biso   1.000  O
  O22      1.0000 0.22910  0.19106  0.08749  Biso   1.000  O
  O23      1.0000 0.72910  0.30894  0.58749  Biso   1.000  O
  O24      1.0000 0.77090  0.80894  0.91251  Biso   1.000  O
  O25      1.0000 0.10570  0.54780  0.61038  Biso   1.000  O
  O26      1.0000 0.39430  0.04780  0.88962  Biso   1.000  O
  O27      1.0000 0.89430  0.45220  0.38962  Biso   1.000  O
  O28      1.0000 0.60570  0.95220  0.11038  Biso   1.000  O
  O29      1.0000 0.90850  0.46620  0.60972  Biso   1.000  O
  O30      1.0000 0.59150  0.96620  0.89028  Biso   1.000  O
  O31      1.0000 0.09150  0.53380  0.39028  Biso   1.000  O
  O32      1.0000 0.40850  0.03380  0.10972  Biso   1.000  O
  O33      1.0000 0.22190  0.72030  0.56805  Biso   1.000  O
  O34      1.0000 0.27810  0.22030  0.93195  Biso   1.000  O
  O35      1.0000 0.77810  0.27970  0.43195  Biso   1.000  O
  O36      1.0000 0.72190  0.77970  0.06805  Biso   1.000  O
  O37      1.0000 0.40480  0.57050  0.57588  Biso   1.000  O
  O38      1.0000 0.09520  0.07050  0.92412  Biso   1.000  O
  O39      1.0000 0.59520  0.42950  0.42412  Biso   1.000  O
  O40      1.0000 0.90480  0.92950  0.07588  Biso   1.000  O
  C1       1.0000 0.15760  0.89500  0.35640  Biso   1.000  C
  C2       1.0000 0.34240  0.39500  0.14360  Biso   1.000  C
  C3       1.0000 0.84240  0.10500  0.64360  Biso   1.000  C
  C4       1.0000 0.65760  0.60500  0.85640  Biso   1.000  C
  N1       1.0000 0.38600  0.11330  0.49736  Biso   1.000  N
  N2       1.0000 0.11400  0.61330  0.00264  Biso   1.000  N
  N3       1.0000 0.61400  0.88670  0.50264  Biso   1.000  N
  N4       1.0000 0.88600  0.38670  0.99736  Biso   1.000  N
  N5       1.0000 0.01370  0.87530  0.21750  Biso   1.000  N
  N6       1.0000 0.48630  0.37530  0.28250  Biso   1.000  N
  N7       1.0000 0.98630  0.12470  0.78250  Biso   1.000  N
  N8       1.0000 0.51370  0.62470  0.71750  Biso   1.000  N
  N9       1.0000 0.57390  0.72920  0.19680  Biso   1.000  N
  N10      1.0000 0.92610  0.22920  0.30320  Biso   1.000  N
  N11      1.0000 0.42610  0.27080  0.80320  Biso   1.000  N
  N12      1.0000 0.07390  0.77080  0.69680  Biso   1.000  N
  N13      1.0000 0.09250  0.44980  0.87220  Biso   1.000  N
  N14      1.0000 0.40750  0.94980  0.62780  Biso   1.000  N
  N15      1.0000 0.90750  0.55020  0.12780  Biso   1.000  N
  N16      1.0000 0.59250  0.05020  0.37220  Biso   1.000  N
  C5       1.0000 0.45290  0.19300  0.49850  Biso   1.000  C
  C6       1.0000 0.04710  0.69300  0.00150  Biso   1.000  C
  C7       1.0000 0.54710  0.80700  0.50150  Biso   1.000  C
  C8       1.0000 0.95290  0.30700  0.99850  Biso   1.000  C
  H1       1.0000 0.55170  0.19350  0.49940  Biso   1.000  H
  H2       1.0000 0.94830  0.69350  0.00060  Biso   1.000  H
  H3       1.0000 0.44830  0.80650  0.50060  Biso   1.000  H
  H4       1.0000 0.05170  0.30650  0.99940  Biso   1.000  H
  C9       1.0000 0.38330  0.27280  0.49840  Biso   1.000  C
  C10      1.0000 0.11670  0.77280  0.00160  Biso   1.000  C
  C11      1.0000 0.61670  0.72720  0.50160  Biso   1.000  C
  C12      1.0000 0.88330  0.22720  0.99840  Biso   1.000  C
  H5       1.0000 0.43410  0.32620  0.49860  Biso   1.000  H
  H6       1.0000 0.06590  0.82620  0.00140  Biso   1.000  H
  H7       1.0000 0.56590  0.67380  0.50140  Biso   1.000  H
  H8       1.0000 0.93410  0.17380  0.99860  Biso   1.000  H
  C13      1.0000 0.23580  0.27400  0.49817  Biso   1.000  C
  C14      1.0000 0.26420  0.77400  0.00183  Biso   1.000  C
  C15      1.0000 0.76420  0.72600  0.50183  Biso   1.000  C
  C16      1.0000 0.73580  0.22600  0.99817  Biso   1.000  C
  C17      1.0000 0.16500  0.19300  0.49470  Biso   1.000  C
  C18      1.0000 0.33500  0.69300  0.00530  Biso   1.000  C
  C19      1.0000 0.83500  0.80700  0.50530  Biso   1.000  C
  C20      1.0000 0.66500  0.30700  0.99470  Biso   1.000  C
  H9       1.0000 0.06630  0.19120  0.49280  Biso   1.000  H
  H10      1.0000 0.43370  0.69120  0.00720  Biso   1.000  H
  H11      1.0000 0.93370  0.80880  0.50720  Biso   1.000  H
  H12      1.0000 0.56630  0.30880  0.99280  Biso   1.000  H
  C21      1.0000 0.24270  0.11430  0.49410  Biso   1.000  C
  C22      1.0000 0.25730  0.61430  0.00590  Biso   1.000  C
  C23      1.0000 0.75730  0.88570  0.50590  Biso   1.000  C
  C24      1.0000 0.74270  0.38570  0.99410  Biso   1.000  C
  H13      1.0000 0.19420  0.06010  0.49130  Biso   1.000  H
  H14      1.0000 0.30580  0.56010  0.00870  Biso   1.000  H
  H15      1.0000 0.80580  0.93990  0.50870  Biso   1.000  H
  H16      1.0000 0.69420  0.43990  0.99130  Biso   1.000  H
  C25      1.0000 0.15650  0.36060  0.50370  Biso   1.000  C
  C26      1.0000 0.34350  0.86060  0.99630  Biso   1.000  C
  C27      1.0000 0.84350  0.63940  0.49630  Biso   1.000  C
  C28      1.0000 0.65650  0.13940  0.00370  Biso   1.000  C
  C29      1.0000 0.12630  0.92830  0.22780  Biso   1.000  C
  C30      1.0000 0.37370  0.42830  0.27220  Biso   1.000  C
  C31      1.0000 0.87370  0.07170  0.77220  Biso   1.000  C
  C32      1.0000 0.62630  0.57170  0.72780  Biso   1.000  C
  H17      1.0000 0.15750  0.95860  0.18710  Biso   1.000  H
  H18      1.0000 0.34250  0.45860  0.31290  Biso   1.000  H
  H19      1.0000 0.84250  0.04140  0.81290  Biso   1.000  H
  H20      1.0000 0.65750  0.54140  0.68710  Biso   1.000  H
  C33      1.0000 0.19970  0.94100  0.29530  Biso   1.000  C
  C34      1.0000 0.30030  0.44100  0.20470  Biso   1.000  C
  C35      1.0000 0.80030  0.05900  0.70470  Biso   1.000  C
  C36      1.0000 0.69970  0.55900  0.79530  Biso   1.000  C
  H21      1.0000 0.27660  0.98010  0.29970  Biso   1.000  H
  H22      1.0000 0.22340  0.48010  0.20030  Biso   1.000  H
  H23      1.0000 0.72340  0.01990  0.70030  Biso   1.000  H
  H24      1.0000 0.77660  0.51990  0.79970  Biso   1.000  H
  C37      1.0000 0.04230  0.83850  0.34610  Biso   1.000  C
  C38      1.0000 0.45770  0.33850  0.15390  Biso   1.000  C
  C39      1.0000 0.95770  0.16150  0.65390  Biso   1.000  C
  C40      1.0000 0.54230  0.66150  0.84610  Biso   1.000  C
  H25      1.0000 0.01070  0.80540  0.38530  Biso   1.000  H
  H26      1.0000 0.48930  0.30540  0.11470  Biso   1.000  H
  H27      1.0000 0.98930  0.19460  0.61470  Biso   1.000  H
  H28      1.0000 0.51070  0.69460  0.88530  Biso   1.000  H
  C41      1.0000 0.97440  0.83200  0.27610  Biso   1.000  C
  C42      1.0000 0.52560  0.33200  0.22390  Biso   1.000  C
  C43      1.0000 0.02560  0.16800  0.72390  Biso   1.000  C
  C44      1.0000 0.47440  0.66800  0.77610  Biso   1.000  C
  H29      1.0000 0.89580  0.79450  0.27010  Biso   1.000  H
  H30      1.0000 0.60420  0.29450  0.22990  Biso   1.000  H
  H31      1.0000 0.10420  0.20550  0.72990  Biso   1.000  H
  H32      1.0000 0.39580  0.70550  0.77010  Biso   1.000  H
  C45      1.0000 0.23830  0.90580  0.43080  Biso   1.000  C
  C46      1.0000 0.26170  0.40580  0.06920  Biso   1.000  C
  C47      1.0000 0.76170  0.09420  0.56920  Biso   1.000  C
  C48      1.0000 0.73830  0.59420  0.93080  Biso   1.000  C
  C49      1.0000 0.63100  0.66900  0.24340  Biso   1.000  C
  C50      1.0000 0.86900  0.16900  0.25660  Biso   1.000  C
  C51      1.0000 0.36900  0.33100  0.75660  Biso   1.000  C
  C52      1.0000 0.13100  0.83100  0.74340  Biso   1.000  C
  H33      1.0000 0.71980  0.64630  0.23370  Biso   1.000  H
  H34      1.0000 0.78020  0.14630  0.26630  Biso   1.000  H
  H35      1.0000 0.28020  0.35370  0.76630  Biso   1.000  H
  H36      1.0000 0.21980  0.85370  0.73370  Biso   1.000  H
  C53      1.0000 0.56920  0.63720  0.30520  Biso   1.000  C
  C54      1.0000 0.93080  0.13720  0.19480  Biso   1.000  C
  C55      1.0000 0.43080  0.36280  0.69480  Biso   1.000  C
  C56      1.0000 0.06920  0.86280  0.80520  Biso   1.000  C
  H37      1.0000 0.61460  0.59420  0.33540  Biso   1.000  H
  H38      1.0000 0.88540  0.09420  0.16460  Biso   1.000  H
  H39      1.0000 0.38540  0.40580  0.66460  Biso   1.000  H
  H40      1.0000 0.11460  0.90580  0.83540  Biso   1.000  H
  C57      1.0000 0.43790  0.67090  0.32110  Biso   1.000  C
  C58      1.0000 0.06210  0.17090  0.17890  Biso   1.000  C
  C59      1.0000 0.56210  0.32910  0.67890  Biso   1.000  C
  C60      1.0000 0.93790  0.82910  0.82110  Biso   1.000  C
  C61      1.0000 0.37720  0.73400  0.27390  Biso   1.000  C
  C62      1.0000 0.12280  0.23400  0.22610  Biso   1.000  C
  C63      1.0000 0.62280  0.26600  0.72610  Biso   1.000  C
  C64      1.0000 0.87720  0.76600  0.77390  Biso   1.000  C
  H41      1.0000 0.28960  0.75890  0.28310  Biso   1.000  H
  H42      1.0000 0.21040  0.25890  0.21690  Biso   1.000  H
  H43      1.0000 0.71040  0.24110  0.71690  Biso   1.000  H
  H44      1.0000 0.78960  0.74110  0.78310  Biso   1.000  H
  C65      1.0000 0.44690  0.76030  0.21270  Biso   1.000  C
  C66      1.0000 0.05310  0.26030  0.28730  Biso   1.000  C
  C67      1.0000 0.55310  0.23970  0.78730  Biso   1.000  C
  C68      1.0000 0.94690  0.73970  0.71270  Biso   1.000  C
  H45      1.0000 0.40260  0.80210  0.18080  Biso   1.000  H
  H46      1.0000 0.09740  0.30210  0.31920  Biso   1.000  H
  H47      1.0000 0.59740  0.19790  0.81920  Biso   1.000  H
  H48      1.0000 0.90260  0.69790  0.68080  Biso   1.000  H
  C69      1.0000 0.36440  0.64090  0.38820  Biso   1.000  C
  C70      1.0000 0.13560  0.14090  0.11180  Biso   1.000  C
  C71      1.0000 0.63560  0.35910  0.61180  Biso   1.000  C
  C72      1.0000 0.86440  0.85910  0.88820  Biso   1.000  C
  C73      1.0000 0.15860  0.51330  0.83850  Biso   1.000  C
  C74      1.0000 0.34140  0.01330  0.66150  Biso   1.000  C
  C75      1.0000 0.84140  0.48670  0.16150  Biso   1.000  C
  C76      1.0000 0.65860  0.98670  0.33850  Biso   1.000  C
  H49      1.0000 0.22210  0.54870  0.86690  Biso   1.000  H
  H50      1.0000 0.27790  0.04870  0.63310  Biso   1.000  H
  H51      1.0000 0.77790  0.45130  0.13310  Biso   1.000  H
  H52      1.0000 0.72210  0.95130  0.36690  Biso   1.000  H
  C77      1.0000 0.14080  0.53150  0.76420  Biso   1.000  C
  C78      1.0000 0.35920  0.03150  0.73580  Biso   1.000  C
  C79      1.0000 0.85920  0.46850  0.23580  Biso   1.000  C
  C80      1.0000 0.64080  0.96850  0.26420  Biso   1.000  C
  H53      1.0000 0.19060  0.57790  0.74340  Biso   1.000  H
  H54      1.0000 0.30940  0.07790  0.75660  Biso   1.000  H
  H55      1.0000 0.80940  0.42210  0.25660  Biso   1.000  H
  H56      1.0000 0.69060  0.92210  0.24340  Biso   1.000  H
  C81      1.0000 0.04750  0.47930  0.72110  Biso   1.000  C
  C82      1.0000 0.45250  0.97930  0.77890  Biso   1.000  C
  C83      1.0000 0.95250  0.52070  0.27890  Biso   1.000  C
  C84      1.0000 0.54750  0.02070  0.22110  Biso   1.000  C
  C85      1.0000 0.98110  0.40990  0.75450  Biso   1.000  C
  C86      1.0000 0.51890  0.90990  0.74550  Biso   1.000  C
  C87      1.0000 0.01890  0.59010  0.24550  Biso   1.000  C
  C88      1.0000 0.48110  0.09010  0.25450  Biso   1.000  C
  H57      1.0000 0.92010  0.37190  0.72710  Biso   1.000  H
  H58      1.0000 0.57990  0.87190  0.77290  Biso   1.000  H
  H59      1.0000 0.07990  0.62810  0.27290  Biso   1.000  H
  H60      1.0000 0.42010  0.12810  0.22710  Biso   1.000  H
  C89      1.0000 0.00670  0.39770  0.82950  Biso   1.000  C
  C90      1.0000 0.49330  0.89770  0.67050  Biso   1.000  C
  C91      1.0000 0.99330  0.60230  0.17050  Biso   1.000  C
  C92      1.0000 0.50670  0.10230  0.32950  Biso   1.000  C
  H61      1.0000 0.96160  0.35030  0.85160  Biso   1.000  H
  H62      1.0000 0.53840  0.85030  0.64840  Biso   1.000  H
  H63      1.0000 0.03840  0.64970  0.14840  Biso   1.000  H
  H64      1.0000 0.46160  0.14970  0.35160  Biso   1.000  H
  C93      1.0000 0.01900  0.49890  0.64020  Biso   1.000  C
  C94      1.0000 0.48100  0.99890  0.85980  Biso   1.000  C
  C95      1.0000 0.98100  0.50110  0.35980  Biso   1.000  C
  C96      1.0000 0.51900  0.00110  0.14020  Biso   1.000  C
  H65      1.0000 0.21200  0.76000  0.53700  Biso   1.000  H
  H66      1.0000 0.28800  0.26000  0.96300  Biso   1.000  H
  H67      1.0000 0.78800  0.24000  0.46300  Biso   1.000  H
  H68      1.0000 0.71200  0.74000  0.03700  Biso   1.000  H
  H69      1.0000 0.17100  0.73200  0.60150  Biso   1.000  H
  H70      1.0000 0.32900  0.23200  0.89850  Biso   1.000  H
  H71      1.0000 0.82900  0.26800  0.39850  Biso   1.000  H
  H72      1.0000 0.67100  0.76800  0.10150  Biso   1.000  H
  H73      1.0000 0.46200  0.52950  0.57500  Biso   1.000  H
  H74      1.0000 0.03800  0.02950  0.92500  Biso   1.000  H
  H75      1.0000 0.53800  0.47050  0.42500  Biso   1.000  H
  H76      1.0000 0.96200  0.97050  0.07500  Biso   1.000  H
  H77      1.0000 0.43000  0.59600  0.61410  Biso   1.000  H
  H78      1.0000 0.07000  0.09600  0.88590  Biso   1.000  H
  H79      1.0000 0.57000  0.40400  0.38590  Biso   1.000  H
  H80      1.0000 0.93000  0.90400  0.11410  Biso   1.000  H
