data_image0
_cell_length_a       16.9098
_cell_length_b       11.4225
_cell_length_c       10.4825
_cell_angle_alpha    90
_cell_angle_beta     95.3601
_cell_angle_gamma    90

_symmetry_space_group_name_H-M    "P 1"
_symmetry_int_tables_number       1

loop_
  _symmetry_equiv_pos_as_xyz
  'x, y, z'

loop_
  _atom_site_label
  _atom_site_occupancy
  _atom_site_fract_x
  _atom_site_fract_y
  _atom_site_fract_z
  _atom_site_thermal_displace_type
  _atom_site_B_iso_or_equiv
  _atom_site_type_symbol
  Cu1      1.0000 0.50000  0.21709  0.25000  Biso   1.000  Cu
  Cu2      1.0000 0.00000  0.71709  0.25000  Biso   1.000  Cu
  Cu3      1.0000 0.50000  0.78291  0.75000  Biso   1.000  Cu
  Cu4      1.0000 0.00000  0.28291  0.75000  Biso   1.000  Cu
  N1       1.0000 0.49679  0.07801  0.10169  Biso   1.000  N
  N2       1.0000 0.50321  0.07801  0.39831  Biso   1.000  N
  N3       1.0000 0.99679  0.57801  0.10169  Biso   1.000  N
  N4       1.0000 0.00321  0.57801  0.39831  Biso   1.000  N
  N5       1.0000 0.50321  0.92199  0.89831  Biso   1.000  N
  N6       1.0000 0.49679  0.92199  0.60169  Biso   1.000  N
  N7       1.0000 0.00321  0.42199  0.89831  Biso   1.000  N
  N8       1.0000 0.99679  0.42199  0.60169  Biso   1.000  N
  O1       1.0000 0.38405  0.21552  0.24988  Biso   1.000  O
  O2       1.0000 0.61595  0.21552  0.25012  Biso   1.000  O
  O3       1.0000 0.88405  0.71552  0.24988  Biso   1.000  O
  O4       1.0000 0.11595  0.71552  0.25012  Biso   1.000  O
  O5       1.0000 0.61595  0.78448  0.75012  Biso   1.000  O
  O6       1.0000 0.38405  0.78448  0.74988  Biso   1.000  O
  O7       1.0000 0.11595  0.28448  0.75012  Biso   1.000  O
  O8       1.0000 0.88405  0.28448  0.74988  Biso   1.000  O
  O9       1.0000 0.35080  0.38139  0.14439  Biso   1.000  O
  O10      1.0000 0.64920  0.38139  0.35561  Biso   1.000  O
  O11      1.0000 0.85080  0.88139  0.14439  Biso   1.000  O
  O12      1.0000 0.14920  0.88139  0.35561  Biso   1.000  O
  O13      1.0000 0.64920  0.61861  0.85561  Biso   1.000  O
  O14      1.0000 0.35080  0.61861  0.64439  Biso   1.000  O
  O15      1.0000 0.14920  0.11861  0.85561  Biso   1.000  O
  O16      1.0000 0.85080  0.11861  0.64439  Biso   1.000  O
  O17      1.0000 0.35201  0.43457  0.42271  Biso   1.000  O
  O18      1.0000 0.64799  0.43457  0.07729  Biso   1.000  O
  O19      1.0000 0.85201  0.93457  0.42271  Biso   1.000  O
  O20      1.0000 0.14799  0.93457  0.07729  Biso   1.000  O
  O21      1.0000 0.64799  0.56543  0.57729  Biso   1.000  O
  O22      1.0000 0.35201  0.56543  0.92271  Biso   1.000  O
  O23      1.0000 0.14799  0.06543  0.57729  Biso   1.000  O
  O24      1.0000 0.85201  0.06543  0.92271  Biso   1.000  O
  O25      1.0000 0.24861  0.47370  0.53432  Biso   1.000  O
  O26      1.0000 0.75139  0.47370  0.96568  Biso   1.000  O
  O27      1.0000 0.74861  0.97370  0.53432  Biso   1.000  O
  O28      1.0000 0.25139  0.97370  0.96568  Biso   1.000  O
  O29      1.0000 0.75139  0.52630  0.46568  Biso   1.000  O
  O30      1.0000 0.24861  0.52630  0.03432  Biso   1.000  O
  O31      1.0000 0.25139  0.02630  0.46568  Biso   1.000  O
  O32      1.0000 0.74861  0.02630  0.03432  Biso   1.000  O
  H1       1.0000 0.28170  0.51860  0.57410  Biso   1.000  H
  H2       1.0000 0.71830  0.51860  0.92590  Biso   1.000  H
  H3       1.0000 0.78170  0.01860  0.57410  Biso   1.000  H
  H4       1.0000 0.21830  0.01860  0.92590  Biso   1.000  H
  H5       1.0000 0.71830  0.48140  0.42590  Biso   1.000  H
  H6       1.0000 0.28170  0.48140  0.07410  Biso   1.000  H
  H7       1.0000 0.21830  0.98140  0.42590  Biso   1.000  H
  H8       1.0000 0.78170  0.98140  0.07410  Biso   1.000  H
  O33      1.0000 0.49841  0.34107  0.09258  Biso   1.000  O
  O34      1.0000 0.50159  0.34107  0.40742  Biso   1.000  O
  O35      1.0000 0.99841  0.84107  0.09258  Biso   1.000  O
  O36      1.0000 0.00159  0.84107  0.40742  Biso   1.000  O
  O37      1.0000 0.50159  0.65893  0.90742  Biso   1.000  O
  O38      1.0000 0.49841  0.65893  0.59258  Biso   1.000  O
  O39      1.0000 0.00159  0.15893  0.90742  Biso   1.000  O
  O40      1.0000 0.99841  0.15893  0.59258  Biso   1.000  O
  H9       1.0000 0.45880  0.38540  0.09700  Biso   1.000  H
  H10      1.0000 0.54120  0.38540  0.40300  Biso   1.000  H
  H11      1.0000 0.95880  0.88540  0.09700  Biso   1.000  H
  H12      1.0000 0.04120  0.88540  0.40300  Biso   1.000  H
  H13      1.0000 0.54120  0.61460  0.90300  Biso   1.000  H
  H14      1.0000 0.45880  0.61460  0.59700  Biso   1.000  H
  H15      1.0000 0.04120  0.11460  0.90300  Biso   1.000  H
  H16      1.0000 0.95880  0.11460  0.59700  Biso   1.000  H
  H17      1.0000 0.53800  0.38490  0.08800  Biso   1.000  H
  H18      1.0000 0.46200  0.38490  0.41200  Biso   1.000  H
  H19      1.0000 0.03800  0.88490  0.08800  Biso   1.000  H
  H20      1.0000 0.96200  0.88490  0.41200  Biso   1.000  H
  H21      1.0000 0.46200  0.61510  0.91200  Biso   1.000  H
  H22      1.0000 0.53800  0.61510  0.58800  Biso   1.000  H
  H23      1.0000 0.96200  0.11510  0.91200  Biso   1.000  H
  H24      1.0000 0.03800  0.11510  0.58800  Biso   1.000  H
  C1       1.0000 0.33609  0.29712  0.21467  Biso   1.000  C
  C2       1.0000 0.66391  0.29712  0.28533  Biso   1.000  C
  C3       1.0000 0.83609  0.79712  0.21467  Biso   1.000  C
  C4       1.0000 0.16391  0.79712  0.28533  Biso   1.000  C
  C5       1.0000 0.66391  0.70288  0.78533  Biso   1.000  C
  C6       1.0000 0.33609  0.70288  0.71467  Biso   1.000  C
  C7       1.0000 0.16391  0.20288  0.78533  Biso   1.000  C
  C8       1.0000 0.83609  0.20288  0.71467  Biso   1.000  C
  C9       1.0000 0.25381  0.28291  0.25645  Biso   1.000  C
  C10      1.0000 0.74619  0.28291  0.24355  Biso   1.000  C
  C11      1.0000 0.75381  0.78291  0.25645  Biso   1.000  C
  C12      1.0000 0.24619  0.78291  0.24355  Biso   1.000  C
  C13      1.0000 0.74619  0.71709  0.74355  Biso   1.000  C
  C14      1.0000 0.25381  0.71709  0.75645  Biso   1.000  C
  C15      1.0000 0.24619  0.21709  0.74355  Biso   1.000  C
  C16      1.0000 0.75381  0.21709  0.75645  Biso   1.000  C
  C17      1.0000 0.20233  0.20704  0.18520  Biso   1.000  C
  C18      1.0000 0.79767  0.20704  0.31480  Biso   1.000  C
  C19      1.0000 0.70233  0.70704  0.18520  Biso   1.000  C
  C20      1.0000 0.29767  0.70704  0.31480  Biso   1.000  C
  C21      1.0000 0.79767  0.79296  0.81480  Biso   1.000  C
  C22      1.0000 0.20233  0.79296  0.68520  Biso   1.000  C
  C23      1.0000 0.29767  0.29296  0.81480  Biso   1.000  C
  C24      1.0000 0.70233  0.29296  0.68520  Biso   1.000  C
  H25      1.0000 0.21910  0.16970  0.11130  Biso   1.000  H
  H26      1.0000 0.78090  0.16970  0.38870  Biso   1.000  H
  H27      1.0000 0.71910  0.66970  0.11130  Biso   1.000  H
  H28      1.0000 0.28090  0.66970  0.38870  Biso   1.000  H
  H29      1.0000 0.78090  0.83030  0.88870  Biso   1.000  H
  H30      1.0000 0.21910  0.83030  0.61130  Biso   1.000  H
  H31      1.0000 0.28090  0.33030  0.88870  Biso   1.000  H
  H32      1.0000 0.71910  0.33030  0.61130  Biso   1.000  H
  C25      1.0000 0.12658  0.18558  0.22149  Biso   1.000  C
  C26      1.0000 0.87342  0.18558  0.27851  Biso   1.000  C
  C27      1.0000 0.62658  0.68558  0.22149  Biso   1.000  C
  C28      1.0000 0.37342  0.68558  0.27851  Biso   1.000  C
  C29      1.0000 0.87342  0.81442  0.77851  Biso   1.000  C
  C30      1.0000 0.12658  0.81442  0.72149  Biso   1.000  C
  C31      1.0000 0.37342  0.31442  0.77851  Biso   1.000  C
  C32      1.0000 0.62658  0.31442  0.72149  Biso   1.000  C
  H33      1.0000 0.09180  0.13410  0.17220  Biso   1.000  H
  H34      1.0000 0.90820  0.13410  0.32780  Biso   1.000  H
  H35      1.0000 0.59180  0.63410  0.17220  Biso   1.000  H
  H36      1.0000 0.40820  0.63410  0.32780  Biso   1.000  H
  H37      1.0000 0.90820  0.86590  0.82780  Biso   1.000  H
  H38      1.0000 0.09180  0.86590  0.67220  Biso   1.000  H
  H39      1.0000 0.40820  0.36590  0.82780  Biso   1.000  H
  H40      1.0000 0.59180  0.36590  0.67220  Biso   1.000  H
  C33      1.0000 0.10179  0.23954  0.32999  Biso   1.000  C
  C34      1.0000 0.89821  0.23954  0.17001  Biso   1.000  C
  C35      1.0000 0.60179  0.73954  0.32999  Biso   1.000  C
  C36      1.0000 0.39821  0.73954  0.17001  Biso   1.000  C
  C37      1.0000 0.89821  0.76046  0.67001  Biso   1.000  C
  C38      1.0000 0.10179  0.76046  0.82999  Biso   1.000  C
  C39      1.0000 0.39821  0.26046  0.67001  Biso   1.000  C
  C40      1.0000 0.60179  0.26046  0.82999  Biso   1.000  C
  H41      1.0000 0.05020  0.22450  0.35520  Biso   1.000  H
  H42      1.0000 0.94980  0.22450  0.14480  Biso   1.000  H
  H43      1.0000 0.55020  0.72450  0.35520  Biso   1.000  H
  H44      1.0000 0.44980  0.72450  0.14480  Biso   1.000  H
  H45      1.0000 0.94980  0.77550  0.64480  Biso   1.000  H
  H46      1.0000 0.05020  0.77550  0.85520  Biso   1.000  H
  H47      1.0000 0.44980  0.27550  0.64480  Biso   1.000  H
  H48      1.0000 0.55020  0.27550  0.85520  Biso   1.000  H
  C41      1.0000 0.15247  0.31525  0.40110  Biso   1.000  C
  C42      1.0000 0.84753  0.31525  0.09890  Biso   1.000  C
  C43      1.0000 0.65247  0.81525  0.40110  Biso   1.000  C
  C44      1.0000 0.34753  0.81525  0.09890  Biso   1.000  C
  C45      1.0000 0.84753  0.68475  0.59890  Biso   1.000  C
  C46      1.0000 0.15247  0.68475  0.90110  Biso   1.000  C
  C47      1.0000 0.34753  0.18475  0.59890  Biso   1.000  C
  C48      1.0000 0.65247  0.18475  0.90110  Biso   1.000  C
  H49      1.0000 0.13550  0.35160  0.47540  Biso   1.000  H
  H50      1.0000 0.86450  0.35160  0.02460  Biso   1.000  H
  H51      1.0000 0.63550  0.85160  0.47540  Biso   1.000  H
  H52      1.0000 0.36450  0.85160  0.02460  Biso   1.000  H
  H53      1.0000 0.86450  0.64840  0.52460  Biso   1.000  H
  H54      1.0000 0.13550  0.64840  0.97540  Biso   1.000  H
  H55      1.0000 0.36450  0.14840  0.52460  Biso   1.000  H
  H56      1.0000 0.63550  0.14840  0.97540  Biso   1.000  H
  C49      1.0000 0.22849  0.33882  0.36468  Biso   1.000  C
  C50      1.0000 0.77151  0.33882  0.13532  Biso   1.000  C
  C51      1.0000 0.72849  0.83882  0.36468  Biso   1.000  C
  C52      1.0000 0.27151  0.83882  0.13532  Biso   1.000  C
  C53      1.0000 0.77151  0.66118  0.63532  Biso   1.000  C
  C54      1.0000 0.22849  0.66118  0.86468  Biso   1.000  C
  C55      1.0000 0.27151  0.16118  0.63532  Biso   1.000  C
  C56      1.0000 0.72849  0.16118  0.86468  Biso   1.000  C
  C57      1.0000 0.28270  0.41926  0.44244  Biso   1.000  C
  C58      1.0000 0.71730  0.41926  0.05756  Biso   1.000  C
  C59      1.0000 0.78270  0.91926  0.44244  Biso   1.000  C
  C60      1.0000 0.21730  0.91926  0.05756  Biso   1.000  C
  C61      1.0000 0.71730  0.58074  0.55756  Biso   1.000  C
  C62      1.0000 0.28270  0.58074  0.94244  Biso   1.000  C
  C63      1.0000 0.21730  0.08074  0.55756  Biso   1.000  C
  C64      1.0000 0.78270  0.08074  0.94244  Biso   1.000  C
  C65      1.0000 0.44501  0.08434  0.99707  Biso   1.000  C
  C66      1.0000 0.55499  0.08434  0.50293  Biso   1.000  C
  C67      1.0000 0.94501  0.58434  0.99707  Biso   1.000  C
  C68      1.0000 0.05499  0.58434  0.50293  Biso   1.000  C
  C69      1.0000 0.55499  0.91566  0.00293  Biso   1.000  C
  C70      1.0000 0.44501  0.91566  0.49707  Biso   1.000  C
  C71      1.0000 0.05499  0.41566  0.00293  Biso   1.000  C
  C72      1.0000 0.94501  0.41566  0.49707  Biso   1.000  C
  H57      1.0000 0.40520  0.14320  0.99200  Biso   1.000  H
  H58      1.0000 0.59480  0.14320  0.50800  Biso   1.000  H
  H59      1.0000 0.90520  0.64320  0.99200  Biso   1.000  H
  H60      1.0000 0.09480  0.64320  0.50800  Biso   1.000  H
  H61      1.0000 0.59480  0.85680  0.00800  Biso   1.000  H
  H62      1.0000 0.40520  0.85680  0.49200  Biso   1.000  H
  H63      1.0000 0.09480  0.35680  0.00800  Biso   1.000  H
  H64      1.0000 0.90520  0.35680  0.49200  Biso   1.000  H
  C73      1.0000 0.55163  0.99330  0.10398  Biso   1.000  C
  C74      1.0000 0.44837  0.99330  0.39602  Biso   1.000  C
  C75      1.0000 0.05163  0.49330  0.10398  Biso   1.000  C
  C76      1.0000 0.94837  0.49330  0.39602  Biso   1.000  C
  C77      1.0000 0.44837  0.00670  0.89602  Biso   1.000  C
  C78      1.0000 0.55163  0.00670  0.60398  Biso   1.000  C
  C79      1.0000 0.94837  0.50670  0.89602  Biso   1.000  C
  C80      1.0000 0.05163  0.50670  0.60398  Biso   1.000  C
  H65      1.0000 0.58920  0.98620  0.17680  Biso   1.000  H
  H66      1.0000 0.41080  0.98620  0.32320  Biso   1.000  H
  H67      1.0000 0.08920  0.48620  0.17680  Biso   1.000  H
  H68      1.0000 0.91080  0.48620  0.32320  Biso   1.000  H
  H69      1.0000 0.41080  0.01380  0.82320  Biso   1.000  H
  H70      1.0000 0.58920  0.01380  0.67680  Biso   1.000  H
  H71      1.0000 0.91080  0.51380  0.82320  Biso   1.000  H
  H72      1.0000 0.08920  0.51380  0.67680  Biso   1.000  H
