data_image0
_cell_length_a       24.547
_cell_length_b       9.7033
_cell_length_c       7.2799
_cell_angle_alpha    90
_cell_angle_beta     104.354
_cell_angle_gamma    90

_symmetry_space_group_name_H-M    "P 1"
_symmetry_int_tables_number       1

loop_
  _symmetry_equiv_pos_as_xyz
  'x, y, z'

loop_
  _atom_site_label
  _atom_site_occupancy
  _atom_site_fract_x
  _atom_site_fract_y
  _atom_site_fract_z
  _atom_site_thermal_displace_type
  _atom_site_B_iso_or_equiv
  _atom_site_type_symbol
  Cu1      1.0000 0.75000  0.25000  0.50000  Biso   1.000  Cu
  Cu2      1.0000 0.25000  0.75000  0.50000  Biso   1.000  Cu
  Cu3      1.0000 0.25000  0.25000  0.00000  Biso   1.000  Cu
  Cu4      1.0000 0.75000  0.75000  0.00000  Biso   1.000  Cu
  S1       1.0000 0.83784  0.24411  0.15547  Biso   1.000  S
  S2       1.0000 0.33784  0.74411  0.15547  Biso   1.000  S
  S3       1.0000 0.16216  0.24411  0.34453  Biso   1.000  S
  S4       1.0000 0.66216  0.74411  0.34453  Biso   1.000  S
  S5       1.0000 0.16216  0.75589  0.84453  Biso   1.000  S
  S6       1.0000 0.66216  0.25589  0.84453  Biso   1.000  S
  S7       1.0000 0.83784  0.75589  0.65547  Biso   1.000  S
  S8       1.0000 0.33784  0.25589  0.65547  Biso   1.000  S
  S9       1.0000 0.95845  0.32240  0.74090  Biso   1.000  S
  S10      1.0000 0.45845  0.82240  0.74090  Biso   1.000  S
  S11      1.0000 0.04155  0.32240  0.75910  Biso   1.000  S
  S12      1.0000 0.54155  0.82240  0.75910  Biso   1.000  S
  S13      1.0000 0.04155  0.67760  0.25910  Biso   1.000  S
  S14      1.0000 0.54155  0.17760  0.25910  Biso   1.000  S
  S15      1.0000 0.95845  0.67760  0.24090  Biso   1.000  S
  S16      1.0000 0.45845  0.17760  0.24090  Biso   1.000  S
  O1       1.0000 0.80327  0.37500  0.66360  Biso   1.000  O
  O2       1.0000 0.30327  0.87500  0.66360  Biso   1.000  O
  O3       1.0000 0.19673  0.37500  0.83640  Biso   1.000  O
  O4       1.0000 0.69673  0.87500  0.83640  Biso   1.000  O
  O5       1.0000 0.19673  0.62500  0.33640  Biso   1.000  O
  O6       1.0000 0.69673  0.12500  0.33640  Biso   1.000  O
  O7       1.0000 0.80327  0.62500  0.16360  Biso   1.000  O
  O8       1.0000 0.30327  0.12500  0.16360  Biso   1.000  O
  H1       1.0000 0.80600  0.35200  0.78200  Biso   1.000  H
  H2       1.0000 0.30600  0.85200  0.78200  Biso   1.000  H
  H3       1.0000 0.19400  0.35200  0.71800  Biso   1.000  H
  H4       1.0000 0.69400  0.85200  0.71800  Biso   1.000  H
  H5       1.0000 0.19400  0.64800  0.21800  Biso   1.000  H
  H6       1.0000 0.69400  0.14800  0.21800  Biso   1.000  H
  H7       1.0000 0.80600  0.64800  0.28200  Biso   1.000  H
  H8       1.0000 0.30600  0.14800  0.28200  Biso   1.000  H
  H9       1.0000 0.80900  0.45800  0.62400  Biso   1.000  H
  H10      1.0000 0.30900  0.95800  0.62400  Biso   1.000  H
  H11      1.0000 0.19100  0.45800  0.87600  Biso   1.000  H
  H12      1.0000 0.69100  0.95800  0.87600  Biso   1.000  H
  H13      1.0000 0.19100  0.54200  0.37600  Biso   1.000  H
  H14      1.0000 0.69100  0.04200  0.37600  Biso   1.000  H
  H15      1.0000 0.80900  0.54200  0.12400  Biso   1.000  H
  H16      1.0000 0.30900  0.04200  0.12400  Biso   1.000  H
  O9       1.0000 0.71788  0.40630  0.33860  Biso   1.000  O
  O10      1.0000 0.21788  0.90630  0.33860  Biso   1.000  O
  O11      1.0000 0.28212  0.40630  0.16140  Biso   1.000  O
  O12      1.0000 0.78212  0.90630  0.16140  Biso   1.000  O
  O13      1.0000 0.28212  0.59370  0.66140  Biso   1.000  O
  O14      1.0000 0.78212  0.09370  0.66140  Biso   1.000  O
  O15      1.0000 0.71788  0.59370  0.83860  Biso   1.000  O
  O16      1.0000 0.21788  0.09370  0.83860  Biso   1.000  O
  H17      1.0000 0.69800  0.46400  0.38900  Biso   1.000  H
  H18      1.0000 0.19800  0.96400  0.38900  Biso   1.000  H
  H19      1.0000 0.30200  0.46400  0.11100  Biso   1.000  H
  H20      1.0000 0.80200  0.96400  0.11100  Biso   1.000  H
  H21      1.0000 0.30200  0.53600  0.61100  Biso   1.000  H
  H22      1.0000 0.80200  0.03600  0.61100  Biso   1.000  H
  H23      1.0000 0.69800  0.53600  0.88900  Biso   1.000  H
  H24      1.0000 0.19800  0.03600  0.88900  Biso   1.000  H
  H25      1.0000 0.70200  0.37900  0.22300  Biso   1.000  H
  H26      1.0000 0.20200  0.87900  0.22300  Biso   1.000  H
  H27      1.0000 0.29800  0.37900  0.27700  Biso   1.000  H
  H28      1.0000 0.79800  0.87900  0.27700  Biso   1.000  H
  H29      1.0000 0.29800  0.62100  0.77700  Biso   1.000  H
  H30      1.0000 0.79800  0.12100  0.77700  Biso   1.000  H
  H31      1.0000 0.70200  0.62100  0.72300  Biso   1.000  H
  H32      1.0000 0.20200  0.12100  0.72300  Biso   1.000  H
  O17      1.0000 0.81274  0.21240  0.30920  Biso   1.000  O
  O18      1.0000 0.31274  0.71240  0.30920  Biso   1.000  O
  O19      1.0000 0.18726  0.21240  0.19080  Biso   1.000  O
  O20      1.0000 0.68726  0.71240  0.19080  Biso   1.000  O
  O21      1.0000 0.18726  0.78760  0.69080  Biso   1.000  O
  O22      1.0000 0.68726  0.28760  0.69080  Biso   1.000  O
  O23      1.0000 0.81274  0.78760  0.80920  Biso   1.000  O
  O24      1.0000 0.31274  0.28760  0.80920  Biso   1.000  O
  O25      1.0000 0.81380  0.36320  0.04550  Biso   1.000  O
  O26      1.0000 0.31380  0.86320  0.04550  Biso   1.000  O
  O27      1.0000 0.18620  0.36320  0.45450  Biso   1.000  O
  O28      1.0000 0.68620  0.86320  0.45450  Biso   1.000  O
  O29      1.0000 0.18620  0.63680  0.95450  Biso   1.000  O
  O30      1.0000 0.68620  0.13680  0.95450  Biso   1.000  O
  O31      1.0000 0.81380  0.63680  0.54550  Biso   1.000  O
  O32      1.0000 0.31380  0.13680  0.54550  Biso   1.000  O
  O33      1.0000 0.83745  0.12470  0.03480  Biso   1.000  O
  O34      1.0000 0.33745  0.62470  0.03480  Biso   1.000  O
  O35      1.0000 0.16255  0.12470  0.46520  Biso   1.000  O
  O36      1.0000 0.66255  0.62470  0.46520  Biso   1.000  O
  O37      1.0000 0.16255  0.87530  0.96520  Biso   1.000  O
  O38      1.0000 0.66255  0.37530  0.96520  Biso   1.000  O
  O39      1.0000 0.83745  0.87530  0.53480  Biso   1.000  O
  O40      1.0000 0.33745  0.37530  0.53480  Biso   1.000  O
  C1       1.0000 0.90910  0.28540  0.26060  Biso   1.000  C
  C2       1.0000 0.40910  0.78540  0.26060  Biso   1.000  C
  C3       1.0000 0.09090  0.28540  0.23940  Biso   1.000  C
  C4       1.0000 0.59090  0.78540  0.23940  Biso   1.000  C
  C5       1.0000 0.09090  0.71460  0.73940  Biso   1.000  C
  C6       1.0000 0.59090  0.21460  0.73940  Biso   1.000  C
  C7       1.0000 0.90910  0.71460  0.76060  Biso   1.000  C
  C8       1.0000 0.40910  0.21460  0.76060  Biso   1.000  C
  H33      1.0000 0.92820  0.29950  0.16050  Biso   1.000  H
  H34      1.0000 0.42820  0.79950  0.16050  Biso   1.000  H
  H35      1.0000 0.07180  0.29950  0.33950  Biso   1.000  H
  H36      1.0000 0.57180  0.79950  0.33950  Biso   1.000  H
  H37      1.0000 0.07180  0.70050  0.83950  Biso   1.000  H
  H38      1.0000 0.57180  0.20050  0.83950  Biso   1.000  H
  H39      1.0000 0.92820  0.70050  0.66050  Biso   1.000  H
  H40      1.0000 0.42820  0.20050  0.66050  Biso   1.000  H
  H41      1.0000 0.91030  0.37180  0.32840  Biso   1.000  H
  H42      1.0000 0.41030  0.87180  0.32840  Biso   1.000  H
  H43      1.0000 0.08970  0.37180  0.17160  Biso   1.000  H
  H44      1.0000 0.58970  0.87180  0.17160  Biso   1.000  H
  H45      1.0000 0.08970  0.62820  0.67160  Biso   1.000  H
  H46      1.0000 0.58970  0.12820  0.67160  Biso   1.000  H
  H47      1.0000 0.91030  0.62820  0.82840  Biso   1.000  H
  H48      1.0000 0.41030  0.12820  0.82840  Biso   1.000  H
  C9       1.0000 0.94030  0.18050  0.39320  Biso   1.000  C
  C10      1.0000 0.44030  0.68050  0.39320  Biso   1.000  C
  C11      1.0000 0.05970  0.18050  0.10680  Biso   1.000  C
  C12      1.0000 0.55970  0.68050  0.10680  Biso   1.000  C
  C13      1.0000 0.05970  0.81950  0.60680  Biso   1.000  C
  C14      1.0000 0.55970  0.31950  0.60680  Biso   1.000  C
  C15      1.0000 0.94030  0.81950  0.89320  Biso   1.000  C
  C16      1.0000 0.44030  0.31950  0.89320  Biso   1.000  C
  H49      1.0000 0.98010  0.19200  0.40100  Biso   1.000  H
  H50      1.0000 0.48010  0.69200  0.40100  Biso   1.000  H
  H51      1.0000 0.01990  0.19200  0.09900  Biso   1.000  H
  H52      1.0000 0.51990  0.69200  0.09900  Biso   1.000  H
  H53      1.0000 0.01990  0.80800  0.59900  Biso   1.000  H
  H54      1.0000 0.51990  0.30800  0.59900  Biso   1.000  H
  H55      1.0000 0.98010  0.80800  0.90100  Biso   1.000  H
  H56      1.0000 0.48010  0.30800  0.90100  Biso   1.000  H
  H57      1.0000 0.92950  0.09020  0.33910  Biso   1.000  H
  H58      1.0000 0.42950  0.59020  0.33910  Biso   1.000  H
  H59      1.0000 0.07050  0.09020  0.16090  Biso   1.000  H
  H60      1.0000 0.57050  0.59020  0.16090  Biso   1.000  H
  H61      1.0000 0.07050  0.90980  0.66090  Biso   1.000  H
  H62      1.0000 0.57050  0.40980  0.66090  Biso   1.000  H
  H63      1.0000 0.92950  0.90980  0.83910  Biso   1.000  H
  H64      1.0000 0.42950  0.40980  0.83910  Biso   1.000  H
  C17      1.0000 0.93240  0.18180  0.59220  Biso   1.000  C
  C18      1.0000 0.43240  0.68180  0.59220  Biso   1.000  C
  C19      1.0000 0.06760  0.18180  0.90780  Biso   1.000  C
  C20      1.0000 0.56760  0.68180  0.90780  Biso   1.000  C
  C21      1.0000 0.06760  0.81820  0.40780  Biso   1.000  C
  C22      1.0000 0.56760  0.31820  0.40780  Biso   1.000  C
  C23      1.0000 0.93240  0.81820  0.09220  Biso   1.000  C
  C24      1.0000 0.43240  0.31820  0.09220  Biso   1.000  C
  H65      1.0000 0.94970  0.09890  0.65520  Biso   1.000  H
  H66      1.0000 0.44970  0.59890  0.65520  Biso   1.000  H
  H67      1.0000 0.05030  0.09890  0.84480  Biso   1.000  H
  H68      1.0000 0.55030  0.59890  0.84480  Biso   1.000  H
  H69      1.0000 0.05030  0.90110  0.34480  Biso   1.000  H
  H70      1.0000 0.55030  0.40110  0.34480  Biso   1.000  H
  H71      1.0000 0.94970  0.90110  0.15520  Biso   1.000  H
  H72      1.0000 0.44970  0.40110  0.15520  Biso   1.000  H
  H73      1.0000 0.89240  0.17510  0.58290  Biso   1.000  H
  H74      1.0000 0.39240  0.67510  0.58290  Biso   1.000  H
  H75      1.0000 0.10760  0.17510  0.91710  Biso   1.000  H
  H76      1.0000 0.60760  0.67510  0.91710  Biso   1.000  H
  H77      1.0000 0.10760  0.82490  0.41710  Biso   1.000  H
  H78      1.0000 0.60760  0.32490  0.41710  Biso   1.000  H
  H79      1.0000 0.89240  0.82490  0.08290  Biso   1.000  H
  H80      1.0000 0.39240  0.32490  0.08290  Biso   1.000  H
