data_image0
_cell_length_a       5.8092
_cell_length_b       14.635
_cell_length_c       27.6
_cell_angle_alpha    90
_cell_angle_beta     91.87
_cell_angle_gamma    90

_symmetry_space_group_name_H-M    "P 1"
_symmetry_int_tables_number       1

loop_
  _symmetry_equiv_pos_as_xyz
  'x, y, z'

loop_
  _atom_site_label
  _atom_site_occupancy
  _atom_site_fract_x
  _atom_site_fract_y
  _atom_site_fract_z
  _atom_site_thermal_displace_type
  _atom_site_B_iso_or_equiv
  _atom_site_type_symbol
  C1       1.0000 0.47900  0.12450  0.99097  Biso   1.000  C
  C2       1.0000 0.02100  0.62450  0.50903  Biso   1.000  C
  C3       1.0000 0.52100  0.87550  0.00903  Biso   1.000  C
  C4       1.0000 0.97900  0.37550  0.49097  Biso   1.000  C
  H1       1.0000 0.49970  0.10930  0.02350  Biso   1.000  H
  H2       1.0000 0.00030  0.60930  0.47650  Biso   1.000  H
  H3       1.0000 0.50030  0.89070  0.97650  Biso   1.000  H
  H4       1.0000 0.99970  0.39070  0.52350  Biso   1.000  H
  C5       1.0000 0.63710  0.09219  0.95779  Biso   1.000  C
  C6       1.0000 0.86290  0.59219  0.54221  Biso   1.000  C
  C7       1.0000 0.36290  0.90781  0.04221  Biso   1.000  C
  C8       1.0000 0.13710  0.40781  0.45779  Biso   1.000  C
  H5       1.0000 0.75960  0.05540  0.96820  Biso   1.000  H
  H6       1.0000 0.74040  0.55540  0.53180  Biso   1.000  H
  H7       1.0000 0.24040  0.94460  0.03180  Biso   1.000  H
  H8       1.0000 0.25960  0.44460  0.46820  Biso   1.000  H
  C9       1.0000 0.60960  0.11542  0.90966  Biso   1.000  C
  C10      1.0000 0.89040  0.61542  0.59034  Biso   1.000  C
  C11      1.0000 0.39040  0.88458  0.09034  Biso   1.000  C
  C12      1.0000 0.10960  0.38458  0.40966  Biso   1.000  C
  H9       1.0000 0.71190  0.09380  0.88710  Biso   1.000  H
  H10      1.0000 0.78810  0.59380  0.61290  Biso   1.000  H
  H11      1.0000 0.28810  0.90620  0.11290  Biso   1.000  H
  H12      1.0000 0.21190  0.40620  0.38710  Biso   1.000  H
  C13      1.0000 0.42590  0.17202  0.89497  Biso   1.000  C
  C14      1.0000 0.07410  0.67202  0.60503  Biso   1.000  C
  C15      1.0000 0.57410  0.82798  0.10503  Biso   1.000  C
  C16      1.0000 0.92590  0.32798  0.39497  Biso   1.000  C
  C17      1.0000 0.27440  0.20030  0.93028  Biso   1.000  C
  C18      1.0000 0.22560  0.70030  0.56972  Biso   1.000  C
  C19      1.0000 0.72560  0.79970  0.06972  Biso   1.000  C
  C20      1.0000 0.77440  0.29970  0.43028  Biso   1.000  C
  C21      1.0000 0.08360  0.25939  0.91825  Biso   1.000  C
  C22      1.0000 0.41640  0.75939  0.58175  Biso   1.000  C
  C23      1.0000 0.91640  0.74061  0.08175  Biso   1.000  C
  C24      1.0000 0.58360  0.24061  0.41825  Biso   1.000  C
  C25      1.0000 0.77390  0.33950  0.94723  Biso   1.000  C
  C26      1.0000 0.72610  0.83950  0.55277  Biso   1.000  C
  C27      1.0000 0.22610  0.66050  0.05277  Biso   1.000  C
  C28      1.0000 0.27390  0.16050  0.44723  Biso   1.000  C
  H13      1.0000 0.68180  0.35590  0.97280  Biso   1.000  H
  H14      1.0000 0.81820  0.85590  0.52720  Biso   1.000  H
  H15      1.0000 0.31820  0.64410  0.02720  Biso   1.000  H
  H16      1.0000 0.18180  0.14410  0.47280  Biso   1.000  H
  C29      1.0000 0.72460  0.37489  0.90124  Biso   1.000  C
  C30      1.0000 0.77540  0.87489  0.59876  Biso   1.000  C
  C31      1.0000 0.27540  0.62511  0.09876  Biso   1.000  C
  C32      1.0000 0.22460  0.12511  0.40124  Biso   1.000  C
  H17      1.0000 0.60260  0.41540  0.89650  Biso   1.000  H
  H18      1.0000 0.89740  0.91540  0.60350  Biso   1.000  H
  H19      1.0000 0.39740  0.58460  0.10350  Biso   1.000  H
  H20      1.0000 0.10260  0.08460  0.39650  Biso   1.000  H
  C33      1.0000 0.85540  0.35019  0.86289  Biso   1.000  C
  C34      1.0000 0.64460  0.85019  0.63711  Biso   1.000  C
  C35      1.0000 0.14460  0.64981  0.13711  Biso   1.000  C
  C36      1.0000 0.35540  0.14981  0.36289  Biso   1.000  C
  H21      1.0000 0.82100  0.37260  0.83200  Biso   1.000  H
  H22      1.0000 0.67900  0.87260  0.66800  Biso   1.000  H
  H23      1.0000 0.17900  0.62740  0.16800  Biso   1.000  H
  H24      1.0000 0.32100  0.12740  0.33200  Biso   1.000  H
  C37      1.0000 0.04120  0.29078  0.87101  Biso   1.000  C
  C38      1.0000 0.45880  0.79078  0.62899  Biso   1.000  C
  C39      1.0000 0.95880  0.70922  0.12899  Biso   1.000  C
  C40      1.0000 0.54120  0.20922  0.37101  Biso   1.000  C
  C41      1.0000 0.19800  0.26118  0.83382  Biso   1.000  C
  C42      1.0000 0.30200  0.76118  0.66618  Biso   1.000  C
  C43      1.0000 0.80200  0.73882  0.16618  Biso   1.000  C
  C44      1.0000 0.69800  0.23882  0.33382  Biso   1.000  C
  C45      1.0000 0.38470  0.20461  0.84559  Biso   1.000  C
  C46      1.0000 0.11530  0.70461  0.65441  Biso   1.000  C
  C47      1.0000 0.61530  0.79539  0.15441  Biso   1.000  C
  C48      1.0000 0.88470  0.29539  0.34559  Biso   1.000  C
  C49      1.0000 0.49510  0.21090  0.76779  Biso   1.000  C
  C50      1.0000 0.00490  0.71090  0.73221  Biso   1.000  C
  C51      1.0000 0.50490  0.78910  0.23221  Biso   1.000  C
  C52      1.0000 0.99510  0.28910  0.26779  Biso   1.000  C
  H25      1.0000 0.59600  0.19550  0.74360  Biso   1.000  H
  H26      1.0000 0.90400  0.69550  0.75640  Biso   1.000  H
  H27      1.0000 0.40400  0.80450  0.25640  Biso   1.000  H
  H28      1.0000 0.09600  0.30450  0.24360  Biso   1.000  H
  C53      1.0000 0.30860  0.26570  0.75579  Biso   1.000  C
  C54      1.0000 0.19140  0.76570  0.74421  Biso   1.000  C
  C55      1.0000 0.69140  0.73430  0.24421  Biso   1.000  C
  C56      1.0000 0.80860  0.23430  0.25579  Biso   1.000  C
  H29      1.0000 0.28750  0.28490  0.72380  Biso   1.000  H
  H30      1.0000 0.21250  0.78490  0.77620  Biso   1.000  H
  H31      1.0000 0.71250  0.71510  0.27620  Biso   1.000  H
  H32      1.0000 0.78750  0.21510  0.22380  Biso   1.000  H
  C57      1.0000 0.85570  0.35080  0.07387  Biso   1.000  C
  C58      1.0000 0.64430  0.85080  0.42613  Biso   1.000  C
  C59      1.0000 0.14430  0.64920  0.92613  Biso   1.000  C
  C60      1.0000 0.35570  0.14920  0.57387  Biso   1.000  C
  C61      1.0000 0.70750  0.38171  0.11430  Biso   1.000  C
  C62      1.0000 0.79250  0.88171  0.38570  Biso   1.000  C
  C63      1.0000 0.29250  0.61829  0.88570  Biso   1.000  C
  C64      1.0000 0.20750  0.11829  0.61430  Biso   1.000  C
  C65      1.0000 0.77330  0.45479  0.14310  Biso   1.000  C
  C66      1.0000 0.72670  0.95479  0.35690  Biso   1.000  C
  C67      1.0000 0.22670  0.54521  0.85690  Biso   1.000  C
  C68      1.0000 0.27330  0.04521  0.64310  Biso   1.000  C
  H33      1.0000 0.91090  0.48480  0.13740  Biso   1.000  H
  H34      1.0000 0.58910  0.98480  0.36260  Biso   1.000  H
  H35      1.0000 0.08910  0.51520  0.86260  Biso   1.000  H
  H36      1.0000 0.41090  0.01520  0.63740  Biso   1.000  H
  C69      1.0000 0.63770  0.48415  0.18046  Biso   1.000  C
  C70      1.0000 0.86230  0.98415  0.31954  Biso   1.000  C
  C71      1.0000 0.36230  0.51585  0.81954  Biso   1.000  C
  C72      1.0000 0.13770  0.01585  0.68046  Biso   1.000  C
  H37      1.0000 0.68420  0.53300  0.20000  Biso   1.000  H
  H38      1.0000 0.81580  0.03300  0.30000  Biso   1.000  H
  H39      1.0000 0.31580  0.46700  0.80000  Biso   1.000  H
  H40      1.0000 0.18420  0.96700  0.70000  Biso   1.000  H
  C73      1.0000 0.43220  0.43965  0.18814  Biso   1.000  C
  C74      1.0000 0.06780  0.93965  0.31186  Biso   1.000  C
  C75      1.0000 0.56780  0.56035  0.81186  Biso   1.000  C
  C76      1.0000 0.93220  0.06035  0.68814  Biso   1.000  C
  C77      1.0000 0.36420  0.36678  0.15973  Biso   1.000  C
  C78      1.0000 0.13580  0.86678  0.34027  Biso   1.000  C
  C79      1.0000 0.63580  0.63322  0.84027  Biso   1.000  C
  C80      1.0000 0.86420  0.13322  0.65973  Biso   1.000  C
  H41      1.0000 0.22550  0.33740  0.16520  Biso   1.000  H
  H42      1.0000 0.27450  0.83740  0.33480  Biso   1.000  H
  H43      1.0000 0.77450  0.66260  0.83480  Biso   1.000  H
  H44      1.0000 0.72550  0.16260  0.66520  Biso   1.000  H
  C81      1.0000 0.50210  0.33725  0.12300  Biso   1.000  C
  C82      1.0000 0.99790  0.83725  0.37700  Biso   1.000  C
  C83      1.0000 0.49790  0.66275  0.87700  Biso   1.000  C
  C84      1.0000 0.00210  0.16275  0.62300  Biso   1.000  C
  H45      1.0000 0.45710  0.28740  0.10410  Biso   1.000  H
  H46      1.0000 0.04290  0.78740  0.39590  Biso   1.000  H
  H47      1.0000 0.54290  0.71260  0.89590  Biso   1.000  H
  H48      1.0000 0.95710  0.21260  0.60410  Biso   1.000  H
  C85      1.0000 0.57680  0.51097  0.33805  Biso   1.000  C
  C86      1.0000 0.92320  0.01097  0.16195  Biso   1.000  C
  C87      1.0000 0.42320  0.48903  0.66195  Biso   1.000  C
  C88      1.0000 0.07680  0.98903  0.83805  Biso   1.000  C
  H49      1.0000 0.70960  0.49360  0.35540  Biso   1.000  H
  H50      1.0000 0.79040  0.99360  0.14460  Biso   1.000  H
  H51      1.0000 0.29040  0.50640  0.64460  Biso   1.000  H
  H52      1.0000 0.20960  0.00640  0.85540  Biso   1.000  H
  C89      1.0000 0.42200  0.56945  0.35915  Biso   1.000  C
  C90      1.0000 0.07800  0.06945  0.14085  Biso   1.000  C
  C91      1.0000 0.57800  0.43055  0.64085  Biso   1.000  C
  C92      1.0000 0.92200  0.93055  0.85915  Biso   1.000  C
  C93      1.0000 0.46340  0.60147  0.41048  Biso   1.000  C
  C94      1.0000 0.03660  0.10147  0.08952  Biso   1.000  C
  C95      1.0000 0.53660  0.39853  0.58952  Biso   1.000  C
  C96      1.0000 0.96340  0.89853  0.91048  Biso   1.000  C
  C97      1.0000 0.22690  0.59633  0.33245  Biso   1.000  C
  C98      1.0000 0.27310  0.09633  0.16755  Biso   1.000  C
  C99      1.0000 0.77310  0.40367  0.66755  Biso   1.000  C
  C100     1.0000 0.72690  0.90367  0.83245  Biso   1.000  C
  H53      1.0000 0.12270  0.63640  0.34600  Biso   1.000  H
  H54      1.0000 0.37730  0.13640  0.15400  Biso   1.000  H
  H55      1.0000 0.87730  0.36360  0.65400  Biso   1.000  H
  H56      1.0000 0.62270  0.86360  0.84600  Biso   1.000  H
  C101     1.0000 0.18620  0.56410  0.28603  Biso   1.000  C
  C102     1.0000 0.31380  0.06410  0.21397  Biso   1.000  C
  C103     1.0000 0.81380  0.43590  0.71397  Biso   1.000  C
  C104     1.0000 0.68620  0.93590  0.78603  Biso   1.000  C
  H57      1.0000 0.05520  0.58230  0.26830  Biso   1.000  H
  H58      1.0000 0.44480  0.08230  0.23170  Biso   1.000  H
  H59      1.0000 0.94480  0.41770  0.73170  Biso   1.000  H
  H60      1.0000 0.55520  0.91770  0.76830  Biso   1.000  H
  C105     1.0000 0.34070  0.50457  0.26594  Biso   1.000  C
  C106     1.0000 0.15930  0.00457  0.23406  Biso   1.000  C
  C107     1.0000 0.65930  0.49543  0.73406  Biso   1.000  C
  C108     1.0000 0.84070  0.99543  0.76594  Biso   1.000  C
  C109     1.0000 0.53720  0.47786  0.29149  Biso   1.000  C
  C110     1.0000 0.96280  0.97786  0.20851  Biso   1.000  C
  C111     1.0000 0.46280  0.52214  0.70851  Biso   1.000  C
  C112     1.0000 0.03720  0.02214  0.79149  Biso   1.000  C
  H61      1.0000 0.64160  0.43820  0.27770  Biso   1.000  H
  H62      1.0000 0.85840  0.93820  0.22230  Biso   1.000  H
  H63      1.0000 0.35840  0.56180  0.72230  Biso   1.000  H
  H64      1.0000 0.14160  0.06180  0.77770  Biso   1.000  H
  N1       1.0000 0.30080  0.17603  0.97748  Biso   1.000  N
  N2       1.0000 0.19920  0.67603  0.52252  Biso   1.000  N
  N3       1.0000 0.69920  0.82397  0.02252  Biso   1.000  N
  N4       1.0000 0.80080  0.32397  0.47748  Biso   1.000  N
  N5       1.0000 0.94860  0.28303  0.95548  Biso   1.000  N
  N6       1.0000 0.55140  0.78303  0.54452  Biso   1.000  N
  N7       1.0000 0.05140  0.71697  0.04452  Biso   1.000  N
  N8       1.0000 0.44860  0.21697  0.45548  Biso   1.000  N
  N9       1.0000 0.53710  0.17933  0.81204  Biso   1.000  N
  N10      1.0000 0.96290  0.67933  0.68796  Biso   1.000  N
  N11      1.0000 0.46290  0.82067  0.18796  Biso   1.000  N
  N12      1.0000 0.03710  0.32067  0.31204  Biso   1.000  N
  N13      1.0000 0.15860  0.29205  0.78798  Biso   1.000  N
  N14      1.0000 0.34140  0.79205  0.71202  Biso   1.000  N
  N15      1.0000 0.84140  0.70795  0.21202  Biso   1.000  N
  N16      1.0000 0.65860  0.20795  0.28798  Biso   1.000  N
  O1       1.0000 0.79840  0.27603  0.05340  Biso   1.000  O
  O2       1.0000 0.70160  0.77603  0.44660  Biso   1.000  O
  O3       1.0000 0.20160  0.72397  0.94660  Biso   1.000  O
  O4       1.0000 0.29840  0.22397  0.55340  Biso   1.000  O
  O5       1.0000 0.02310  0.39620  0.06309  Biso   1.000  O
  O6       1.0000 0.47690  0.89620  0.43691  Biso   1.000  O
  O7       1.0000 0.97690  0.60380  0.93691  Biso   1.000  O
  O8       1.0000 0.52310  0.10380  0.56309  Biso   1.000  O
  O9       1.0000 0.31620  0.43640  0.98700  Biso   1.000  O
  O10      1.0000 0.18380  0.93640  0.51300  Biso   1.000  O
  O11      1.0000 0.68380  0.56360  0.01300  Biso   1.000  O
  O12      1.0000 0.81620  0.06360  0.48700  Biso   1.000  O
  H65      1.0000 0.31400  0.41300  0.01360  Biso   1.000  H
  H66      1.0000 0.18600  0.91300  0.48640  Biso   1.000  H
  H67      1.0000 0.68600  0.58700  0.98640  Biso   1.000  H
  H68      1.0000 0.81400  0.08700  0.51360  Biso   1.000  H
  H69      1.0000 0.19800  0.47400  0.98240  Biso   1.000  H
  H70      1.0000 0.30200  0.97400  0.51760  Biso   1.000  H
  H71      1.0000 0.80200  0.52600  0.01760  Biso   1.000  H
  H72      1.0000 0.69800  0.02600  0.48240  Biso   1.000  H
  O13      1.0000 0.27320  0.47003  0.22092  Biso   1.000  O
  O14      1.0000 0.22680  0.97003  0.27908  Biso   1.000  O
  O15      1.0000 0.72680  0.52997  0.77908  Biso   1.000  O
  O16      1.0000 0.77320  0.02997  0.72092  Biso   1.000  O
  O17      1.0000 0.61030  0.56465  0.43667  Biso   1.000  O
  O18      1.0000 0.88970  0.06465  0.06333  Biso   1.000  O
  O19      1.0000 0.38970  0.43535  0.56333  Biso   1.000  O
  O20      1.0000 0.11030  0.93535  0.93667  Biso   1.000  O
  O21      1.0000 0.33290  0.66682  0.42371  Biso   1.000  O
  O22      1.0000 0.16710  0.16682  0.07629  Biso   1.000  O
  O23      1.0000 0.66710  0.33318  0.57629  Biso   1.000  O
  O24      1.0000 0.83290  0.83318  0.92371  Biso   1.000  O
  Cu1      1.0000 0.05118  0.22577  0.01850  Biso   1.000  Cu
  Cu2      1.0000 0.44882  0.72577  0.48150  Biso   1.000  Cu
  Cu3      1.0000 0.94882  0.77423  0.98150  Biso   1.000  Cu
  Cu4      1.0000 0.55118  0.27423  0.51850  Biso   1.000  Cu
