data_image0
_cell_length_a       9.9543
_cell_length_b       12.283
_cell_length_c       28.0365
_cell_angle_alpha    90
_cell_angle_beta     98.212
_cell_angle_gamma    90

_symmetry_space_group_name_H-M    "P 1"
_symmetry_int_tables_number       1

loop_
  _symmetry_equiv_pos_as_xyz
  'x, y, z'

loop_
  _atom_site_label
  _atom_site_occupancy
  _atom_site_fract_x
  _atom_site_fract_y
  _atom_site_fract_z
  _atom_site_thermal_displace_type
  _atom_site_B_iso_or_equiv
  _atom_site_type_symbol
  Mo1      1.0000 0.36168  0.79979  0.03095  Biso   1.000  Mo
  Mo2      1.0000 0.13832  0.29979  0.46905  Biso   1.000  Mo
  Mo3      1.0000 0.63832  0.20021  0.96905  Biso   1.000  Mo
  Mo4      1.0000 0.86168  0.70021  0.53095  Biso   1.000  Mo
  Mo5      1.0000 0.60447  0.67283  0.10783  Biso   1.000  Mo
  Mo6      1.0000 0.89553  0.17283  0.39217  Biso   1.000  Mo
  Mo7      1.0000 0.39553  0.32717  0.89217  Biso   1.000  Mo
  Mo8      1.0000 0.10447  0.82717  0.60783  Biso   1.000  Mo
  Mo9      1.0000 0.45995  0.57031  0.20118  Biso   1.000  Mo
  Mo10     1.0000 0.04005  0.07031  0.29882  Biso   1.000  Mo
  Mo11     1.0000 0.54005  0.42969  0.79882  Biso   1.000  Mo
  Mo12     1.0000 0.95995  0.92969  0.70118  Biso   1.000  Mo
  Mo13     1.0000 0.12130  0.60879  0.17963  Biso   1.000  Mo
  Mo14     1.0000 0.37870  0.10879  0.32037  Biso   1.000  Mo
  Mo15     1.0000 0.87870  0.39121  0.82037  Biso   1.000  Mo
  Mo16     1.0000 0.62130  0.89121  0.67963  Biso   1.000  Mo
  Mo17     1.0000 0.03789  0.71176  0.06817  Biso   1.000  Mo
  Mo18     1.0000 0.46211  0.21176  0.43183  Biso   1.000  Mo
  Mo19     1.0000 0.96211  0.28824  0.93183  Biso   1.000  Mo
  Mo20     1.0000 0.53789  0.78824  0.56817  Biso   1.000  Mo
  P1       1.0000 0.29690  0.54298  0.08384  Biso   1.000  P
  P2       1.0000 0.20310  0.04298  0.41616  Biso   1.000  P
  P3       1.0000 0.70310  0.45702  0.91616  Biso   1.000  P
  P4       1.0000 0.79690  0.95702  0.58384  Biso   1.000  P
  P5       1.0000 0.33060  0.80920  0.14860  Biso   1.000  P
  P6       1.0000 0.16940  0.30920  0.35140  Biso   1.000  P
  P7       1.0000 0.66940  0.19080  0.85140  Biso   1.000  P
  P8       1.0000 0.83060  0.69080  0.64860  Biso   1.000  P
  Cu1      1.0000 0.17882  0.17040  0.13286  Biso   1.000  Cu
  Cu2      1.0000 0.32118  0.67040  0.36714  Biso   1.000  Cu
  Cu3      1.0000 0.82118  0.82960  0.86714  Biso   1.000  Cu
  Cu4      1.0000 0.67882  0.32960  0.63286  Biso   1.000  Cu
  Cl1      1.0000 0.92420  0.15320  0.10969  Biso   1.000  Cl
  Cl2      1.0000 0.57580  0.65320  0.39031  Biso   1.000  Cl
  Cl3      1.0000 0.07580  0.84680  0.89031  Biso   1.000  Cl
  Cl4      1.0000 0.42420  0.34680  0.60969  Biso   1.000  Cl
  C1       1.0000 0.36520  0.41620  0.06580  Biso   1.000  C
  C2       1.0000 0.13480  0.91620  0.43420  Biso   1.000  C
  C3       1.0000 0.63480  0.58380  0.93420  Biso   1.000  C
  C4       1.0000 0.86520  0.08380  0.56580  Biso   1.000  C
  H1       1.0000 0.32920  0.40180  0.03200  Biso   1.000  H
  H2       1.0000 0.17080  0.90180  0.46800  Biso   1.000  H
  H3       1.0000 0.67080  0.59820  0.96800  Biso   1.000  H
  H4       1.0000 0.82920  0.09820  0.53200  Biso   1.000  H
  H5       1.0000 0.46410  0.42240  0.06820  Biso   1.000  H
  H6       1.0000 0.03590  0.92240  0.43180  Biso   1.000  H
  H7       1.0000 0.53590  0.57760  0.93180  Biso   1.000  H
  H8       1.0000 0.96410  0.07760  0.56820  Biso   1.000  H
  C5       1.0000 0.32210  0.89010  0.20220  Biso   1.000  C
  C6       1.0000 0.17790  0.39010  0.29780  Biso   1.000  C
  C7       1.0000 0.67790  0.10990  0.79780  Biso   1.000  C
  C8       1.0000 0.82210  0.60990  0.70220  Biso   1.000  C
  H9       1.0000 0.24460  0.86700  0.21770  Biso   1.000  H
  H10      1.0000 0.25540  0.36700  0.28230  Biso   1.000  H
  H11      1.0000 0.75540  0.13300  0.78230  Biso   1.000  H
  H12      1.0000 0.74460  0.63300  0.71770  Biso   1.000  H
  H13      1.0000 0.40510  0.88010  0.22520  Biso   1.000  H
  H14      1.0000 0.09490  0.38010  0.27480  Biso   1.000  H
  H15      1.0000 0.59490  0.11990  0.77480  Biso   1.000  H
  H16      1.0000 0.90510  0.61990  0.72520  Biso   1.000  H
  C9       1.0000 0.33040  0.32160  0.09640  Biso   1.000  C
  C10      1.0000 0.16960  0.82160  0.40360  Biso   1.000  C
  C11      1.0000 0.66960  0.67840  0.90360  Biso   1.000  C
  C12      1.0000 0.83040  0.17840  0.59640  Biso   1.000  C
  C13      1.0000 0.30660  0.00860  0.18750  Biso   1.000  C
  C14      1.0000 0.19340  0.50860  0.31250  Biso   1.000  C
  C15      1.0000 0.69340  0.99140  0.81250  Biso   1.000  C
  C16      1.0000 0.80660  0.49140  0.68750  Biso   1.000  C
  O1       1.0000 0.36030  0.93310  0.01210  Biso   1.000  O
  O2       1.0000 0.13970  0.43310  0.48790  Biso   1.000  O
  O3       1.0000 0.63970  0.06690  0.98790  Biso   1.000  O
  O4       1.0000 0.86030  0.56690  0.51210  Biso   1.000  O
  O5       1.0000 0.22000  0.07490  0.07940  Biso   1.000  O
  O6       1.0000 0.28000  0.57490  0.42060  Biso   1.000  O
  O7       1.0000 0.78000  0.92510  0.92060  Biso   1.000  O
  O8       1.0000 0.72000  0.42510  0.57940  Biso   1.000  O
  O9       1.0000 0.37800  0.73080  0.97910  Biso   1.000  O
  O10      1.0000 0.12200  0.23080  0.52090  Biso   1.000  O
  O11      1.0000 0.62200  0.26920  0.02090  Biso   1.000  O
  O12      1.0000 0.87800  0.76920  0.47910  Biso   1.000  O
  O13      1.0000 0.68650  0.59590  0.07110  Biso   1.000  O
  O14      1.0000 0.81350  0.09590  0.42890  Biso   1.000  O
  O15      1.0000 0.31350  0.40410  0.92890  Biso   1.000  O
  O16      1.0000 0.18650  0.90410  0.57110  Biso   1.000  O
  O17      1.0000 0.19480  0.25830  0.19490  Biso   1.000  O
  O18      1.0000 0.30520  0.75830  0.30510  Biso   1.000  O
  O19      1.0000 0.80520  0.74170  0.80510  Biso   1.000  O
  O20      1.0000 0.69480  0.24170  0.69490  Biso   1.000  O
  O21      1.0000 0.73050  0.73850  0.14400  Biso   1.000  O
  O22      1.0000 0.76950  0.23850  0.35600  Biso   1.000  O
  O23      1.0000 0.26950  0.26150  0.85600  Biso   1.000  O
  O24      1.0000 0.23050  0.76150  0.64400  Biso   1.000  O
  O25      1.0000 0.45000  0.43740  0.21930  Biso   1.000  O
  O26      1.0000 0.05000  0.93740  0.28070  Biso   1.000  O
  O27      1.0000 0.55000  0.56260  0.78070  Biso   1.000  O
  O28      1.0000 0.95000  0.06260  0.71930  Biso   1.000  O
  O29      1.0000 0.57260  0.62540  0.24660  Biso   1.000  O
  O30      1.0000 0.92740  0.12540  0.25340  Biso   1.000  O
  O31      1.0000 0.42740  0.37460  0.75340  Biso   1.000  O
  O32      1.0000 0.07260  0.87460  0.74660  Biso   1.000  O
  O33      1.0000 0.03610  0.69140  0.21430  Biso   1.000  O
  O34      1.0000 0.46390  0.19140  0.28570  Biso   1.000  O
  O35      1.0000 0.96390  0.30860  0.78570  Biso   1.000  O
  O36      1.0000 0.53610  0.80860  0.71430  Biso   1.000  O
  O37      1.0000 0.08460  0.47760  0.19490  Biso   1.000  O
  O38      1.0000 0.41540  0.97760  0.30510  Biso   1.000  O
  O39      1.0000 0.91540  0.52240  0.80510  Biso   1.000  O
  O40      1.0000 0.58460  0.02240  0.69490  Biso   1.000  O
  O41      1.0000 0.92390  0.66500  0.02150  Biso   1.000  O
  O42      1.0000 0.57610  0.16500  0.47850  Biso   1.000  O
  O43      1.0000 0.07610  0.33500  0.97850  Biso   1.000  O
  O44      1.0000 0.42390  0.83500  0.52150  Biso   1.000  O
  O45      1.0000 0.96400  0.82920  0.08340  Biso   1.000  O
  O46      1.0000 0.53600  0.32920  0.41660  Biso   1.000  O
  O47      1.0000 0.03600  0.17080  0.91660  Biso   1.000  O
  O48      1.0000 0.46400  0.67080  0.58340  Biso   1.000  O
  O49      1.0000 0.39420  0.63460  0.07310  Biso   1.000  O
  O50      1.0000 0.10580  0.13460  0.42690  Biso   1.000  O
  O51      1.0000 0.60580  0.36540  0.92690  Biso   1.000  O
  O52      1.0000 0.89420  0.86540  0.57310  Biso   1.000  O
  O53      1.0000 0.20430  0.29970  0.09530  Biso   1.000  O
  O54      1.0000 0.29570  0.79970  0.40470  Biso   1.000  O
  O55      1.0000 0.79570  0.70030  0.90470  Biso   1.000  O
  O56      1.0000 0.70430  0.20030  0.59530  Biso   1.000  O
  O57      1.0000 0.34420  0.88220  0.10610  Biso   1.000  O
  O58      1.0000 0.15580  0.38220  0.39390  Biso   1.000  O
  O59      1.0000 0.65580  0.11780  0.89390  Biso   1.000  O
  O60      1.0000 0.84420  0.61780  0.60610  Biso   1.000  O
  O61      1.0000 0.54300  0.79300  0.06470  Biso   1.000  O
  O62      1.0000 0.95700  0.29300  0.43530  Biso   1.000  O
  O63      1.0000 0.45700  0.20700  0.93530  Biso   1.000  O
  O64      1.0000 0.04300  0.70700  0.56470  Biso   1.000  O
  O65      1.0000 0.40880  0.06650  0.18890  Biso   1.000  O
  O66      1.0000 0.09120  0.56650  0.31110  Biso   1.000  O
  O67      1.0000 0.59120  0.93350  0.81110  Biso   1.000  O
  O68      1.0000 0.90880  0.43350  0.68890  Biso   1.000  O
  O69      1.0000 0.17520  0.77460  0.03530  Biso   1.000  O
  O70      1.0000 0.32480  0.27460  0.46470  Biso   1.000  O
  O71      1.0000 0.82480  0.22540  0.96470  Biso   1.000  O
  O72      1.0000 0.67520  0.72540  0.53530  Biso   1.000  O
  O73      1.0000 0.28980  0.53600  0.13840  Biso   1.000  O
  O74      1.0000 0.21020  0.03600  0.36160  Biso   1.000  O
  O75      1.0000 0.71020  0.46400  0.86160  Biso   1.000  O
  O76      1.0000 0.78980  0.96400  0.63840  Biso   1.000  O
  O77      1.0000 0.42460  0.27170  0.12130  Biso   1.000  O
  O78      1.0000 0.07540  0.77170  0.37870  Biso   1.000  O
  O79      1.0000 0.57540  0.72830  0.87870  Biso   1.000  O
  O80      1.0000 0.92460  0.22830  0.62130  Biso   1.000  O
  O81      1.0000 0.18590  0.03980  0.17190  Biso   1.000  O
  O82      1.0000 0.31410  0.53980  0.32810  Biso   1.000  O
  O83      1.0000 0.81410  0.96020  0.82810  Biso   1.000  O
  O84      1.0000 0.68590  0.46020  0.67190  Biso   1.000  O
  O85      1.0000 0.45410  0.73390  0.16000  Biso   1.000  O
  O86      1.0000 0.04590  0.23390  0.34000  Biso   1.000  O
  O87      1.0000 0.54590  0.26610  0.84000  Biso   1.000  O
  O88      1.0000 0.95410  0.76610  0.66000  Biso   1.000  O
  O89      1.0000 0.56890  0.55300  0.15060  Biso   1.000  O
  O90      1.0000 0.93110  0.05300  0.34940  Biso   1.000  O
  O91      1.0000 0.43110  0.44700  0.84940  Biso   1.000  O
  O92      1.0000 0.06890  0.94700  0.65060  Biso   1.000  O
  O93      1.0000 0.15940  0.56290  0.05530  Biso   1.000  O
  O94      1.0000 0.34060  0.06290  0.44470  Biso   1.000  O
  O95      1.0000 0.84060  0.43710  0.94470  Biso   1.000  O
  O96      1.0000 0.65940  0.93710  0.55530  Biso   1.000  O
  O97      1.0000 0.19810  0.74440  0.13830  Biso   1.000  O
  O98      1.0000 0.30190  0.24440  0.36170  Biso   1.000  O
  O99      1.0000 0.80190  0.25560  0.86170  Biso   1.000  O
  O100     1.0000 0.69810  0.75560  0.63830  Biso   1.000  O
  O101     1.0000 0.29680  0.63100  0.21910  Biso   1.000  O
  O102     1.0000 0.20320  0.13100  0.28090  Biso   1.000  O
  O103     1.0000 0.70320  0.36900  0.78090  Biso   1.000  O
  O104     1.0000 0.79680  0.86900  0.71910  Biso   1.000  O
  O105     1.0000 0.00460  0.61670  0.11960  Biso   1.000  O
  O106     1.0000 0.49540  0.11670  0.38040  Biso   1.000  O
  O107     1.0000 0.99540  0.38330  0.88040  Biso   1.000  O
  O108     1.0000 0.50460  0.88330  0.61960  Biso   1.000  O
  Na1      1.0000 0.46740  0.24820  0.20427  Biso   1.000  Na
  Na2      1.0000 0.03260  0.74820  0.29573  Biso   1.000  Na
  Na3      1.0000 0.53260  0.75180  0.79573  Biso   1.000  Na
  Na4      1.0000 0.96740  0.25180  0.70427  Biso   1.000  Na
  Cs1      1.0000 0.90244  0.40854  0.05915  Biso   1.000  Cs
  Cs2      1.0000 0.59756  0.90854  0.44085  Biso   1.000  Cs
  Cs3      1.0000 0.09756  0.59146  0.94085  Biso   1.000  Cs
  Cs4      1.0000 0.40244  0.09146  0.55915  Biso   1.000  Cs
  Cs5      1.0000 0.42518  0.93524  0.90867  Biso   1.000  Cs
  Cs6      1.0000 0.07482  0.43524  0.59133  Biso   1.000  Cs
  Cs7      1.0000 0.57482  0.06476  0.09133  Biso   1.000  Cs
  Cs8      1.0000 0.92518  0.56476  0.40867  Biso   1.000  Cs
  Cs9      1.0000 0.57502  0.42296  0.32394  Biso   1.000  Cs
  Cs10     1.0000 0.92498  0.92296  0.17606  Biso   1.000  Cs
  Cs11     1.0000 0.42498  0.57704  0.67606  Biso   1.000  Cs
  Cs12     1.0000 0.07502  0.07704  0.82394  Biso   1.000  Cs
  Cs13     1.0000 0.00000  0.00000  0.00000  Biso   1.000  Cs
  Cs14     1.0000 0.50000  0.50000  0.50000  Biso   1.000  Cs
  Cs15     1.0000 0.94780  0.01440  0.01595  Biso   1.000  Cs
  Cs16     1.0000 0.55220  0.51440  0.48405  Biso   1.000  Cs
  Cs17     1.0000 0.05220  0.98560  0.98405  Biso   1.000  Cs
  Cs18     1.0000 0.44780  0.48560  0.51595  Biso   1.000  Cs
  O109     1.0000 0.28050  0.17870  0.00370  Biso   1.000  O
  O110     1.0000 0.21950  0.67870  0.49630  Biso   1.000  O
  O111     1.0000 0.71950  0.82130  0.99630  Biso   1.000  O
  O112     1.0000 0.78050  0.32130  0.50370  Biso   1.000  O
  O113     1.0000 0.79400  0.41230  0.16390  Biso   1.000  O
  O114     1.0000 0.70600  0.91230  0.33610  Biso   1.000  O
  O115     1.0000 0.20600  0.58770  0.83610  Biso   1.000  O
  O116     1.0000 0.29400  0.08770  0.66390  Biso   1.000  O
  O117     1.0000 0.69200  0.22600  0.19850  Biso   1.000  O
  O118     1.0000 0.80800  0.72600  0.30150  Biso   1.000  O
  O119     1.0000 0.30800  0.77400  0.80150  Biso   1.000  O
  O120     1.0000 0.19200  0.27400  0.69850  Biso   1.000  O
  O121     1.0000 0.69400  0.35800  0.13700  Biso   1.000  O
  O122     1.0000 0.80600  0.85800  0.36300  Biso   1.000  O
  O123     1.0000 0.30600  0.64200  0.86300  Biso   1.000  O
  O124     1.0000 0.19400  0.14200  0.63700  Biso   1.000  O
