data_image0
_cell_length_a       10.0031
_cell_length_b       12.2905
_cell_length_c       13.711
_cell_angle_alpha    90
_cell_angle_beta     92.071
_cell_angle_gamma    90

_symmetry_space_group_name_H-M    "P 1"
_symmetry_int_tables_number       1

loop_
  _symmetry_equiv_pos_as_xyz
  'x, y, z'

loop_
  _atom_site_label
  _atom_site_occupancy
  _atom_site_fract_x
  _atom_site_fract_y
  _atom_site_fract_z
  _atom_site_thermal_displace_type
  _atom_site_B_iso_or_equiv
  _atom_site_type_symbol
  Rb1      1.0000 0.79316  0.37122  0.20087  Biso   1.000  Rb
  Rb2      1.0000 0.20684  0.87122  0.79913  Biso   1.000  Rb
  Rb3      1.0000 0.75629  0.87914  0.33252  Biso   1.000  Rb
  Rb4      1.0000 0.24371  0.37914  0.66748  Biso   1.000  Rb
  Rb5      1.0000 0.96431  0.58814  0.99039  Biso   1.000  Rb
  Rb6      1.0000 0.03569  0.08814  0.00961  Biso   1.000  Rb
  K1       1.0000 0.20038  0.24938  0.37762  Biso   1.000  K
  K2       1.0000 0.79962  0.74938  0.62238  Biso   1.000  K
  Mo1      1.0000 0.27061  0.77106  0.06098  Biso   1.000  Mo
  Mo2      1.0000 0.72939  0.27106  0.93902  Biso   1.000  Mo
  Mo3      1.0000 0.05692  0.64535  0.24383  Biso   1.000  Mo
  Mo4      1.0000 0.94308  0.14535  0.75617  Biso   1.000  Mo
  Mo5      1.0000 0.26769  0.56376  0.42626  Biso   1.000  Mo
  Mo6      1.0000 0.73231  0.06376  0.57374  Biso   1.000  Mo
  Mo7      1.0000 0.58441  0.57790  0.34764  Biso   1.000  Mo
  Mo8      1.0000 0.41559  0.07790  0.65236  Biso   1.000  Mo
  Mo9      1.0000 0.58336  0.69122  0.12212  Biso   1.000  Mo
  Mo10     1.0000 0.41664  0.19122  0.87788  Biso   1.000  Mo
  P1       1.0000 0.32898  0.51699  0.17892  Biso   1.000  P
  P2       1.0000 0.67102  0.01699  0.82108  Biso   1.000  P
  P3       1.0000 0.36313  0.78810  0.29669  Biso   1.000  P
  P4       1.0000 0.63687  0.28810  0.70331  Biso   1.000  P
  Cu1      1.0000 0.52657  0.13634  0.26496  Biso   1.000  Cu
  Cu2      1.0000 0.47343  0.63634  0.73504  Biso   1.000  Cu
  O1       1.0000 0.74380  0.13130  0.24000  Biso   1.000  O
  O2       1.0000 0.25620  0.63130  0.76000  Biso   1.000  O
  O3       1.0000 0.45210  0.61320  0.43980  Biso   1.000  O
  O4       1.0000 0.54790  0.11320  0.56020  Biso   1.000  O
  O5       1.0000 0.92270  0.58020  0.19140  Biso   1.000  O
  O6       1.0000 0.07730  0.08020  0.80860  Biso   1.000  O
  O7       1.0000 0.28070  0.43320  0.46980  Biso   1.000  O
  O8       1.0000 0.71930  0.93320  0.53020  Biso   1.000  O
  O9       1.0000 0.21860  0.89590  0.01910  Biso   1.000  O
  O10      1.0000 0.78140  0.39590  0.98090  Biso   1.000  O
  O11      1.0000 0.38180  0.50650  0.28560  Biso   1.000  O
  O12      1.0000 0.61820  0.00650  0.71440  Biso   1.000  O
  O13      1.0000 0.21470  0.63610  0.52300  Biso   1.000  O
  O14      1.0000 0.78530  0.13610  0.47700  Biso   1.000  O
  O15      1.0000 0.71230  0.78020  0.14950  Biso   1.000  O
  O16      1.0000 0.28770  0.28020  0.85050  Biso   1.000  O
  O17      1.0000 0.63240  0.62480  0.01970  Biso   1.000  O
  O18      1.0000 0.36760  0.12480  0.98030  Biso   1.000  O
  O19      1.0000 0.24600  0.68970  0.95980  Biso   1.000  O
  O20      1.0000 0.75400  0.18970  0.04020  Biso   1.000  O
  O21      1.0000 0.38010  0.62140  0.13110  Biso   1.000  O
  O22      1.0000 0.61990  0.12140  0.86890  Biso   1.000  O
  O23      1.0000 0.50000  0.73900  0.27790  Biso   1.000  O
  O24      1.0000 0.50000  0.23900  0.72210  Biso   1.000  O
  O25      1.0000 0.52220  0.26660  0.18540  Biso   1.000  O
  O26      1.0000 0.47780  0.76660  0.81460  Biso   1.000  O
  O27      1.0000 0.62200  0.57230  0.21320  Biso   1.000  O
  O28      1.0000 0.37800  0.07230  0.78680  Biso   1.000  O
  O29      1.0000 0.52020  0.00520  0.34110  Biso   1.000  O
  O30      1.0000 0.47980  0.50520  0.65890  Biso   1.000  O
  O31      1.0000 0.30120  0.25790  0.19300  Biso   1.000  O
  O32      1.0000 0.69880  0.75790  0.80700  Biso   1.000  O
  O33      1.0000 0.46050  0.79500  0.06550  Biso   1.000  O
  O34      1.0000 0.53950  0.29500  0.93450  Biso   1.000  O
  O35      1.0000 0.98640  0.74990  0.30390  Biso   1.000  O
  O36      1.0000 0.01360  0.24990  0.69610  Biso   1.000  O
  O37      1.0000 0.17980  0.51450  0.17160  Biso   1.000  O
  O38      1.0000 0.82020  0.01450  0.82840  Biso   1.000  O
  O39      1.0000 0.25960  0.69950  0.31810  Biso   1.000  O
  O40      1.0000 0.74040  0.19950  0.68190  Biso   1.000  O
  O41      1.0000 0.10250  0.54890  0.35230  Biso   1.000  O
  O42      1.0000 0.89750  0.04890  0.64770  Biso   1.000  O
  O43      1.0000 0.31830  0.05610  0.38810  Biso   1.000  O
  O44      1.0000 0.68170  0.55610  0.61190  Biso   1.000  O
  O45      1.0000 0.31250  0.85640  0.21120  Biso   1.000  O
  O46      1.0000 0.68750  0.35640  0.78880  Biso   1.000  O
  O47      1.0000 0.62950  0.44670  0.37720  Biso   1.000  O
  O48      1.0000 0.37050  0.94670  0.62280  Biso   1.000  O
  O49      1.0000 0.12080  0.72600  0.13390  Biso   1.000  O
  O50      1.0000 0.87920  0.22600  0.86610  Biso   1.000  O
  O51      1.0000 0.71160  0.65570  0.39850  Biso   1.000  O
  O52      1.0000 0.28840  0.15570  0.60150  Biso   1.000  O
  C1       1.0000 0.39650  0.40750  0.10990  Biso   1.000  C
  C2       1.0000 0.60350  0.90750  0.89010  Biso   1.000  C
  H1       1.0000 0.33990  0.39640  0.05090  Biso   1.000  H
  H2       1.0000 0.66010  0.89640  0.94910  Biso   1.000  H
  H3       1.0000 0.48580  0.42810  0.08940  Biso   1.000  H
  H4       1.0000 0.51420  0.92810  0.91060  Biso   1.000  H
  C3       1.0000 0.40650  0.30200  0.16520  Biso   1.000  C
  C4       1.0000 0.59350  0.80200  0.83480  Biso   1.000  C
  C5       1.0000 0.38280  0.87030  0.40490  Biso   1.000  C
  C6       1.0000 0.61720  0.37030  0.59510  Biso   1.000  C
  H5       1.0000 0.30190  0.86550  0.44290  Biso   1.000  H
  H6       1.0000 0.69810  0.36550  0.55710  Biso   1.000  H
  H7       1.0000 0.45830  0.84320  0.44550  Biso   1.000  H
  H8       1.0000 0.54170  0.34320  0.55450  Biso   1.000  H
  C7       1.0000 0.40740  0.98670  0.37730  Biso   1.000  C
  C8       1.0000 0.59260  0.48670  0.62270  Biso   1.000  C
  O53      1.0000 0.48950  0.04070  0.14760  Biso   1.000  O
  O54      1.0000 0.51050  0.54070  0.85240  Biso   1.000  O
  O55      1.0000 0.51600  0.23170  0.38440  Biso   1.000  O
  O56      1.0000 0.48400  0.73170  0.61560  Biso   1.000  O
  O57      1.0000 0.83490  0.55290  0.81200  Biso   1.000  O
  O58      1.0000 0.16510  0.05290  0.18800  Biso   1.000  O
  O59      1.0000 0.92560  0.89840  0.08830  Biso   1.000  O
  O60      1.0000 0.07440  0.39840  0.91170  Biso   1.000  O
  O61      1.0000 0.95830  0.79520  0.89780  Biso   1.000  O
  O62      1.0000 0.04170  0.29520  0.10220  Biso   1.000  O
  O63      1.0000 0.91600  0.51220  0.49730  Biso   1.000  O
  O64      1.0000 0.08400  0.01220  0.50270  Biso   1.000  O
  O65      1.0000 0.96470  0.04040  0.31990  Biso   1.000  O
  O66      1.0000 0.03530  0.54040  0.68010  Biso   1.000  O
  O67      1.0000 0.93640  0.30870  0.39050  Biso   1.000  O
  O68      1.0000 0.06360  0.80870  0.60950  Biso   1.000  O
