data_image0
_cell_length_a       8.3413
_cell_length_b       20.8899
_cell_length_c       20.6589
_cell_angle_alpha    90
_cell_angle_beta     95.853
_cell_angle_gamma    90

_symmetry_space_group_name_H-M    "P 1"
_symmetry_int_tables_number       1

loop_
  _symmetry_equiv_pos_as_xyz
  'x, y, z'

loop_
  _atom_site_label
  _atom_site_occupancy
  _atom_site_fract_x
  _atom_site_fract_y
  _atom_site_fract_z
  _atom_site_thermal_displace_type
  _atom_site_B_iso_or_equiv
  _atom_site_type_symbol
  Mo1      1.0000 0.39535  0.05950  0.80224  Biso   1.000  Mo
  Mo2      1.0000 0.60465  0.55950  0.69776  Biso   1.000  Mo
  Mo3      1.0000 0.60465  0.94050  0.19776  Biso   1.000  Mo
  Mo4      1.0000 0.39535  0.44050  0.30224  Biso   1.000  Mo
  Mo5      1.0000 0.51711  0.21559  0.80484  Biso   1.000  Mo
  Mo6      1.0000 0.48289  0.71559  0.69516  Biso   1.000  Mo
  Mo7      1.0000 0.48289  0.78441  0.19516  Biso   1.000  Mo
  Mo8      1.0000 0.51711  0.28441  0.30484  Biso   1.000  Mo
  Mo9      1.0000 0.56630  0.26791  0.65272  Biso   1.000  Mo
  Mo10     1.0000 0.43370  0.76791  0.84728  Biso   1.000  Mo
  Mo11     1.0000 0.43370  0.73209  0.34728  Biso   1.000  Mo
  Mo12     1.0000 0.56630  0.23209  0.15272  Biso   1.000  Mo
  Mo13     1.0000 0.50076  0.14159  0.54945  Biso   1.000  Mo
  Mo14     1.0000 0.49924  0.64159  0.95055  Biso   1.000  Mo
  Mo15     1.0000 0.49924  0.85841  0.45055  Biso   1.000  Mo
  Mo16     1.0000 0.50076  0.35841  0.04945  Biso   1.000  Mo
  Mo17     1.0000 0.32344  0.01459  0.64372  Biso   1.000  Mo
  Mo18     1.0000 0.67656  0.51459  0.85628  Biso   1.000  Mo
  Mo19     1.0000 0.67656  0.98541  0.35628  Biso   1.000  Mo
  Mo20     1.0000 0.32344  0.48541  0.14372  Biso   1.000  Mo
  Cu1      1.0000 0.87832  0.88907  0.72536  Biso   1.000  Cu
  Cu2      1.0000 0.12168  0.38907  0.77464  Biso   1.000  Cu
  Cu3      1.0000 0.12168  0.11093  0.27464  Biso   1.000  Cu
  Cu4      1.0000 0.87832  0.61093  0.22536  Biso   1.000  Cu
  P1       1.0000 0.67270  0.10976  0.69764  Biso   1.000  P
  P2       1.0000 0.32730  0.60976  0.80236  Biso   1.000  P
  P3       1.0000 0.32730  0.89024  0.30236  Biso   1.000  P
  P4       1.0000 0.67270  0.39024  0.19764  Biso   1.000  P
  P5       1.0000 0.24350  0.16717  0.67740  Biso   1.000  P
  P6       1.0000 0.75650  0.66717  0.82260  Biso   1.000  P
  P7       1.0000 0.75650  0.83283  0.32260  Biso   1.000  P
  P8       1.0000 0.24350  0.33283  0.17740  Biso   1.000  P
  C1       1.0000 0.85430  0.08450  0.74610  Biso   1.000  C
  C2       1.0000 0.14570  0.58450  0.75390  Biso   1.000  C
  C3       1.0000 0.14570  0.91550  0.25390  Biso   1.000  C
  C4       1.0000 0.85430  0.41550  0.24610  Biso   1.000  C
  H1       1.0000 0.94830  0.09890  0.72430  Biso   1.000  H
  H2       1.0000 0.05170  0.59890  0.77570  Biso   1.000  H
  H3       1.0000 0.05170  0.90110  0.27570  Biso   1.000  H
  H4       1.0000 0.94830  0.40110  0.22430  Biso   1.000  H
  H5       1.0000 0.85950  0.10630  0.78880  Biso   1.000  H
  H6       1.0000 0.14050  0.60630  0.71120  Biso   1.000  H
  H7       1.0000 0.14050  0.89370  0.21120  Biso   1.000  H
  H8       1.0000 0.85950  0.39370  0.28880  Biso   1.000  H
  C5       1.0000 0.07020  0.21910  0.67120  Biso   1.000  C
  C6       1.0000 0.92980  0.71910  0.82880  Biso   1.000  C
  C7       1.0000 0.92980  0.78090  0.32880  Biso   1.000  C
  C8       1.0000 0.07020  0.28090  0.17120  Biso   1.000  C
  H9       1.0000 0.01970  0.21770  0.62570  Biso   1.000  H
  H10      1.0000 0.98030  0.71770  0.87430  Biso   1.000  H
  H11      1.0000 0.98030  0.78230  0.37430  Biso   1.000  H
  H12      1.0000 0.01970  0.28230  0.12570  Biso   1.000  H
  H13      1.0000 0.99120  0.20150  0.69910  Biso   1.000  H
  H14      1.0000 0.00880  0.70150  0.80090  Biso   1.000  H
  H15      1.0000 0.00880  0.79850  0.30090  Biso   1.000  H
  H16      1.0000 0.99120  0.29850  0.19910  Biso   1.000  H
  C9       1.0000 0.86890  0.01350  0.75760  Biso   1.000  C
  C10      1.0000 0.13110  0.51350  0.74240  Biso   1.000  C
  C11      1.0000 0.13110  0.98650  0.24240  Biso   1.000  C
  C12      1.0000 0.86890  0.48650  0.25760  Biso   1.000  C
  C13      1.0000 0.10080  0.28860  0.68980  Biso   1.000  C
  C14      1.0000 0.89920  0.78860  0.81020  Biso   1.000  C
  C15      1.0000 0.89920  0.71140  0.31020  Biso   1.000  C
  C16      1.0000 0.10080  0.21140  0.18980  Biso   1.000  C
  O1       1.0000 0.50460  0.99820  0.84020  Biso   1.000  O
  O2       1.0000 0.49540  0.49820  0.65980  Biso   1.000  O
  O3       1.0000 0.49540  0.00180  0.15980  Biso   1.000  O
  O4       1.0000 0.50460  0.50180  0.34020  Biso   1.000  O
  O5       1.0000 0.24510  0.07320  0.85120  Biso   1.000  O
  O6       1.0000 0.75490  0.57320  0.64880  Biso   1.000  O
  O7       1.0000 0.75490  0.92680  0.14880  Biso   1.000  O
  O8       1.0000 0.24510  0.42680  0.35120  Biso   1.000  O
  O9       1.0000 0.38950  0.24550  0.85740  Biso   1.000  O
  O10      1.0000 0.61050  0.74550  0.64260  Biso   1.000  O
  O11      1.0000 0.61050  0.75450  0.14260  Biso   1.000  O
  O12      1.0000 0.38950  0.25450  0.35740  Biso   1.000  O
  O13      1.0000 0.70270  0.24290  0.83640  Biso   1.000  O
  O14      1.0000 0.29730  0.74290  0.66360  Biso   1.000  O
  O15      1.0000 0.29730  0.75710  0.16360  Biso   1.000  O
  O16      1.0000 0.70270  0.25710  0.33640  Biso   1.000  O
  O17      1.0000 0.75060  0.30220  0.67530  Biso   1.000  O
  O18      1.0000 0.24940  0.80220  0.82470  Biso   1.000  O
  O19      1.0000 0.24940  0.69780  0.32470  Biso   1.000  O
  O20      1.0000 0.75060  0.19780  0.17530  Biso   1.000  O
  O21      1.0000 0.45740  0.32850  0.61350  Biso   1.000  O
  O22      1.0000 0.54260  0.82850  0.88650  Biso   1.000  O
  O23      1.0000 0.54260  0.67150  0.38650  Biso   1.000  O
  O24      1.0000 0.45740  0.17150  0.11350  Biso   1.000  O
  O25      1.0000 0.62020  0.11370  0.49260  Biso   1.000  O
  O26      1.0000 0.37980  0.61370  0.00740  Biso   1.000  O
  O27      1.0000 0.37980  0.88630  0.50740  Biso   1.000  O
  O28      1.0000 0.62020  0.38630  0.99260  Biso   1.000  O
  O29      1.0000 0.34330  0.17710  0.50260  Biso   1.000  O
  O30      1.0000 0.65670  0.67710  0.99740  Biso   1.000  O
  O31      1.0000 0.65670  0.82290  0.49740  Biso   1.000  O
  O32      1.0000 0.34330  0.32290  0.00260  Biso   1.000  O
  O33      1.0000 0.15400  0.98040  0.60370  Biso   1.000  O
  O34      1.0000 0.84600  0.48040  0.89630  Biso   1.000  O
  O35      1.0000 0.84600  0.01960  0.39630  Biso   1.000  O
  O36      1.0000 0.15400  0.51960  0.10370  Biso   1.000  O
  O37      1.0000 0.45840  0.95120  0.64800  Biso   1.000  O
  O38      1.0000 0.54160  0.45120  0.85200  Biso   1.000  O
  O39      1.0000 0.54160  0.04880  0.35200  Biso   1.000  O
  O40      1.0000 0.45840  0.54880  0.14800  Biso   1.000  O
  O41      1.0000 0.52660  0.06800  0.71390  Biso   1.000  O
  O42      1.0000 0.47340  0.56800  0.78610  Biso   1.000  O
  O43      1.0000 0.47340  0.93200  0.28610  Biso   1.000  O
  O44      1.0000 0.52660  0.43200  0.21390  Biso   1.000  O
  O45      1.0000 0.86210  0.97900  0.70530  Biso   1.000  O
  O46      1.0000 0.13790  0.47900  0.79470  Biso   1.000  O
  O47      1.0000 0.13790  0.02100  0.29470  Biso   1.000  O
  O48      1.0000 0.86210  0.52100  0.20530  Biso   1.000  O
  O49      1.0000 0.31010  0.16050  0.74880  Biso   1.000  O
  O50      1.0000 0.68990  0.66050  0.75120  Biso   1.000  O
  O51      1.0000 0.68990  0.83950  0.25120  Biso   1.000  O
  O52      1.0000 0.31010  0.33950  0.24880  Biso   1.000  O
  O53      1.0000 0.54400  0.12800  0.83160  Biso   1.000  O
  O54      1.0000 0.45600  0.62800  0.66840  Biso   1.000  O
  O55      1.0000 0.45600  0.87200  0.16840  Biso   1.000  O
  O56      1.0000 0.54400  0.37200  0.33160  Biso   1.000  O
  O57      1.0000 0.27100  0.01250  0.73320  Biso   1.000  O
  O58      1.0000 0.72900  0.51250  0.76680  Biso   1.000  O
  O59      1.0000 0.72900  0.98750  0.26680  Biso   1.000  O
  O60      1.0000 0.27100  0.48750  0.23320  Biso   1.000  O
  O61      1.0000 0.64740  0.18030  0.71710  Biso   1.000  O
  O62      1.0000 0.35260  0.68030  0.78290  Biso   1.000  O
  O63      1.0000 0.35260  0.81970  0.28290  Biso   1.000  O
  O64      1.0000 0.64740  0.31970  0.21710  Biso   1.000  O
  O65      1.0000 0.37030  0.19360  0.63560  Biso   1.000  O
  O66      1.0000 0.62970  0.69360  0.86440  Biso   1.000  O
  O67      1.0000 0.62970  0.80640  0.36440  Biso   1.000  O
  O68      1.0000 0.37030  0.30640  0.13560  Biso   1.000  O
  O69      1.0000 0.88710  0.99060  0.81310  Biso   1.000  O
  O70      1.0000 0.11290  0.49060  0.68690  Biso   1.000  O
  O71      1.0000 0.11290  0.00940  0.18690  Biso   1.000  O
  O72      1.0000 0.88710  0.50940  0.31310  Biso   1.000  O
  O73      1.0000 0.46840  0.27530  0.73410  Biso   1.000  O
  O74      1.0000 0.53160  0.77530  0.76590  Biso   1.000  O
  O75      1.0000 0.53160  0.72470  0.26590  Biso   1.000  O
  O76      1.0000 0.46840  0.22470  0.23410  Biso   1.000  O
  O77      1.0000 0.69300  0.10300  0.62570  Biso   1.000  O
  O78      1.0000 0.30700  0.60300  0.87430  Biso   1.000  O
  O79      1.0000 0.30700  0.89700  0.37430  Biso   1.000  O
  O80      1.0000 0.69300  0.39700  0.12570  Biso   1.000  O
  O81      1.0000 0.18040  0.10390  0.65030  Biso   1.000  O
  O82      1.0000 0.81960  0.60390  0.84970  Biso   1.000  O
  O83      1.0000 0.81960  0.89610  0.34970  Biso   1.000  O
  O84      1.0000 0.18040  0.39610  0.15030  Biso   1.000  O
  O85      1.0000 0.10240  0.29970  0.75130  Biso   1.000  O
  O86      1.0000 0.89760  0.79970  0.74870  Biso   1.000  O
  O87      1.0000 0.89760  0.70030  0.24870  Biso   1.000  O
  O88      1.0000 0.10240  0.20030  0.25130  Biso   1.000  O
  O89      1.0000 0.61850  0.21810  0.57980  Biso   1.000  O
  O90      1.0000 0.38150  0.71810  0.92020  Biso   1.000  O
  O91      1.0000 0.38150  0.78190  0.42020  Biso   1.000  O
  O92      1.0000 0.61850  0.28190  0.07980  Biso   1.000  O
  O93      1.0000 0.11930  0.32960  0.64810  Biso   1.000  O
  O94      1.0000 0.88070  0.82960  0.85190  Biso   1.000  O
  O95      1.0000 0.88070  0.67040  0.35190  Biso   1.000  O
  O96      1.0000 0.11930  0.17040  0.14810  Biso   1.000  O
  O97      1.0000 0.40410  0.06410  0.57540  Biso   1.000  O
  O98      1.0000 0.59590  0.56410  0.92460  Biso   1.000  O
  O99      1.0000 0.59590  0.93590  0.42460  Biso   1.000  O
  O100     1.0000 0.40410  0.43590  0.07540  Biso   1.000  O
  Rb1      1.0000 0.84880  0.15689  0.41045  Biso   1.000  Rb
  Rb2      1.0000 0.15120  0.65689  0.08955  Biso   1.000  Rb
  Rb3      1.0000 0.15120  0.84311  0.58955  Biso   1.000  Rb
  Rb4      1.0000 0.84880  0.34311  0.91045  Biso   1.000  Rb
  Rb5      1.0000 0.76720  0.98260  0.55800  Biso   1.000  Rb
  Rb6      1.0000 0.23280  0.48260  0.94200  Biso   1.000  Rb
  Rb7      1.0000 0.23280  0.01740  0.44200  Biso   1.000  Rb
  Rb8      1.0000 0.76720  0.51740  0.05800  Biso   1.000  Rb
  Na1      1.0000 0.70650  0.91846  0.85986  Biso   1.000  Na
  Na2      1.0000 0.29350  0.41846  0.64014  Biso   1.000  Na
  Na3      1.0000 0.29350  0.08154  0.14014  Biso   1.000  Na
  Na4      1.0000 0.70650  0.58154  0.35986  Biso   1.000  Na
  Na5      1.0000 0.00000  0.00000  0.50000  Biso   1.000  Na
  Na6      1.0000 0.00000  0.50000  0.00000  Biso   1.000  Na
  Na7      1.0000 0.14630  0.13890  0.93470  Biso   1.000  Na
  Na8      1.0000 0.85370  0.63890  0.56530  Biso   1.000  Na
  Na9      1.0000 0.85370  0.86110  0.06530  Biso   1.000  Na
  Na10     1.0000 0.14630  0.36110  0.43470  Biso   1.000  Na
  Na11     1.0000 0.20100  0.16060  0.92210  Biso   1.000  Na
  Na12     1.0000 0.79900  0.66060  0.57790  Biso   1.000  Na
  Na13     1.0000 0.79900  0.83940  0.07790  Biso   1.000  Na
  Na14     1.0000 0.20100  0.33940  0.42210  Biso   1.000  Na
  Na15     1.0000 0.02100  0.02090  0.90610  Biso   1.000  Na
  Na16     1.0000 0.97900  0.52090  0.59390  Biso   1.000  Na
  Na17     1.0000 0.97900  0.97910  0.09390  Biso   1.000  Na
  Na18     1.0000 0.02100  0.47910  0.40610  Biso   1.000  Na
  O101     1.0000 0.82700  0.86410  0.62110  Biso   1.000  O
  O102     1.0000 0.17300  0.36410  0.87890  Biso   1.000  O
  O103     1.0000 0.17300  0.13590  0.37890  Biso   1.000  O
  O104     1.0000 0.82700  0.63590  0.12110  Biso   1.000  O
  O105     1.0000 0.12340  0.89310  0.73220  Biso   1.000  O
  O106     1.0000 0.87660  0.39310  0.76780  Biso   1.000  O
  O107     1.0000 0.87660  0.10690  0.26780  Biso   1.000  O
  O108     1.0000 0.12340  0.60690  0.23220  Biso   1.000  O
  O109     1.0000 0.64520  0.89080  0.74430  Biso   1.000  O
  O110     1.0000 0.35480  0.39080  0.75570  Biso   1.000  O
  O111     1.0000 0.35480  0.10920  0.25570  Biso   1.000  O
  O112     1.0000 0.64520  0.60920  0.24430  Biso   1.000  O
  O113     1.0000 0.96820  0.10770  0.53780  Biso   1.000  O
  O114     1.0000 0.03180  0.60770  0.96220  Biso   1.000  O
  O115     1.0000 0.03180  0.89230  0.46220  Biso   1.000  O
  O116     1.0000 0.96820  0.39230  0.03780  Biso   1.000  O
  O117     1.0000 0.03750  0.21500  0.85680  Biso   1.000  O
  O118     1.0000 0.96250  0.71500  0.64320  Biso   1.000  O
  O119     1.0000 0.96250  0.78500  0.14320  Biso   1.000  O
  O120     1.0000 0.03750  0.28500  0.35680  Biso   1.000  O
  O121     1.0000 0.16120  0.92510  0.90440  Biso   1.000  O
  O122     1.0000 0.83880  0.42510  0.59560  Biso   1.000  O
  O123     1.0000 0.83880  0.07490  0.09560  Biso   1.000  O
  O124     1.0000 0.16120  0.57490  0.40440  Biso   1.000  O
  O125     1.0000 0.81080  0.94290  0.97570  Biso   1.000  O
  O126     1.0000 0.18920  0.44290  0.52430  Biso   1.000  O
  O127     1.0000 0.18920  0.05710  0.02430  Biso   1.000  O
  O128     1.0000 0.81080  0.55710  0.47570  Biso   1.000  O
  O129     1.0000 0.13310  0.28160  0.52050  Biso   1.000  O
  O130     1.0000 0.86690  0.78160  0.97950  Biso   1.000  O
  O131     1.0000 0.86690  0.71840  0.47950  Biso   1.000  O
  O132     1.0000 0.13310  0.21840  0.02050  Biso   1.000  O
  O133     1.0000 0.42450  0.16360  0.97060  Biso   1.000  O
  O134     1.0000 0.57550  0.66360  0.52940  Biso   1.000  O
  O135     1.0000 0.57550  0.83640  0.02940  Biso   1.000  O
  O136     1.0000 0.42450  0.33640  0.47060  Biso   1.000  O
  O137     1.0000 0.67150  0.12670  0.94600  Biso   1.000  O
  O138     1.0000 0.32850  0.62670  0.55400  Biso   1.000  O
  O139     1.0000 0.32850  0.87330  0.05400  Biso   1.000  O
  O140     1.0000 0.67150  0.37330  0.44600  Biso   1.000  O
  O141     1.0000 0.80180  0.27650  0.49120  Biso   1.000  O
  O142     1.0000 0.19820  0.77650  0.00880  Biso   1.000  O
  O143     1.0000 0.19820  0.72350  0.50880  Biso   1.000  O
  O144     1.0000 0.80180  0.22350  0.99120  Biso   1.000  O
  O145     1.0000 0.90200  0.08190  0.91920  Biso   1.000  O
  O146     1.0000 0.09800  0.58190  0.58080  Biso   1.000  O
  O147     1.0000 0.09800  0.91810  0.08080  Biso   1.000  O
  O148     1.0000 0.90200  0.41810  0.41920  Biso   1.000  O
  O149     1.0000 0.62100  0.04140  0.00480  Biso   1.000  O
  O150     1.0000 0.37900  0.54140  0.49520  Biso   1.000  O
  O151     1.0000 0.37900  0.95860  0.99520  Biso   1.000  O
  O152     1.0000 0.62100  0.45860  0.50480  Biso   1.000  O
