data_image0
_cell_length_a       9.504
_cell_length_b       10.65
_cell_length_c       11.993
_cell_angle_alpha    72.13
_cell_angle_beta     76.02
_cell_angle_gamma    65.4

_symmetry_space_group_name_H-M    "P 1"
_symmetry_int_tables_number       1

loop_
  _symmetry_equiv_pos_as_xyz
  'x, y, z'

loop_
  _atom_site_label
  _atom_site_occupancy
  _atom_site_fract_x
  _atom_site_fract_y
  _atom_site_fract_z
  _atom_site_thermal_displace_type
  _atom_site_B_iso_or_equiv
  _atom_site_type_symbol
  V1       1.0000 0.08233  0.09602  0.28365  Biso   1.000  V
  V2       1.0000 0.91767  0.90398  0.71635  Biso   1.000  V
  V3       1.0000 0.78846  0.18729  0.50308  Biso   1.000  V
  V4       1.0000 0.21154  0.81271  0.49692  Biso   1.000  V
  Cu1      1.0000 0.50000  0.50000  0.50000  Biso   1.000  Cu
  Cu2      1.0000 0.00000  0.00000  0.00000  Biso   1.000  Cu
  O1       1.0000 0.87800  0.25640  0.54670  Biso   1.000  O
  O2       1.0000 0.12200  0.74360  0.45330  Biso   1.000  O
  O3       1.0000 0.60240  0.30500  0.48580  Biso   1.000  O
  O4       1.0000 0.39760  0.69500  0.51420  Biso   1.000  O
  O5       1.0000 0.88430  0.14650  0.36250  Biso   1.000  O
  O6       1.0000 0.11570  0.85350  0.63750  Biso   1.000  O
  O7       1.0000 0.13530  0.23130  0.22410  Biso   1.000  O
  O8       1.0000 0.86470  0.76870  0.77590  Biso   1.000  O
  O9       1.0000 0.78180  0.03160  0.61350  Biso   1.000  O
  O10      1.0000 0.21820  0.96840  0.38650  Biso   1.000  O
  O11      1.0000 0.08540  0.02760  0.17630  Biso   1.000  O
  O12      1.0000 0.91460  0.97240  0.82370  Biso   1.000  O
  C1       1.0000 0.61530  0.48380  0.25100  Biso   1.000  C
  C2       1.0000 0.38470  0.51620  0.74900  Biso   1.000  C
  H1       1.0000 0.64410  0.38560  0.27040  Biso   1.000  H
  H2       1.0000 0.35590  0.61440  0.72960  Biso   1.000  H
  C3       1.0000 0.53320  0.70140  0.26540  Biso   1.000  C
  C4       1.0000 0.46680  0.29860  0.73460  Biso   1.000  C
  H3       1.0000 0.49350  0.78150  0.29630  Biso   1.000  H
  H4       1.0000 0.50650  0.21850  0.70370  Biso   1.000  H
  C5       1.0000 0.58180  0.69880  0.14880  Biso   1.000  C
  C6       1.0000 0.41820  0.30120  0.85120  Biso   1.000  C
  H5       1.0000 0.58140  0.77670  0.08640  Biso   1.000  H
  H6       1.0000 0.41860  0.22330  0.91360  Biso   1.000  H
  C7       1.0000 0.68490  0.51270  0.02960  Biso   1.000  C
  C8       1.0000 0.31510  0.48730  0.97040  Biso   1.000  C
  H7       1.0000 0.74500  0.41130  0.04730  Biso   1.000  H
  H8       1.0000 0.25500  0.58870  0.95270  Biso   1.000  H
  H9       1.0000 0.75290  0.55980  0.97780  Biso   1.000  H
  H10      1.0000 0.24710  0.44020  0.02220  Biso   1.000  H
  C9       1.0000 0.55030  0.54250  0.96670  Biso   1.000  C
  C10      1.0000 0.44970  0.45750  0.03330  Biso   1.000  C
  H11      1.0000 0.48590  0.64280  0.95470  Biso   1.000  H
  H12      1.0000 0.51410  0.35720  0.04530  Biso   1.000  H
  H13      1.0000 0.59140  0.52120  0.88950  Biso   1.000  H
  H14      1.0000 0.40860  0.47880  0.11050  Biso   1.000  H
  C11      1.0000 0.72960  0.08180  0.18830  Biso   1.000  C
  C12      1.0000 0.27040  0.91820  0.81170  Biso   1.000  C
  H15      1.0000 0.79100  0.09310  0.23140  Biso   1.000  H
  H16      1.0000 0.20900  0.90690  0.76860  Biso   1.000  H
  C13      1.0000 0.65590  0.04270  0.05120  Biso   1.000  C
  C14      1.0000 0.34410  0.95730  0.94880  Biso   1.000  C
  H17      1.0000 0.65600  0.02260  0.98100  Biso   1.000  H
  H18      1.0000 0.34400  0.97740  0.01900  Biso   1.000  H
  C15      1.0000 0.53180  0.06710  0.13940  Biso   1.000  C
  C16      1.0000 0.46820  0.93290  0.86060  Biso   1.000  C
  H19      1.0000 0.43410  0.06620  0.14040  Biso   1.000  H
  H20      1.0000 0.56590  0.93380  0.85960  Biso   1.000  H
  C17      1.0000 0.49260  0.11680  0.34130  Biso   1.000  C
  C18      1.0000 0.50740  0.88320  0.65870  Biso   1.000  C
  H21      1.0000 0.38290  0.14060  0.33920  Biso   1.000  H
  H22      1.0000 0.61710  0.85940  0.66080  Biso   1.000  H
  H23      1.0000 0.50280  0.19680  0.35660  Biso   1.000  H
  H24      1.0000 0.49720  0.80320  0.64340  Biso   1.000  H
  C19      1.0000 0.54880  0.98720  0.44110  Biso   1.000  C
  C20      1.0000 0.45120  0.01280  0.55890  Biso   1.000  C
  H25      1.0000 0.65730  0.96550  0.44570  Biso   1.000  H
  H26      1.0000 0.34270  0.03450  0.55430  Biso   1.000  H
  H27      1.0000 0.54210  0.90630  0.42490  Biso   1.000  H
  H28      1.0000 0.45790  0.09370  0.57510  Biso   1.000  H
  C21      1.0000 0.98670  0.59540  0.15250  Biso   1.000  C
  C22      1.0000 0.01330  0.40460  0.84750  Biso   1.000  C
  H29      1.0000 0.95400  0.52140  0.16120  Biso   1.000  H
  H30      1.0000 0.04600  0.47860  0.83880  Biso   1.000  H
  C23      1.0000 0.09030  0.73010  0.18240  Biso   1.000  C
  C24      1.0000 0.90970  0.26990  0.81760  Biso   1.000  C
  H31      1.0000 0.14120  0.76350  0.21720  Biso   1.000  H
  H32      1.0000 0.85880  0.23650  0.78280  Biso   1.000  H
  C25      1.0000 0.96280  0.71310  0.06490  Biso   1.000  C
  C26      1.0000 0.03720  0.28690  0.93510  Biso   1.000  C
  H33      1.0000 0.90970  0.73440  0.00160  Biso   1.000  H
  H34      1.0000 0.09030  0.26560  0.99840  Biso   1.000  H
  C27      1.0000 0.10920  0.50820  0.34130  Biso   1.000  C
  C28      1.0000 0.89080  0.49180  0.65870  Biso   1.000  C
  H35      1.0000 0.19860  0.51540  0.36060  Biso   1.000  H
  H36      1.0000 0.80140  0.48460  0.63940  Biso   1.000  H
  H37      1.0000 0.13810  0.41140  0.33570  Biso   1.000  H
  H38      1.0000 0.86190  0.58860  0.66430  Biso   1.000  H
  C29      1.0000 0.97330  0.54180  0.43970  Biso   1.000  C
  C30      1.0000 0.02670  0.45820  0.56030  Biso   1.000  C
  H39      1.0000 0.89070  0.51780  0.42840  Biso   1.000  H
  H40      1.0000 0.10930  0.48220  0.57160  Biso   1.000  H
  H41      1.0000 0.93200  0.64280  0.43640  Biso   1.000  H
  H42      1.0000 0.06800  0.35720  0.56360  Biso   1.000  H
  N1       1.0000 0.55360  0.56380  0.32940  Biso   1.000  N
  N2       1.0000 0.44640  0.43620  0.67060  Biso   1.000  N
  N3       1.0000 0.63090  0.56200  0.14030  Biso   1.000  N
  N4       1.0000 0.36910  0.43800  0.85970  Biso   1.000  N
  N5       1.0000 0.77890  0.05260  0.08280  Biso   1.000  N
  N6       1.0000 0.22110  0.94740  0.91720  Biso   1.000  N
  N7       1.0000 0.58120  0.09330  0.22560  Biso   1.000  N
  N8       1.0000 0.41880  0.90670  0.77440  Biso   1.000  N
  N9       1.0000 0.02890  0.79800  0.08270  Biso   1.000  N
  N10      1.0000 0.97110  0.20200  0.91730  Biso   1.000  N
  N11      1.0000 0.06880  0.60570  0.22680  Biso   1.000  N
  N12      1.0000 0.93120  0.39430  0.77320  Biso   1.000  N
