data_image0
_cell_length_a       9.649
_cell_length_b       7.772
_cell_length_c       9.865
_cell_angle_alpha    90
_cell_angle_beta     103.1
_cell_angle_gamma    90

_symmetry_space_group_name_H-M    "P 1"
_symmetry_int_tables_number       1

loop_
  _symmetry_equiv_pos_as_xyz
  'x, y, z'

loop_
  _atom_site_label
  _atom_site_occupancy
  _atom_site_fract_x
  _atom_site_fract_y
  _atom_site_fract_z
  _atom_site_thermal_displace_type
  _atom_site_B_iso_or_equiv
  _atom_site_type_symbol
  Cu1      1.0000 0.36427  0.27410  0.12400  Biso   1.000  Cu
  Cu2      1.0000 0.63573  0.77410  0.87600  Biso   1.000  Cu
  N1       1.0000 0.55480  0.36700  0.20890  Biso   1.000  N
  N2       1.0000 0.44520  0.86700  0.79110  Biso   1.000  N
  C1       1.0000 0.55700  0.41900  0.35400  Biso   1.000  C
  C2       1.0000 0.44300  0.91900  0.64600  Biso   1.000  C
  C3       1.0000 0.40500  0.44300  0.37400  Biso   1.000  C
  C4       1.0000 0.59500  0.94300  0.62600  Biso   1.000  C
  O1       1.0000 0.30440  0.40200  0.27570  Biso   1.000  O
  O2       1.0000 0.69560  0.90200  0.72430  Biso   1.000  O
  O3       1.0000 0.39210  0.50900  0.48450  Biso   1.000  O
  O4       1.0000 0.60790  0.00900  0.51550  Biso   1.000  O
  O5       1.0000 0.68640  0.02500  0.02820  Biso   1.000  O
  O6       1.0000 0.31360  0.52500  0.97180  Biso   1.000  O
  O7       1.0000 0.47010  0.13620  0.01210  Biso   1.000  O
  O8       1.0000 0.52990  0.63620  0.98790  Biso   1.000  O
  C5       1.0000 0.66100  0.24100  0.18800  Biso   1.000  C
  C6       1.0000 0.33900  0.74100  0.81200  Biso   1.000  C
  C7       1.0000 0.60220  0.12500  0.06700  Biso   1.000  C
  C8       1.0000 0.39780  0.62500  0.93300  Biso   1.000  C
  N3       1.0000 0.95820  0.09700  0.99400  Biso   1.000  N
  N4       1.0000 0.04180  0.59700  0.00600  Biso   1.000  N
  C9       1.0000 0.07000  0.15000  0.08800  Biso   1.000  C
  C10      1.0000 0.93000  0.65000  0.91200  Biso   1.000  C
  N5       1.0000 0.17800  0.18900  0.03050  Biso   1.000  N
  N6       1.0000 0.82200  0.68900  0.96950  Biso   1.000  N
  C11      1.0000 0.12800  0.16300  0.89100  Biso   1.000  C
  C12      1.0000 0.87200  0.66300  0.10900  Biso   1.000  C
  C13      1.0000 0.99300  0.10400  0.86900  Biso   1.000  C
  C14      1.0000 0.00700  0.60400  0.13100  Biso   1.000  C
  O9       1.0000 0.39300  0.02800  0.28630  Biso   1.000  O
  O10      1.0000 0.60700  0.52800  0.71370  Biso   1.000  O
  C15      1.0000 0.37000  0.86200  0.23300  Biso   1.000  C
  C16      1.0000 0.63000  0.36200  0.76700  Biso   1.000  C
  O11      1.0000 0.89800  0.83900  0.47700  Biso   1.000  O
  O12      1.0000 0.10200  0.33900  0.52300  Biso   1.000  O
