data_image0
_cell_length_a       5.0638
_cell_length_b       8.3475
_cell_length_c       18.744
_cell_angle_alpha    90
_cell_angle_beta     93.09
_cell_angle_gamma    90

_symmetry_space_group_name_H-M    "P 1"
_symmetry_int_tables_number       1

loop_
  _symmetry_equiv_pos_as_xyz
  'x, y, z'

loop_
  _atom_site_label
  _atom_site_occupancy
  _atom_site_fract_x
  _atom_site_fract_y
  _atom_site_fract_z
  _atom_site_thermal_displace_type
  _atom_site_B_iso_or_equiv
  _atom_site_type_symbol
  Cu1      1.0000 0.07234  0.47937  0.79632  Biso   1.000  Cu
  Cu2      1.0000 0.92766  0.97937  0.20368  Biso   1.000  Cu
  O1       1.0000 0.30130  0.57600  0.72940  Biso   1.000  O
  O2       1.0000 0.69870  0.07600  0.27060  Biso   1.000  O
  N1       1.0000 0.93130  0.34080  0.72260  Biso   1.000  N
  N2       1.0000 0.06870  0.84080  0.27740  Biso   1.000  N
  O3       1.0000 0.75950  0.41450  0.84610  Biso   1.000  O
  O4       1.0000 0.24050  0.91450  0.15390  Biso   1.000  O
  N3       1.0000 0.20070  0.62510  0.87480  Biso   1.000  N
  N4       1.0000 0.79930  0.12510  0.12520  Biso   1.000  N
  O5       1.0000 0.96670  0.05980  0.83280  Biso   1.000  O
  O6       1.0000 0.03330  0.55980  0.16720  Biso   1.000  O
  H1       1.0000 0.10200  0.11400  0.82800  Biso   1.000  H
  H2       1.0000 0.89800  0.61400  0.17200  Biso   1.000  H
  C1       1.0000 0.18030  0.43500  0.62250  Biso   1.000  C
  C2       1.0000 0.81970  0.93500  0.37750  Biso   1.000  C
  C3       1.0000 0.61560  0.30970  0.81230  Biso   1.000  C
  C4       1.0000 0.38440  0.80970  0.18770  Biso   1.000  C
  C5       1.0000 0.40520  0.80760  0.98860  Biso   1.000  C
  C6       1.0000 0.59480  0.30760  0.01140  Biso   1.000  C
  H3       1.0000 0.47550  0.86910  0.02780  Biso   1.000  H
  H4       1.0000 0.52450  0.36910  0.97220  Biso   1.000  H
  C7       1.0000 0.20260  0.70050  0.99780  Biso   1.000  C
  C8       1.0000 0.79740  0.20050  0.00220  Biso   1.000  C
  H5       1.0000 0.13180  0.68730  0.04330  Biso   1.000  H
  H6       1.0000 0.86820  0.18730  0.95670  Biso   1.000  H
  C9       1.0000 0.10420  0.61310  0.94000  Biso   1.000  C
  C10      1.0000 0.89580  0.11310  0.06000  Biso   1.000  C
  H7       1.0000 0.96210  0.54120  0.94650  Biso   1.000  H
  H8       1.0000 0.03790  0.04120  0.05350  Biso   1.000  H
  O7       1.0000 0.39470  0.26690  0.83340  Biso   1.000  O
  O8       1.0000 0.60530  0.76690  0.16660  Biso   1.000  O
  C11      1.0000 0.32470  0.55370  0.66260  Biso   1.000  C
  C12      1.0000 0.67530  0.05370  0.33740  Biso   1.000  C
  C13      1.0000 0.71990  0.23210  0.74540  Biso   1.000  C
  C14      1.0000 0.28010  0.73210  0.25460  Biso   1.000  C
  H9       1.0000 0.57520  0.22480  0.70700  Biso   1.000  H
  H10      1.0000 0.42480  0.72480  0.29300  Biso   1.000  H
  C15      1.0000 0.97110  0.97970  0.70760  Biso   1.000  C
  C16      1.0000 0.02890  0.47970  0.29240  Biso   1.000  C
  H11      1.0000 0.86370  0.98210  0.66250  Biso   1.000  H
  H12      1.0000 0.13630  0.48210  0.33750  Biso   1.000  H
  H13      1.0000 0.00720  0.86820  0.72130  Biso   1.000  H
  H14      1.0000 0.99280  0.36820  0.27870  Biso   1.000  H
  H15      1.0000 0.13850  0.03570  0.70160  Biso   1.000  H
  H16      1.0000 0.86150  0.53570  0.29840  Biso   1.000  H
  C17      1.0000 0.98400  0.34140  0.65510  Biso   1.000  C
  C18      1.0000 0.01600  0.84140  0.34490  Biso   1.000  C
  H17      1.0000 0.88070  0.27220  0.62460  Biso   1.000  H
  H18      1.0000 0.11930  0.77220  0.37540  Biso   1.000  H
  C19      1.0000 0.39920  0.73330  0.86640  Biso   1.000  C
  C20      1.0000 0.60080  0.23330  0.13360  Biso   1.000  C
  H19      1.0000 0.46700  0.74620  0.82050  Biso   1.000  H
  H20      1.0000 0.53300  0.24620  0.17950  Biso   1.000  H
  C21      1.0000 0.50430  0.82450  0.92240  Biso   1.000  C
  C22      1.0000 0.49570  0.32450  0.07760  Biso   1.000  C
  H21      1.0000 0.64360  0.89800  0.91520  Biso   1.000  H
  H22      1.0000 0.35640  0.39800  0.08480  Biso   1.000  H
  C23      1.0000 0.82080  0.06240  0.76610  Biso   1.000  C
  C24      1.0000 0.17920  0.56240  0.23390  Biso   1.000  C
  H23      1.0000 0.65940  0.99600  0.77250  Biso   1.000  H
  H24      1.0000 0.34060  0.49600  0.22750  Biso   1.000  H
  O9       1.0000 0.40340  0.46970  0.51580  Biso   1.000  O
  O10      1.0000 0.59660  0.96970  0.48420  Biso   1.000  O
  C25      1.0000 0.51810  0.66540  0.63020  Biso   1.000  C
  C26      1.0000 0.48190  0.16540  0.36980  Biso   1.000  C
  H25      1.0000 0.52570  0.64220  0.57910  Biso   1.000  H
  H26      1.0000 0.47430  0.14220  0.42090  Biso   1.000  H
  H27      1.0000 0.69380  0.65040  0.65370  Biso   1.000  H
  H28      1.0000 0.30620  0.15040  0.34630  Biso   1.000  H
  H29      1.0000 0.46090  0.77640  0.63650  Biso   1.000  H
  H30      1.0000 0.53910  0.27640  0.36350  Biso   1.000  H
  C27      1.0000 0.22050  0.40840  0.54750  Biso   1.000  C
  C28      1.0000 0.77950  0.90840  0.45250  Biso   1.000  C
  C29      1.0000 0.03010  0.30280  0.50420  Biso   1.000  C
  C30      1.0000 0.96990  0.80280  0.49580  Biso   1.000  C
  H31      1.0000 0.08300  0.29790  0.45470  Biso   1.000  H
  H32      1.0000 0.91700  0.79790  0.54530  Biso   1.000  H
  H33      1.0000 0.85120  0.34720  0.50520  Biso   1.000  H
  H34      1.0000 0.14880  0.84720  0.49480  Biso   1.000  H
  H35      1.0000 0.03260  0.19470  0.52470  Biso   1.000  H
  H36      1.0000 0.96740  0.69470  0.47530  Biso   1.000  H
