data_image0
_cell_length_a       5.263
_cell_length_b       8.2163
_cell_length_c       16.4551
_cell_angle_alpha    90
_cell_angle_beta     90.243
_cell_angle_gamma    90

_symmetry_space_group_name_H-M    "P 1"
_symmetry_int_tables_number       1

loop_
  _symmetry_equiv_pos_as_xyz
  'x, y, z'

loop_
  _atom_site_label
  _atom_site_occupancy
  _atom_site_fract_x
  _atom_site_fract_y
  _atom_site_fract_z
  _atom_site_thermal_displace_type
  _atom_site_B_iso_or_equiv
  _atom_site_type_symbol
  C1       1.0000 0.82950  0.40340  0.01420  Biso   1.000  C
  C2       1.0000 0.17050  0.90340  0.98580  Biso   1.000  C
  H1       1.0000 0.87540  0.48260  0.97310  Biso   1.000  H
  H2       1.0000 0.12460  0.98260  0.02690  Biso   1.000  H
  H3       1.0000 0.66650  0.43230  0.03740  Biso   1.000  H
  H4       1.0000 0.33350  0.93230  0.96260  Biso   1.000  H
  H5       1.0000 0.81840  0.29630  0.98970  Biso   1.000  H
  H6       1.0000 0.18160  0.79630  0.01030  Biso   1.000  H
  C3       1.0000 0.03130  0.40200  0.08100  Biso   1.000  C
  C4       1.0000 0.96870  0.90200  0.91900  Biso   1.000  C
  C5       1.0000 0.00290  0.29070  0.14940  Biso   1.000  C
  C6       1.0000 0.99710  0.79070  0.85060  Biso   1.000  C
  C7       1.0000 0.15920  0.30270  0.22060  Biso   1.000  C
  C8       1.0000 0.84080  0.80270  0.77940  Biso   1.000  C
  C9       1.0000 0.36130  0.43070  0.23100  Biso   1.000  C
  C10      1.0000 0.63870  0.93070  0.76900  Biso   1.000  C
  H7       1.0000 0.36880  0.49750  0.18240  Biso   1.000  H
  H8       1.0000 0.63120  0.99750  0.81760  Biso   1.000  H
  H9       1.0000 0.52450  0.37860  0.23970  Biso   1.000  H
  H10      1.0000 0.47550  0.87860  0.76030  Biso   1.000  H
  H11      1.0000 0.32090  0.49850  0.27740  Biso   1.000  H
  H12      1.0000 0.67910  0.99850  0.72260  Biso   1.000  H
  C11      1.0000 0.80730  0.16740  0.14410  Biso   1.000  C
  C12      1.0000 0.19270  0.66740  0.85590  Biso   1.000  C
  H13      1.0000 0.71290  0.16380  0.09560  Biso   1.000  H
  H14      1.0000 0.28710  0.66380  0.90440  Biso   1.000  H
  C13      1.0000 0.54040  0.94540  0.18240  Biso   1.000  C
  C14      1.0000 0.45960  0.44540  0.81760  Biso   1.000  C
  H15      1.0000 0.40390  0.99900  0.15070  Biso   1.000  H
  H16      1.0000 0.59610  0.49900  0.84930  Biso   1.000  H
  C15      1.0000 0.43820  0.89010  0.26490  Biso   1.000  C
  C16      1.0000 0.56180  0.39010  0.73510  Biso   1.000  C
  C17      1.0000 0.63960  0.79630  0.13640  Biso   1.000  C
  C18      1.0000 0.36040  0.29630  0.86360  Biso   1.000  C
  H17      1.0000 0.50030  0.72190  0.12590  Biso   1.000  H
  H18      1.0000 0.49970  0.22190  0.87410  Biso   1.000  H
  H19      1.0000 0.76820  0.74200  0.16890  Biso   1.000  H
  H20      1.0000 0.23180  0.24200  0.83110  Biso   1.000  H
  H21      1.0000 0.71310  0.83080  0.08520  Biso   1.000  H
  H22      1.0000 0.28690  0.33080  0.91480  Biso   1.000  H
  N1       1.0000 0.97330  0.04410  0.42456  Biso   1.000  N
  N2       1.0000 0.02670  0.54410  0.57544  Biso   1.000  N
  C19      1.0000 0.83900  0.97380  0.47900  Biso   1.000  C
  C20      1.0000 0.16100  0.47380  0.52100  Biso   1.000  C
  H23      1.0000 0.69940  0.91110  0.46150  Biso   1.000  H
  H24      1.0000 0.30060  0.41110  0.53850  Biso   1.000  H
  C21      1.0000 0.88500  0.98400  0.56180  Biso   1.000  C
  C22      1.0000 0.11500  0.48400  0.43820  Biso   1.000  C
  H25      1.0000 0.78160  0.92300  0.59700  Biso   1.000  H
  H26      1.0000 0.21840  0.42300  0.40300  Biso   1.000  H
  C23      1.0000 0.05660  0.07060  0.59180  Biso   1.000  C
  C24      1.0000 0.94340  0.57060  0.40820  Biso   1.000  C
  H27      1.0000 0.08200  0.06700  0.64400  Biso   1.000  H
  H28      1.0000 0.91800  0.56700  0.35600  Biso   1.000  H
  C25      1.0000 0.24500  0.14180  0.53500  Biso   1.000  C
  C26      1.0000 0.75500  0.64180  0.46500  Biso   1.000  C
  H29      1.0000 0.39180  0.19520  0.55420  Biso   1.000  H
  H30      1.0000 0.60820  0.69520  0.44580  Biso   1.000  H
  C27      1.0000 0.19750  0.12640  0.45340  Biso   1.000  C
  C28      1.0000 0.80250  0.62640  0.54660  Biso   1.000  C
  H31      1.0000 0.31260  0.17020  0.41580  Biso   1.000  H
  H32      1.0000 0.68740  0.67020  0.58420  Biso   1.000  H
  N3       1.0000 0.74860  0.06220  0.19886  Biso   1.000  N
  N4       1.0000 0.25140  0.56220  0.80114  Biso   1.000  N
  O1       1.0000 0.13780  0.20960  0.28216  Biso   1.000  O
  O2       1.0000 0.86220  0.70960  0.71784  Biso   1.000  O
  O3       1.0000 0.21790  0.83870  0.27110  Biso   1.000  O
  O4       1.0000 0.78210  0.33870  0.72890  Biso   1.000  O
  O5       1.0000 0.59480  0.89990  0.32516  Biso   1.000  O
  O6       1.0000 0.40520  0.39990  0.67484  Biso   1.000  O
  O7       1.0000 0.20890  0.49830  0.07402  Biso   1.000  O
  O8       1.0000 0.79110  0.99830  0.92598  Biso   1.000  O
  Cu1      1.0000 0.89438  0.03650  0.30484  Biso   1.000  Cu
  Cu2      1.0000 0.10562  0.53650  0.69516  Biso   1.000  Cu
  C29      1.0000 0.78520  0.12780  0.47100  Biso   1.000  C
  C30      1.0000 0.21480  0.62780  0.52900  Biso   1.000  C
  H33      1.0000 0.64350  0.17430  0.44490  Biso   1.000  H
  H34      1.0000 0.35650  0.67430  0.55510  Biso   1.000  H
  C31      1.0000 0.81350  0.14020  0.55600  Biso   1.000  C
  C32      1.0000 0.18650  0.64020  0.44400  Biso   1.000  C
  H35      1.0000 0.68880  0.18890  0.58870  Biso   1.000  H
  H36      1.0000 0.31120  0.68890  0.41130  Biso   1.000  H
  C33      1.0000 0.19700  0.98470  0.54610  Biso   1.000  C
  C34      1.0000 0.80300  0.48470  0.45390  Biso   1.000  C
  H37      1.0000 0.33340  0.92650  0.56900  Biso   1.000  H
  H38      1.0000 0.66660  0.42650  0.43100  Biso   1.000  H
  C35      1.0000 0.15180  0.97510  0.46130  Biso   1.000  C
  C36      1.0000 0.84820  0.47510  0.53870  Biso   1.000  C
  H39      1.0000 0.26450  0.91200  0.43030  Biso   1.000  H
  H40      1.0000 0.73550  0.41200  0.56970  Biso   1.000  H
