data_image0
_cell_length_a       14.849
_cell_length_b       13.7459
_cell_length_c       9.3362
_cell_angle_alpha    90
_cell_angle_beta     90
_cell_angle_gamma    90

_symmetry_space_group_name_H-M    "P 1"
_symmetry_int_tables_number       1

loop_
  _symmetry_equiv_pos_as_xyz
  'x, y, z'

loop_
  _atom_site_label
  _atom_site_occupancy
  _atom_site_fract_x
  _atom_site_fract_y
  _atom_site_fract_z
  _atom_site_thermal_displace_type
  _atom_site_B_iso_or_equiv
  _atom_site_type_symbol
  Cu1      1.0000 0.89600  0.01965  0.14109  Biso   1.000  Cu
  Cu2      1.0000 0.60400  0.98035  0.64109  Biso   1.000  Cu
  Cu3      1.0000 0.39600  0.98035  0.35891  Biso   1.000  Cu
  Cu4      1.0000 0.10400  0.01965  0.85891  Biso   1.000  Cu
  O1       1.0000 0.99471  0.98647  0.26716  Biso   1.000  O
  O2       1.0000 0.50529  0.01353  0.76716  Biso   1.000  O
  O3       1.0000 0.49471  0.01353  0.23284  Biso   1.000  O
  O4       1.0000 0.00529  0.98647  0.73284  Biso   1.000  O
  O5       1.0000 0.81547  0.04514  0.97754  Biso   1.000  O
  O6       1.0000 0.68453  0.95486  0.47754  Biso   1.000  O
  O7       1.0000 0.31547  0.95486  0.52246  Biso   1.000  O
  O8       1.0000 0.18453  0.04514  0.02246  Biso   1.000  O
  C1       1.0000 0.92727  0.81371  0.13110  Biso   1.000  C
  C2       1.0000 0.57273  0.18629  0.63110  Biso   1.000  C
  C3       1.0000 0.42727  0.18629  0.36890  Biso   1.000  C
  C4       1.0000 0.07273  0.81371  0.86890  Biso   1.000  C
  H1       1.0000 0.91240  0.75280  0.09200  Biso   1.000  H
  H2       1.0000 0.58760  0.24720  0.59200  Biso   1.000  H
  H3       1.0000 0.41240  0.24720  0.40800  Biso   1.000  H
  H4       1.0000 0.08760  0.75280  0.90800  Biso   1.000  H
  N1       1.0000 0.91768  0.16106  0.16930  Biso   1.000  N
  N2       1.0000 0.58232  0.83894  0.66930  Biso   1.000  N
  N3       1.0000 0.41768  0.83894  0.33070  Biso   1.000  N
  N4       1.0000 0.08232  0.16106  0.83070  Biso   1.000  N
  N5       1.0000 0.87698  0.88650  0.09310  Biso   1.000  N
  N6       1.0000 0.62302  0.11350  0.59310  Biso   1.000  N
  N7       1.0000 0.37698  0.11350  0.40690  Biso   1.000  N
  N8       1.0000 0.12302  0.88650  0.90690  Biso   1.000  N
  C5       1.0000 0.03061  0.90390  0.29410  Biso   1.000  C
  C6       1.0000 0.46939  0.09610  0.79410  Biso   1.000  C
  C7       1.0000 0.53061  0.09610  0.20590  Biso   1.000  C
  C8       1.0000 0.96939  0.90390  0.70590  Biso   1.000  C
  O9       1.0000 0.12977  0.72187  0.30020  Biso   1.000  O
  O10      1.0000 0.37023  0.27813  0.80020  Biso   1.000  O
  O11      1.0000 0.62977  0.27813  0.19980  Biso   1.000  O
  O12      1.0000 0.87023  0.72187  0.69980  Biso   1.000  O
  C9       1.0000 0.10146  0.90817  0.40910  Biso   1.000  C
  C10      1.0000 0.39854  0.09183  0.90910  Biso   1.000  C
  C11      1.0000 0.60146  0.09183  0.09090  Biso   1.000  C
  C12      1.0000 0.89854  0.90817  0.59090  Biso   1.000  C
  H5       1.0000 0.12670  0.84380  0.42350  Biso   1.000  H
  H6       1.0000 0.37330  0.15620  0.92350  Biso   1.000  H
  H7       1.0000 0.62670  0.15620  0.07650  Biso   1.000  H
  H8       1.0000 0.87330  0.84380  0.57650  Biso   1.000  H
  H9       1.0000 0.07450  0.93080  0.49770  Biso   1.000  H
  H10      1.0000 0.42550  0.06920  0.99770  Biso   1.000  H
  H11      1.0000 0.57450  0.06920  0.00230  Biso   1.000  H
  H12      1.0000 0.92550  0.93080  0.50230  Biso   1.000  H
  H13      1.0000 0.14880  0.95260  0.38030  Biso   1.000  H
  H14      1.0000 0.35120  0.04740  0.88030  Biso   1.000  H
  H15      1.0000 0.64880  0.04740  0.11970  Biso   1.000  H
  H16      1.0000 0.85120  0.95260  0.61970  Biso   1.000  H
  C13      1.0000 0.72727  0.74481  0.15880  Biso   1.000  C
  C14      1.0000 0.77273  0.25519  0.65880  Biso   1.000  C
  C15      1.0000 0.22727  0.25519  0.34120  Biso   1.000  C
  C16      1.0000 0.27273  0.74481  0.84120  Biso   1.000  C
  C17      1.0000 0.84604  0.22074  0.17060  Biso   1.000  C
  C18      1.0000 0.65396  0.77926  0.67060  Biso   1.000  C
  C19      1.0000 0.34604  0.77926  0.32940  Biso   1.000  C
  C20      1.0000 0.15396  0.22074  0.82940  Biso   1.000  C
  H17      1.0000 0.78830  0.19370  0.15940  Biso   1.000  H
  H18      1.0000 0.71170  0.80630  0.65940  Biso   1.000  H
  H19      1.0000 0.28830  0.80630  0.34060  Biso   1.000  H
  H20      1.0000 0.21170  0.19370  0.84060  Biso   1.000  H
  C21      1.0000 0.00322  0.81608  0.22630  Biso   1.000  C
  C22      1.0000 0.49678  0.18392  0.72630  Biso   1.000  C
  C23      1.0000 0.50322  0.18392  0.27370  Biso   1.000  C
  C24      1.0000 0.99678  0.81608  0.77370  Biso   1.000  C
  C25      1.0000 0.79923  0.87209  0.99840  Biso   1.000  C
  C26      1.0000 0.70077  0.12791  0.49840  Biso   1.000  C
  C27      1.0000 0.29923  0.12791  0.50160  Biso   1.000  C
  C28      1.0000 0.20077  0.87209  0.00160  Biso   1.000  C
  H21      1.0000 0.81360  0.82230  0.92540  Biso   1.000  H
  H22      1.0000 0.68640  0.17770  0.42540  Biso   1.000  H
  H23      1.0000 0.31360  0.17770  0.57460  Biso   1.000  H
  H24      1.0000 0.18640  0.82230  0.07460  Biso   1.000  H
  C29      1.0000 0.71451  0.84087  0.08410  Biso   1.000  C
  C30      1.0000 0.78549  0.15913  0.58410  Biso   1.000  C
  C31      1.0000 0.21451  0.15913  0.41590  Biso   1.000  C
  C32      1.0000 0.28549  0.84087  0.91590  Biso   1.000  C
  H25      1.0000 0.70050  0.89090  0.15540  Biso   1.000  H
  H26      1.0000 0.79950  0.10910  0.65540  Biso   1.000  H
  H27      1.0000 0.20050  0.10910  0.34460  Biso   1.000  H
  H28      1.0000 0.29950  0.89090  0.84460  Biso   1.000  H
  H29      1.0000 0.66310  0.83610  0.01860  Biso   1.000  H
  H30      1.0000 0.83690  0.16390  0.51860  Biso   1.000  H
  H31      1.0000 0.16310  0.16390  0.48140  Biso   1.000  H
  H32      1.0000 0.33690  0.83610  0.98140  Biso   1.000  H
  C33      1.0000 0.75710  0.74140  0.30100  Biso   1.000  C
  C34      1.0000 0.74290  0.25860  0.80100  Biso   1.000  C
  C35      1.0000 0.25710  0.25860  0.19900  Biso   1.000  C
  C36      1.0000 0.24290  0.74140  0.69900  Biso   1.000  C
  H33      1.0000 0.76790  0.79960  0.35100  Biso   1.000  H
  H34      1.0000 0.73210  0.20040  0.85100  Biso   1.000  H
  H35      1.0000 0.26790  0.20040  0.14900  Biso   1.000  H
  H36      1.0000 0.23210  0.79960  0.64900  Biso   1.000  H
  C37      1.0000 0.93900  0.35950  0.20010  Biso   1.000  C
  C38      1.0000 0.56100  0.64050  0.70010  Biso   1.000  C
  C39      1.0000 0.43900  0.64050  0.29990  Biso   1.000  C
  C40      1.0000 0.06100  0.35950  0.79990  Biso   1.000  C
  H37      1.0000 0.94640  0.42690  0.21160  Biso   1.000  H
  H38      1.0000 0.55360  0.57310  0.71160  Biso   1.000  H
  H39      1.0000 0.44640  0.57310  0.28840  Biso   1.000  H
  H40      1.0000 0.05360  0.42690  0.78840  Biso   1.000  H
  C41      1.0000 0.05245  0.72520  0.25170  Biso   1.000  C
  C42      1.0000 0.44755  0.27480  0.75170  Biso   1.000  C
  C43      1.0000 0.55245  0.27480  0.24830  Biso   1.000  C
  C44      1.0000 0.94755  0.72520  0.74830  Biso   1.000  C
  C45      1.0000 0.01340  0.29910  0.19540  Biso   1.000  C
  C46      1.0000 0.48660  0.70090  0.69540  Biso   1.000  C
  C47      1.0000 0.51340  0.70090  0.30460  Biso   1.000  C
  C48      1.0000 0.98660  0.29910  0.80460  Biso   1.000  C
  H41      1.0000 0.07180  0.32500  0.20180  Biso   1.000  H
  H42      1.0000 0.42820  0.67500  0.70180  Biso   1.000  H
  H43      1.0000 0.57180  0.67500  0.29820  Biso   1.000  H
  H44      1.0000 0.92820  0.32500  0.79820  Biso   1.000  H
  C49      1.0000 0.77080  0.65259  0.36860  Biso   1.000  C
  C50      1.0000 0.72920  0.34741  0.86860  Biso   1.000  C
  C51      1.0000 0.27080  0.34741  0.13140  Biso   1.000  C
  C52      1.0000 0.22920  0.65259  0.63140  Biso   1.000  C
  H45      1.0000 0.79300  0.65100  0.46290  Biso   1.000  H
  H46      1.0000 0.70700  0.34900  0.96290  Biso   1.000  H
  H47      1.0000 0.29300  0.34900  0.03710  Biso   1.000  H
  H48      1.0000 0.20700  0.65100  0.53710  Biso   1.000  H
  C53      1.0000 0.00830  0.62840  0.21830  Biso   1.000  C
  C54      1.0000 0.49170  0.37160  0.71830  Biso   1.000  C
  C55      1.0000 0.50830  0.37160  0.28170  Biso   1.000  C
  C56      1.0000 0.99170  0.62840  0.78170  Biso   1.000  C
  H49      1.0000 0.94840  0.63950  0.18040  Biso   1.000  H
  H50      1.0000 0.55160  0.36050  0.68040  Biso   1.000  H
  H51      1.0000 0.44840  0.36050  0.31960  Biso   1.000  H
  H52      1.0000 0.05160  0.63950  0.81960  Biso   1.000  H
  H53      1.0000 0.00420  0.59000  0.30520  Biso   1.000  H
  H54      1.0000 0.49580  0.41000  0.80520  Biso   1.000  H
  H55      1.0000 0.50420  0.41000  0.19480  Biso   1.000  H
  H56      1.0000 0.99580  0.59000  0.69480  Biso   1.000  H
  H57      1.0000 0.04410  0.59370  0.14800  Biso   1.000  H
  H58      1.0000 0.45590  0.40630  0.64800  Biso   1.000  H
  H59      1.0000 0.54410  0.40630  0.35200  Biso   1.000  H
  H60      1.0000 0.95590  0.59370  0.85200  Biso   1.000  H
  C57      1.0000 0.75200  0.56690  0.29830  Biso   1.000  C
  C58      1.0000 0.74800  0.43310  0.79830  Biso   1.000  C
  C59      1.0000 0.25200  0.43310  0.20170  Biso   1.000  C
  C60      1.0000 0.24800  0.56690  0.70170  Biso   1.000  C
  H61      1.0000 0.75960  0.50700  0.34530  Biso   1.000  H
  H62      1.0000 0.74040  0.49300  0.84530  Biso   1.000  H
  H63      1.0000 0.25960  0.49300  0.15470  Biso   1.000  H
  H64      1.0000 0.24040  0.50700  0.65470  Biso   1.000  H
  C61      1.0000 0.71070  0.65720  0.08860  Biso   1.000  C
  C62      1.0000 0.78930  0.34280  0.58860  Biso   1.000  C
  C63      1.0000 0.21070  0.34280  0.41140  Biso   1.000  C
  C64      1.0000 0.28930  0.65720  0.91140  Biso   1.000  C
  H65      1.0000 0.69170  0.65780  0.99260  Biso   1.000  H
  H66      1.0000 0.80830  0.34220  0.49260  Biso   1.000  H
  H67      1.0000 0.19170  0.34220  0.50740  Biso   1.000  H
  H68      1.0000 0.30830  0.65780  0.00740  Biso   1.000  H
  C65      1.0000 0.85380  0.32000  0.18780  Biso   1.000  C
  C66      1.0000 0.64620  0.68000  0.68780  Biso   1.000  C
  C67      1.0000 0.35380  0.68000  0.31220  Biso   1.000  C
  C68      1.0000 0.14620  0.32000  0.81220  Biso   1.000  C
  H69      1.0000 0.80240  0.35980  0.19110  Biso   1.000  H
  H70      1.0000 0.69760  0.64020  0.69110  Biso   1.000  H
  H71      1.0000 0.30240  0.64020  0.30890  Biso   1.000  H
  H72      1.0000 0.19760  0.35980  0.80890  Biso   1.000  H
  C69      1.0000 0.72210  0.56950  0.15860  Biso   1.000  C
  C70      1.0000 0.77790  0.43050  0.65860  Biso   1.000  C
  C71      1.0000 0.22210  0.43050  0.34140  Biso   1.000  C
  C72      1.0000 0.27790  0.56950  0.84140  Biso   1.000  C
  H73      1.0000 0.70920  0.51100  0.11050  Biso   1.000  H
  H74      1.0000 0.79080  0.48900  0.61050  Biso   1.000  H
  H75      1.0000 0.20920  0.48900  0.38950  Biso   1.000  H
  H76      1.0000 0.29080  0.51100  0.88950  Biso   1.000  H
  C73      1.0000 0.00048  0.20030  0.18100  Biso   1.000  C
  C74      1.0000 0.49952  0.79970  0.68100  Biso   1.000  C
  C75      1.0000 0.50048  0.79970  0.31900  Biso   1.000  C
  C76      1.0000 0.99952  0.20030  0.81900  Biso   1.000  C
  H77      1.0000 0.05100  0.15910  0.17930  Biso   1.000  H
  H78      1.0000 0.44900  0.84090  0.67930  Biso   1.000  H
  H79      1.0000 0.55100  0.84090  0.32070  Biso   1.000  H
  H80      1.0000 0.94900  0.15910  0.82070  Biso   1.000  H
  O13      1.0000 0.72513  0.97018  0.82218  Biso   1.000  O
  O14      1.0000 0.77487  0.02982  0.32218  Biso   1.000  O
  O15      1.0000 0.22513  0.02982  0.67782  Biso   1.000  O
  O16      1.0000 0.27487  0.97018  0.17782  Biso   1.000  O
  C77      1.0000 0.77782  0.96976  0.92460  Biso   1.000  C
  C78      1.0000 0.72218  0.03024  0.42460  Biso   1.000  C
  C79      1.0000 0.27782  0.03024  0.57540  Biso   1.000  C
  C80      1.0000 0.22218  0.96976  0.07540  Biso   1.000  C
