data_image0
_cell_length_a       7.382
_cell_length_b       21.494
_cell_length_c       8.032
_cell_angle_alpha    90
_cell_angle_beta     94.26
_cell_angle_gamma    90

_symmetry_space_group_name_H-M    "P 1"
_symmetry_int_tables_number       1

loop_
  _symmetry_equiv_pos_as_xyz
  'x, y, z'

loop_
  _atom_site_label
  _atom_site_occupancy
  _atom_site_fract_x
  _atom_site_fract_y
  _atom_site_fract_z
  _atom_site_thermal_displace_type
  _atom_site_B_iso_or_equiv
  _atom_site_type_symbol
  Cu1      1.0000 0.01063  0.80549  0.77289  Biso   1.000  Cu
  Cu2      1.0000 0.48937  0.30549  0.22711  Biso   1.000  Cu
  Cu3      1.0000 0.98937  0.19451  0.22711  Biso   1.000  Cu
  Cu4      1.0000 0.51063  0.69451  0.77289  Biso   1.000  Cu
  Cl1      1.0000 0.79827  0.73780  0.65141  Biso   1.000  Cl
  Cl2      1.0000 0.70173  0.23780  0.34859  Biso   1.000  Cl
  Cl3      1.0000 0.20173  0.26220  0.34859  Biso   1.000  Cl
  Cl4      1.0000 0.29827  0.76220  0.65141  Biso   1.000  Cl
  N1       1.0000 0.03460  0.75700  0.98210  Biso   1.000  N
  N2       1.0000 0.46540  0.25700  0.01790  Biso   1.000  N
  N3       1.0000 0.96540  0.24300  0.01790  Biso   1.000  N
  N4       1.0000 0.53460  0.74300  0.98210  Biso   1.000  N
  C1       1.0000 0.05220  0.69420  0.97240  Biso   1.000  C
  C2       1.0000 0.44780  0.19420  0.02760  Biso   1.000  C
  C3       1.0000 0.94780  0.30580  0.02760  Biso   1.000  C
  C4       1.0000 0.55220  0.80580  0.97240  Biso   1.000  C
  C5       1.0000 0.03730  0.65600  0.10670  Biso   1.000  C
  C6       1.0000 0.46270  0.15600  0.89330  Biso   1.000  C
  C7       1.0000 0.96270  0.34400  0.89330  Biso   1.000  C
  C8       1.0000 0.53730  0.84400  0.10670  Biso   1.000  C
  C9       1.0000 0.99970  0.68280  0.25860  Biso   1.000  C
  C10      1.0000 0.50030  0.18280  0.74140  Biso   1.000  C
  C11      1.0000 0.00030  0.31720  0.74140  Biso   1.000  C
  C12      1.0000 0.49970  0.81720  0.25860  Biso   1.000  C
  C13      1.0000 0.98770  0.74550  0.27080  Biso   1.000  C
  C14      1.0000 0.51230  0.24550  0.72920  Biso   1.000  C
  C15      1.0000 0.01230  0.25450  0.72920  Biso   1.000  C
  C16      1.0000 0.48770  0.75450  0.27080  Biso   1.000  C
  C17      1.0000 0.01020  0.78280  0.13060  Biso   1.000  C
  C18      1.0000 0.48980  0.28280  0.86940  Biso   1.000  C
  C19      1.0000 0.98980  0.21720  0.86940  Biso   1.000  C
  C20      1.0000 0.51020  0.71720  0.13060  Biso   1.000  C
  N5       1.0000 0.00680  0.84620  0.14800  Biso   1.000  N
  N6       1.0000 0.49320  0.34620  0.85200  Biso   1.000  N
  N7       1.0000 0.99320  0.15380  0.85200  Biso   1.000  N
  N8       1.0000 0.50680  0.65380  0.14800  Biso   1.000  N
  C21      1.0000 0.09540  0.88980  0.05740  Biso   1.000  C
  C22      1.0000 0.40460  0.38980  0.94260  Biso   1.000  C
  C23      1.0000 0.90460  0.11020  0.94260  Biso   1.000  C
  C24      1.0000 0.59540  0.61020  0.05740  Biso   1.000  C
  C25      1.0000 0.15150  0.94590  0.13660  Biso   1.000  C
  C26      1.0000 0.34850  0.44590  0.86340  Biso   1.000  C
  C27      1.0000 0.84850  0.05410  0.86340  Biso   1.000  C
  C28      1.0000 0.65150  0.55410  0.13660  Biso   1.000  C
  C29      1.0000 0.24290  0.98850  0.04710  Biso   1.000  C
  C30      1.0000 0.25710  0.48850  0.95290  Biso   1.000  C
  C31      1.0000 0.75710  0.01150  0.95290  Biso   1.000  C
  C32      1.0000 0.74290  0.51150  0.04710  Biso   1.000  C
  C33      1.0000 0.28040  0.97570  0.88330  Biso   1.000  C
  C34      1.0000 0.21960  0.47570  0.11670  Biso   1.000  C
  C35      1.0000 0.71960  0.02430  0.11670  Biso   1.000  C
  C36      1.0000 0.78040  0.52430  0.88330  Biso   1.000  C
  C37      1.0000 0.21980  0.92040  0.81480  Biso   1.000  C
  C38      1.0000 0.28020  0.42040  0.18520  Biso   1.000  C
  C39      1.0000 0.78020  0.07960  0.18520  Biso   1.000  C
  C40      1.0000 0.71980  0.57960  0.81480  Biso   1.000  C
  N9       1.0000 0.12450  0.87830  0.89730  Biso   1.000  N
  N10      1.0000 0.37550  0.37830  0.10270  Biso   1.000  N
  N11      1.0000 0.87550  0.12170  0.10270  Biso   1.000  N
  N12      1.0000 0.62450  0.62170  0.89730  Biso   1.000  N
  N13      1.0000 0.84370  0.89330  0.55500  Biso   1.000  N
  N14      1.0000 0.65630  0.39330  0.44500  Biso   1.000  N
  N15      1.0000 0.15630  0.10670  0.44500  Biso   1.000  N
  N16      1.0000 0.34370  0.60670  0.55500  Biso   1.000  N
  O1       1.0000 0.98230  0.85670  0.56270  Biso   1.000  O
  O2       1.0000 0.51770  0.35670  0.43730  Biso   1.000  O
  O3       1.0000 0.01770  0.14330  0.43730  Biso   1.000  O
  O4       1.0000 0.48230  0.64330  0.56270  Biso   1.000  O
  O5       1.0000 0.80920  0.92180  0.42450  Biso   1.000  O
  O6       1.0000 0.69080  0.42180  0.57550  Biso   1.000  O
  O7       1.0000 0.19080  0.07820  0.57550  Biso   1.000  O
  O8       1.0000 0.30920  0.57820  0.42450  Biso   1.000  O
  O9       1.0000 0.75270  0.89800  0.67580  Biso   1.000  O
  O10      1.0000 0.74730  0.39800  0.32420  Biso   1.000  O
  O11      1.0000 0.24730  0.10200  0.32420  Biso   1.000  O
  O12      1.0000 0.25270  0.60200  0.67580  Biso   1.000  O
  O13      1.0000 0.06480  0.46940  0.52890  Biso   1.000  O
  O14      1.0000 0.43520  0.96940  0.47110  Biso   1.000  O
  O15      1.0000 0.93520  0.53060  0.47110  Biso   1.000  O
  O16      1.0000 0.56480  0.03060  0.52890  Biso   1.000  O
  H1       1.0000 0.07500  0.67100  0.87100  Biso   1.000  H
  H2       1.0000 0.42500  0.17100  0.12900  Biso   1.000  H
  H3       1.0000 0.92500  0.32900  0.12900  Biso   1.000  H
  H4       1.0000 0.57500  0.82900  0.87100  Biso   1.000  H
  H5       1.0000 0.04300  0.60500  0.09800  Biso   1.000  H
  H6       1.0000 0.45700  0.10500  0.90200  Biso   1.000  H
  H7       1.0000 0.95700  0.39500  0.90200  Biso   1.000  H
  H8       1.0000 0.54300  0.89500  0.09800  Biso   1.000  H
  H9       1.0000 0.97800  0.66200  0.35400  Biso   1.000  H
  H10      1.0000 0.52200  0.16200  0.64600  Biso   1.000  H
  H11      1.0000 0.02200  0.33800  0.64600  Biso   1.000  H
  H12      1.0000 0.47800  0.83800  0.35400  Biso   1.000  H
  H13      1.0000 0.96200  0.76700  0.37300  Biso   1.000  H
  H14      1.0000 0.53800  0.26700  0.62700  Biso   1.000  H
  H15      1.0000 0.03800  0.23300  0.62700  Biso   1.000  H
  H16      1.0000 0.46200  0.73300  0.37300  Biso   1.000  H
  H17      1.0000 0.99000  0.85700  0.25300  Biso   1.000  H
  H18      1.0000 0.51000  0.35700  0.74700  Biso   1.000  H
  H19      1.0000 0.01000  0.14300  0.74700  Biso   1.000  H
  H20      1.0000 0.49000  0.64300  0.25300  Biso   1.000  H
  H21      1.0000 0.11300  0.95300  0.25600  Biso   1.000  H
  H22      1.0000 0.38700  0.45300  0.74400  Biso   1.000  H
  H23      1.0000 0.88700  0.04700  0.74400  Biso   1.000  H
  H24      1.0000 0.61300  0.54700  0.25600  Biso   1.000  H
  H25      1.0000 0.29200  0.02700  0.11600  Biso   1.000  H
  H26      1.0000 0.20800  0.52700  0.88400  Biso   1.000  H
  H27      1.0000 0.70800  0.97300  0.88400  Biso   1.000  H
  H28      1.0000 0.79200  0.47300  0.11600  Biso   1.000  H
  H29      1.0000 0.35800  0.00400  0.81600  Biso   1.000  H
  H30      1.0000 0.14200  0.50400  0.18400  Biso   1.000  H
  H31      1.0000 0.64200  0.99600  0.18400  Biso   1.000  H
  H32      1.0000 0.85800  0.49600  0.81600  Biso   1.000  H
  H33      1.0000 0.23700  0.91500  0.68600  Biso   1.000  H
  H34      1.0000 0.26300  0.41500  0.31400  Biso   1.000  H
  H35      1.0000 0.76300  0.08500  0.31400  Biso   1.000  H
  H36      1.0000 0.73700  0.58500  0.68600  Biso   1.000  H
