data_image0
_cell_length_a       32.674
_cell_length_b       34.547
_cell_length_c       10.162
_cell_angle_alpha    90
_cell_angle_beta     90
_cell_angle_gamma    90

_symmetry_space_group_name_H-M    "P 1"
_symmetry_int_tables_number       1

loop_
  _symmetry_equiv_pos_as_xyz
  'x, y, z'

loop_
  _atom_site_label
  _atom_site_occupancy
  _atom_site_fract_x
  _atom_site_fract_y
  _atom_site_fract_z
  _atom_site_thermal_displace_type
  _atom_site_B_iso_or_equiv
  _atom_site_type_symbol
  Cu1      1.0000 0.03040  0.32660  0.07520  Biso   1.000  Cu
  Cu2      1.0000 0.03040  0.82660  0.57520  Biso   1.000  Cu
  Cu3      1.0000 0.53040  0.32660  0.57520  Biso   1.000  Cu
  Cu4      1.0000 0.53040  0.82660  0.07520  Biso   1.000  Cu
  Cu5      1.0000 0.21960  0.57660  0.32520  Biso   1.000  Cu
  Cu6      1.0000 0.21960  0.07660  0.82520  Biso   1.000  Cu
  Cu7      1.0000 0.71960  0.57660  0.82520  Biso   1.000  Cu
  Cu8      1.0000 0.71960  0.07660  0.32520  Biso   1.000  Cu
  Cu9      1.0000 0.28040  0.92340  0.32520  Biso   1.000  Cu
  Cu10     1.0000 0.28040  0.42340  0.82520  Biso   1.000  Cu
  Cu11     1.0000 0.78040  0.92340  0.82520  Biso   1.000  Cu
  Cu12     1.0000 0.78040  0.42340  0.32520  Biso   1.000  Cu
  Cu13     1.0000 0.46960  0.67340  0.57520  Biso   1.000  Cu
  Cu14     1.0000 0.46960  0.17340  0.07520  Biso   1.000  Cu
  Cu15     1.0000 0.96960  0.67340  0.07520  Biso   1.000  Cu
  Cu16     1.0000 0.96960  0.17340  0.57520  Biso   1.000  Cu
  Cl1      1.0000 0.05610  0.32760  0.27510  Biso   1.000  Cl
  Cl2      1.0000 0.05610  0.82760  0.77510  Biso   1.000  Cl
  Cl3      1.0000 0.55610  0.32760  0.77510  Biso   1.000  Cl
  Cl4      1.0000 0.55610  0.82760  0.27510  Biso   1.000  Cl
  Cl5      1.0000 0.19390  0.57760  0.52510  Biso   1.000  Cl
  Cl6      1.0000 0.19390  0.07760  0.02510  Biso   1.000  Cl
  Cl7      1.0000 0.69390  0.57760  0.02510  Biso   1.000  Cl
  Cl8      1.0000 0.69390  0.07760  0.52510  Biso   1.000  Cl
  Cl9      1.0000 0.30610  0.92240  0.52510  Biso   1.000  Cl
  Cl10     1.0000 0.30610  0.42240  0.02510  Biso   1.000  Cl
  Cl11     1.0000 0.80610  0.92240  0.02510  Biso   1.000  Cl
  Cl12     1.0000 0.80610  0.42240  0.52510  Biso   1.000  Cl
  Cl13     1.0000 0.44390  0.67240  0.77510  Biso   1.000  Cl
  Cl14     1.0000 0.44390  0.17240  0.27510  Biso   1.000  Cl
  Cl15     1.0000 0.94390  0.67240  0.27510  Biso   1.000  Cl
  Cl16     1.0000 0.94390  0.17240  0.77510  Biso   1.000  Cl
  Cl17     1.0000 0.01330  0.34430  0.87090  Biso   1.000  Cl
  Cl18     1.0000 0.01330  0.84430  0.37090  Biso   1.000  Cl
  Cl19     1.0000 0.51330  0.34430  0.37090  Biso   1.000  Cl
  Cl20     1.0000 0.51330  0.84430  0.87090  Biso   1.000  Cl
  Cl21     1.0000 0.23670  0.59430  0.12090  Biso   1.000  Cl
  Cl22     1.0000 0.23670  0.09430  0.62090  Biso   1.000  Cl
  Cl23     1.0000 0.73670  0.59430  0.62090  Biso   1.000  Cl
  Cl24     1.0000 0.73670  0.09430  0.12090  Biso   1.000  Cl
  Cl25     1.0000 0.26330  0.90570  0.12090  Biso   1.000  Cl
  Cl26     1.0000 0.26330  0.40570  0.62090  Biso   1.000  Cl
  Cl27     1.0000 0.76330  0.90570  0.62090  Biso   1.000  Cl
  Cl28     1.0000 0.76330  0.40570  0.12090  Biso   1.000  Cl
  Cl29     1.0000 0.48670  0.65570  0.37090  Biso   1.000  Cl
  Cl30     1.0000 0.48670  0.15570  0.87090  Biso   1.000  Cl
  Cl31     1.0000 0.98670  0.65570  0.87090  Biso   1.000  Cl
  Cl32     1.0000 0.98670  0.15570  0.37090  Biso   1.000  Cl
  S1       1.0000 0.08280  0.29040  0.97770  Biso   1.000  S
  S2       1.0000 0.08280  0.79040  0.47770  Biso   1.000  S
  S3       1.0000 0.58280  0.29040  0.47770  Biso   1.000  S
  S4       1.0000 0.58280  0.79040  0.97770  Biso   1.000  S
  S5       1.0000 0.16720  0.54040  0.22770  Biso   1.000  S
  S6       1.0000 0.16720  0.04040  0.72770  Biso   1.000  S
  S7       1.0000 0.66720  0.54040  0.72770  Biso   1.000  S
  S8       1.0000 0.66720  0.04040  0.22770  Biso   1.000  S
  S9       1.0000 0.33280  0.95960  0.22770  Biso   1.000  S
  S10      1.0000 0.33280  0.45960  0.72770  Biso   1.000  S
  S11      1.0000 0.83280  0.95960  0.72770  Biso   1.000  S
  S12      1.0000 0.83280  0.45960  0.22770  Biso   1.000  S
  S13      1.0000 0.41720  0.70960  0.47770  Biso   1.000  S
  S14      1.0000 0.41720  0.20960  0.97770  Biso   1.000  S
  S15      1.0000 0.91720  0.70960  0.97770  Biso   1.000  S
  S16      1.0000 0.91720  0.20960  0.47770  Biso   1.000  S
  S17      1.0000 0.19190  0.23900  0.34870  Biso   1.000  S
  S18      1.0000 0.19190  0.73900  0.84870  Biso   1.000  S
  S19      1.0000 0.69190  0.23900  0.84870  Biso   1.000  S
  S20      1.0000 0.69190  0.73900  0.34870  Biso   1.000  S
  S21      1.0000 0.05810  0.48900  0.59870  Biso   1.000  S
  S22      1.0000 0.05810  0.98900  0.09870  Biso   1.000  S
  S23      1.0000 0.55810  0.48900  0.09870  Biso   1.000  S
  S24      1.0000 0.55810  0.98900  0.59870  Biso   1.000  S
  S25      1.0000 0.44190  0.01100  0.59870  Biso   1.000  S
  S26      1.0000 0.44190  0.51100  0.09870  Biso   1.000  S
  S27      1.0000 0.94190  0.01100  0.09870  Biso   1.000  S
  S28      1.0000 0.94190  0.51100  0.59870  Biso   1.000  S
  S29      1.0000 0.30810  0.76100  0.84870  Biso   1.000  S
  S30      1.0000 0.30810  0.26100  0.34870  Biso   1.000  S
  S31      1.0000 0.80810  0.76100  0.34870  Biso   1.000  S
  S32      1.0000 0.80810  0.26100  0.84870  Biso   1.000  S
  S33      1.0000 0.22050  0.19180  0.25900  Biso   1.000  S
  S34      1.0000 0.22050  0.69180  0.75900  Biso   1.000  S
  S35      1.0000 0.72050  0.19180  0.75900  Biso   1.000  S
  S36      1.0000 0.72050  0.69180  0.25900  Biso   1.000  S
  S37      1.0000 0.02950  0.44180  0.50900  Biso   1.000  S
  S38      1.0000 0.02950  0.94180  0.00900  Biso   1.000  S
  S39      1.0000 0.52950  0.44180  0.00900  Biso   1.000  S
  S40      1.0000 0.52950  0.94180  0.50900  Biso   1.000  S
  S41      1.0000 0.47050  0.05820  0.50900  Biso   1.000  S
  S42      1.0000 0.47050  0.55820  0.00900  Biso   1.000  S
  S43      1.0000 0.97050  0.05820  0.00900  Biso   1.000  S
  S44      1.0000 0.97050  0.55820  0.50900  Biso   1.000  S
  S45      1.0000 0.27950  0.80820  0.75900  Biso   1.000  S
  S46      1.0000 0.27950  0.30820  0.25900  Biso   1.000  S
  S47      1.0000 0.77950  0.80820  0.25900  Biso   1.000  S
  S48      1.0000 0.77950  0.30820  0.75900  Biso   1.000  S
  S49      1.0000 0.03450  0.16390  0.66690  Biso   1.000  S
  S50      1.0000 0.03450  0.66390  0.16690  Biso   1.000  S
  S51      1.0000 0.53450  0.16390  0.16690  Biso   1.000  S
  S52      1.0000 0.53450  0.66390  0.66690  Biso   1.000  S
  S53      1.0000 0.21550  0.41390  0.91690  Biso   1.000  S
  S54      1.0000 0.21550  0.91390  0.41690  Biso   1.000  S
  S55      1.0000 0.71550  0.41390  0.41690  Biso   1.000  S
  S56      1.0000 0.71550  0.91390  0.91690  Biso   1.000  S
  S57      1.0000 0.28450  0.08610  0.91690  Biso   1.000  S
  S58      1.0000 0.28450  0.58610  0.41690  Biso   1.000  S
  S59      1.0000 0.78450  0.08610  0.41690  Biso   1.000  S
  S60      1.0000 0.78450  0.58610  0.91690  Biso   1.000  S
  S61      1.0000 0.46550  0.83610  0.16690  Biso   1.000  S
  S62      1.0000 0.46550  0.33610  0.66690  Biso   1.000  S
  S63      1.0000 0.96550  0.83610  0.66690  Biso   1.000  S
  S64      1.0000 0.96550  0.33610  0.16690  Biso   1.000  S
  S65      1.0000 0.14460  0.13090  0.27280  Biso   1.000  S
  S66      1.0000 0.14460  0.63090  0.77280  Biso   1.000  S
  S67      1.0000 0.64460  0.13090  0.77280  Biso   1.000  S
  S68      1.0000 0.64460  0.63090  0.27280  Biso   1.000  S
  S69      1.0000 0.10540  0.38090  0.52280  Biso   1.000  S
  S70      1.0000 0.10540  0.88090  0.02280  Biso   1.000  S
  S71      1.0000 0.60540  0.38090  0.02280  Biso   1.000  S
  S72      1.0000 0.60540  0.88090  0.52280  Biso   1.000  S
  S73      1.0000 0.39460  0.11910  0.52280  Biso   1.000  S
  S74      1.0000 0.39460  0.61910  0.02280  Biso   1.000  S
  S75      1.0000 0.89460  0.11910  0.02280  Biso   1.000  S
  S76      1.0000 0.89460  0.61910  0.52280  Biso   1.000  S
  S77      1.0000 0.35540  0.86910  0.77280  Biso   1.000  S
  S78      1.0000 0.35540  0.36910  0.27280  Biso   1.000  S
  S79      1.0000 0.85540  0.86910  0.27280  Biso   1.000  S
  S80      1.0000 0.85540  0.36910  0.77280  Biso   1.000  S
  S81      1.0000 0.20070  0.14410  0.35450  Biso   1.000  S
  S82      1.0000 0.20070  0.64410  0.85450  Biso   1.000  S
  S83      1.0000 0.70070  0.14410  0.85450  Biso   1.000  S
  S84      1.0000 0.70070  0.64410  0.35450  Biso   1.000  S
  S85      1.0000 0.04930  0.39410  0.60450  Biso   1.000  S
  S86      1.0000 0.04930  0.89410  0.10450  Biso   1.000  S
  S87      1.0000 0.54930  0.39410  0.10450  Biso   1.000  S
  S88      1.0000 0.54930  0.89410  0.60450  Biso   1.000  S
  S89      1.0000 0.45070  0.10590  0.60450  Biso   1.000  S
  S90      1.0000 0.45070  0.60590  0.10450  Biso   1.000  S
  S91      1.0000 0.95070  0.10590  0.10450  Biso   1.000  S
  S92      1.0000 0.95070  0.60590  0.60450  Biso   1.000  S
  S93      1.0000 0.29930  0.85590  0.85450  Biso   1.000  S
  S94      1.0000 0.29930  0.35590  0.35450  Biso   1.000  S
  S95      1.0000 0.79930  0.85590  0.35450  Biso   1.000  S
  S96      1.0000 0.79930  0.35590  0.85450  Biso   1.000  S
  N1       1.0000 0.08520  0.23710  0.17850  Biso   1.000  N
  N2       1.0000 0.08520  0.73710  0.67850  Biso   1.000  N
  N3       1.0000 0.58520  0.23710  0.67850  Biso   1.000  N
  N4       1.0000 0.58520  0.73710  0.17850  Biso   1.000  N
  N5       1.0000 0.16480  0.48710  0.42850  Biso   1.000  N
  N6       1.0000 0.16480  0.98710  0.92850  Biso   1.000  N
  N7       1.0000 0.66480  0.48710  0.92850  Biso   1.000  N
  N8       1.0000 0.66480  0.98710  0.42850  Biso   1.000  N
  N9       1.0000 0.33520  0.01290  0.42850  Biso   1.000  N
  N10      1.0000 0.33520  0.51290  0.92850  Biso   1.000  N
  N11      1.0000 0.83520  0.01290  0.92850  Biso   1.000  N
  N12      1.0000 0.83520  0.51290  0.42850  Biso   1.000  N
  N13      1.0000 0.41480  0.76290  0.67850  Biso   1.000  N
  N14      1.0000 0.41480  0.26290  0.17850  Biso   1.000  N
  N15      1.0000 0.91480  0.76290  0.17850  Biso   1.000  N
  N16      1.0000 0.91480  0.26290  0.67850  Biso   1.000  N
  N17      1.0000 0.14190  0.26910  0.15580  Biso   1.000  N
  N18      1.0000 0.14190  0.76910  0.65580  Biso   1.000  N
  N19      1.0000 0.64190  0.26910  0.65580  Biso   1.000  N
  N20      1.0000 0.64190  0.76910  0.15580  Biso   1.000  N
  N21      1.0000 0.10810  0.51910  0.40580  Biso   1.000  N
  N22      1.0000 0.10810  0.01910  0.90580  Biso   1.000  N
  N23      1.0000 0.60810  0.51910  0.90580  Biso   1.000  N
  N24      1.0000 0.60810  0.01910  0.40580  Biso   1.000  N
  N25      1.0000 0.39190  0.98090  0.40580  Biso   1.000  N
  N26      1.0000 0.39190  0.48090  0.90580  Biso   1.000  N
  N27      1.0000 0.89190  0.98090  0.90580  Biso   1.000  N
  N28      1.0000 0.89190  0.48090  0.40580  Biso   1.000  N
  N29      1.0000 0.35810  0.73090  0.65580  Biso   1.000  N
  N30      1.0000 0.35810  0.23090  0.15580  Biso   1.000  N
  N31      1.0000 0.85810  0.73090  0.15580  Biso   1.000  N
  N32      1.0000 0.85810  0.23090  0.65580  Biso   1.000  N
  N33      1.0000 0.07370  0.20170  0.47130  Biso   1.000  N
  N34      1.0000 0.07370  0.70170  0.97130  Biso   1.000  N
  N35      1.0000 0.57370  0.20170  0.97130  Biso   1.000  N
  N36      1.0000 0.57370  0.70170  0.47130  Biso   1.000  N
  N37      1.0000 0.17630  0.45170  0.72130  Biso   1.000  N
  N38      1.0000 0.17630  0.95170  0.22130  Biso   1.000  N
  N39      1.0000 0.67630  0.45170  0.22130  Biso   1.000  N
  N40      1.0000 0.67630  0.95170  0.72130  Biso   1.000  N
  N41      1.0000 0.32370  0.04830  0.72130  Biso   1.000  N
  N42      1.0000 0.32370  0.54830  0.22130  Biso   1.000  N
  N43      1.0000 0.82370  0.04830  0.22130  Biso   1.000  N
  N44      1.0000 0.82370  0.54830  0.72130  Biso   1.000  N
  N45      1.0000 0.42630  0.79830  0.97130  Biso   1.000  N
  N46      1.0000 0.42630  0.29830  0.47130  Biso   1.000  N
  N47      1.0000 0.92630  0.79830  0.47130  Biso   1.000  N
  N48      1.0000 0.92630  0.29830  0.97130  Biso   1.000  N
  N49      1.0000 0.09160  0.14260  0.48770  Biso   1.000  N
  N50      1.0000 0.09160  0.64260  0.98770  Biso   1.000  N
  N51      1.0000 0.59160  0.14260  0.98770  Biso   1.000  N
  N52      1.0000 0.59160  0.64260  0.48770  Biso   1.000  N
  N53      1.0000 0.15840  0.39260  0.73770  Biso   1.000  N
  N54      1.0000 0.15840  0.89260  0.23770  Biso   1.000  N
  N55      1.0000 0.65840  0.39260  0.23770  Biso   1.000  N
  N56      1.0000 0.65840  0.89260  0.73770  Biso   1.000  N
  N57      1.0000 0.34160  0.10740  0.73770  Biso   1.000  N
  N58      1.0000 0.34160  0.60740  0.23770  Biso   1.000  N
  N59      1.0000 0.84160  0.10740  0.23770  Biso   1.000  N
  N60      1.0000 0.84160  0.60740  0.73770  Biso   1.000  N
  N61      1.0000 0.40840  0.85740  0.98770  Biso   1.000  N
  N62      1.0000 0.40840  0.35740  0.48770  Biso   1.000  N
  N63      1.0000 0.90840  0.85740  0.48770  Biso   1.000  N
  N64      1.0000 0.90840  0.35740  0.98770  Biso   1.000  N
  C1       1.0000 0.10400  0.26540  0.10740  Biso   1.000  C
  C2       1.0000 0.10400  0.76540  0.60740  Biso   1.000  C
  C3       1.0000 0.60400  0.26540  0.60740  Biso   1.000  C
  C4       1.0000 0.60400  0.76540  0.10740  Biso   1.000  C
  C5       1.0000 0.14600  0.51540  0.35740  Biso   1.000  C
  C6       1.0000 0.14600  0.01540  0.85740  Biso   1.000  C
  C7       1.0000 0.64600  0.51540  0.85740  Biso   1.000  C
  C8       1.0000 0.64600  0.01540  0.35740  Biso   1.000  C
  C9       1.0000 0.35400  0.98460  0.35740  Biso   1.000  C
  C10      1.0000 0.35400  0.48460  0.85740  Biso   1.000  C
  C11      1.0000 0.85400  0.98460  0.85740  Biso   1.000  C
  C12      1.0000 0.85400  0.48460  0.35740  Biso   1.000  C
  C13      1.0000 0.39600  0.73460  0.60740  Biso   1.000  C
  C14      1.0000 0.39600  0.23460  0.10740  Biso   1.000  C
  C15      1.0000 0.89600  0.73460  0.10740  Biso   1.000  C
  C16      1.0000 0.89600  0.23460  0.60740  Biso   1.000  C
  C17      1.0000 0.14750  0.24240  0.25740  Biso   1.000  C
  C18      1.0000 0.14750  0.74240  0.75740  Biso   1.000  C
  C19      1.0000 0.64750  0.24240  0.75740  Biso   1.000  C
  C20      1.0000 0.64750  0.74240  0.25740  Biso   1.000  C
  C21      1.0000 0.10250  0.49240  0.50740  Biso   1.000  C
  C22      1.0000 0.10250  0.99240  0.00740  Biso   1.000  C
  C23      1.0000 0.60250  0.49240  0.00740  Biso   1.000  C
  C24      1.0000 0.60250  0.99240  0.50740  Biso   1.000  C
  C25      1.0000 0.39750  0.00760  0.50740  Biso   1.000  C
  C26      1.0000 0.39750  0.50760  0.00740  Biso   1.000  C
  C27      1.0000 0.89750  0.00760  0.00740  Biso   1.000  C
  C28      1.0000 0.89750  0.50760  0.50740  Biso   1.000  C
  C29      1.0000 0.35250  0.75760  0.75740  Biso   1.000  C
  C30      1.0000 0.35250  0.25760  0.25740  Biso   1.000  C
  C31      1.0000 0.85250  0.75760  0.25740  Biso   1.000  C
  C32      1.0000 0.85250  0.25760  0.75740  Biso   1.000  C
  C33      1.0000 0.11280  0.22380  0.27490  Biso   1.000  C
  C34      1.0000 0.11280  0.72380  0.77490  Biso   1.000  C
  C35      1.0000 0.61280  0.22380  0.77490  Biso   1.000  C
  C36      1.0000 0.61280  0.72380  0.27490  Biso   1.000  C
  C37      1.0000 0.13720  0.47380  0.52490  Biso   1.000  C
  C38      1.0000 0.13720  0.97380  0.02490  Biso   1.000  C
  C39      1.0000 0.63720  0.47380  0.02490  Biso   1.000  C
  C40      1.0000 0.63720  0.97380  0.52490  Biso   1.000  C
  C41      1.0000 0.36280  0.02620  0.52490  Biso   1.000  C
  C42      1.0000 0.36280  0.52620  0.02490  Biso   1.000  C
  C43      1.0000 0.86280  0.02620  0.02490  Biso   1.000  C
  C44      1.0000 0.86280  0.52620  0.52490  Biso   1.000  C
  C45      1.0000 0.38720  0.77620  0.77490  Biso   1.000  C
  C46      1.0000 0.38720  0.27620  0.27490  Biso   1.000  C
  C47      1.0000 0.88720  0.77620  0.27490  Biso   1.000  C
  C48      1.0000 0.88720  0.27620  0.77490  Biso   1.000  C
  C49      1.0000 0.04300  0.22160  0.15140  Biso   1.000  C
  C50      1.0000 0.04300  0.72160  0.65140  Biso   1.000  C
  C51      1.0000 0.54300  0.22160  0.65140  Biso   1.000  C
  C52      1.0000 0.54300  0.72160  0.15140  Biso   1.000  C
  C53      1.0000 0.20700  0.47160  0.40140  Biso   1.000  C
  C54      1.0000 0.20700  0.97160  0.90140  Biso   1.000  C
  C55      1.0000 0.70700  0.47160  0.90140  Biso   1.000  C
  C56      1.0000 0.70700  0.97160  0.40140  Biso   1.000  C
  C57      1.0000 0.29300  0.02840  0.40140  Biso   1.000  C
  C58      1.0000 0.29300  0.52840  0.90140  Biso   1.000  C
  C59      1.0000 0.79300  0.02840  0.90140  Biso   1.000  C
  C60      1.0000 0.79300  0.52840  0.40140  Biso   1.000  C
  C61      1.0000 0.45700  0.77840  0.65140  Biso   1.000  C
  C62      1.0000 0.45700  0.27840  0.15140  Biso   1.000  C
  C63      1.0000 0.95700  0.77840  0.15140  Biso   1.000  C
  C64      1.0000 0.95700  0.27840  0.65140  Biso   1.000  C
  C65      1.0000 0.04500  0.19110  0.04500  Biso   1.000  C
  C66      1.0000 0.04500  0.69110  0.54500  Biso   1.000  C
  C67      1.0000 0.54500  0.19110  0.54500  Biso   1.000  C
  C68      1.0000 0.54500  0.69110  0.04500  Biso   1.000  C
  C69      1.0000 0.20500  0.44110  0.29500  Biso   1.000  C
  C70      1.0000 0.20500  0.94110  0.79500  Biso   1.000  C
  C71      1.0000 0.70500  0.44110  0.79500  Biso   1.000  C
  C72      1.0000 0.70500  0.94110  0.29500  Biso   1.000  C
  C73      1.0000 0.29500  0.05890  0.29500  Biso   1.000  C
  C74      1.0000 0.29500  0.55890  0.79500  Biso   1.000  C
  C75      1.0000 0.79500  0.05890  0.79500  Biso   1.000  C
  C76      1.0000 0.79500  0.55890  0.29500  Biso   1.000  C
  C77      1.0000 0.45500  0.80890  0.54500  Biso   1.000  C
  C78      1.0000 0.45500  0.30890  0.04500  Biso   1.000  C
  C79      1.0000 0.95500  0.80890  0.04500  Biso   1.000  C
  C80      1.0000 0.95500  0.30890  0.54500  Biso   1.000  C
  C81      1.0000 0.17270  0.29680  0.11160  Biso   1.000  C
  C82      1.0000 0.17270  0.79680  0.61160  Biso   1.000  C
  C83      1.0000 0.67270  0.29680  0.61160  Biso   1.000  C
  C84      1.0000 0.67270  0.79680  0.11160  Biso   1.000  C
  C85      1.0000 0.07730  0.54680  0.36160  Biso   1.000  C
  C86      1.0000 0.07730  0.04680  0.86160  Biso   1.000  C
  C87      1.0000 0.57730  0.54680  0.86160  Biso   1.000  C
  C88      1.0000 0.57730  0.04680  0.36160  Biso   1.000  C
  C89      1.0000 0.42270  0.95320  0.36160  Biso   1.000  C
  C90      1.0000 0.42270  0.45320  0.86160  Biso   1.000  C
  C91      1.0000 0.92270  0.95320  0.86160  Biso   1.000  C
  C92      1.0000 0.92270  0.45320  0.36160  Biso   1.000  C
  C93      1.0000 0.32730  0.70320  0.61160  Biso   1.000  C
  C94      1.0000 0.32730  0.20320  0.11160  Biso   1.000  C
  C95      1.0000 0.82730  0.70320  0.11160  Biso   1.000  C
  C96      1.0000 0.82730  0.20320  0.61160  Biso   1.000  C
  C97      1.0000 0.17150  0.33240  0.18760  Biso   1.000  C
  C98      1.0000 0.17150  0.83240  0.68760  Biso   1.000  C
  C99      1.0000 0.67150  0.33240  0.68760  Biso   1.000  C
  C100     1.0000 0.67150  0.83240  0.18760  Biso   1.000  C
  C101     1.0000 0.07850  0.58240  0.43760  Biso   1.000  C
  C102     1.0000 0.07850  0.08240  0.93760  Biso   1.000  C
  C103     1.0000 0.57850  0.58240  0.93760  Biso   1.000  C
  C104     1.0000 0.57850  0.08240  0.43760  Biso   1.000  C
  C105     1.0000 0.42150  0.91760  0.43760  Biso   1.000  C
  C106     1.0000 0.42150  0.41760  0.93760  Biso   1.000  C
  C107     1.0000 0.92150  0.91760  0.93760  Biso   1.000  C
  C108     1.0000 0.92150  0.41760  0.43760  Biso   1.000  C
  C109     1.0000 0.32850  0.66760  0.68760  Biso   1.000  C
  C110     1.0000 0.32850  0.16760  0.18760  Biso   1.000  C
  C111     1.0000 0.82850  0.66760  0.18760  Biso   1.000  C
  C112     1.0000 0.82850  0.16760  0.68760  Biso   1.000  C
  C113     1.0000 0.06610  0.16900  0.53910  Biso   1.000  C
  C114     1.0000 0.06610  0.66900  0.03910  Biso   1.000  C
  C115     1.0000 0.56610  0.16900  0.03910  Biso   1.000  C
  C116     1.0000 0.56610  0.66900  0.53910  Biso   1.000  C
  C117     1.0000 0.18390  0.41900  0.78910  Biso   1.000  C
  C118     1.0000 0.18390  0.91900  0.28910  Biso   1.000  C
  C119     1.0000 0.68390  0.41900  0.28910  Biso   1.000  C
  C120     1.0000 0.68390  0.91900  0.78910  Biso   1.000  C
  C121     1.0000 0.31610  0.08100  0.78910  Biso   1.000  C
  C122     1.0000 0.31610  0.58100  0.28910  Biso   1.000  C
  C123     1.0000 0.81610  0.08100  0.28910  Biso   1.000  C
  C124     1.0000 0.81610  0.58100  0.78910  Biso   1.000  C
  C125     1.0000 0.43390  0.83100  0.03910  Biso   1.000  C
  C126     1.0000 0.43390  0.33100  0.53910  Biso   1.000  C
  C127     1.0000 0.93390  0.83100  0.53910  Biso   1.000  C
  C128     1.0000 0.93390  0.33100  0.03910  Biso   1.000  C
  C129     1.0000 0.11210  0.15750  0.37970  Biso   1.000  C
  C130     1.0000 0.11210  0.65750  0.87970  Biso   1.000  C
  C131     1.0000 0.61210  0.15750  0.87970  Biso   1.000  C
  C132     1.0000 0.61210  0.65750  0.37970  Biso   1.000  C
  C133     1.0000 0.13790  0.40750  0.62970  Biso   1.000  C
  C134     1.0000 0.13790  0.90750  0.12970  Biso   1.000  C
  C135     1.0000 0.63790  0.40750  0.12970  Biso   1.000  C
  C136     1.0000 0.63790  0.90750  0.62970  Biso   1.000  C
  C137     1.0000 0.36210  0.09250  0.62970  Biso   1.000  C
  C138     1.0000 0.36210  0.59250  0.12970  Biso   1.000  C
  C139     1.0000 0.86210  0.09250  0.12970  Biso   1.000  C
  C140     1.0000 0.86210  0.59250  0.62970  Biso   1.000  C
  C141     1.0000 0.38790  0.84250  0.87970  Biso   1.000  C
  C142     1.0000 0.38790  0.34250  0.37970  Biso   1.000  C
  C143     1.0000 0.88790  0.84250  0.37970  Biso   1.000  C
  C144     1.0000 0.88790  0.34250  0.87970  Biso   1.000  C
  C145     1.0000 0.10030  0.19480  0.36960  Biso   1.000  C
  C146     1.0000 0.10030  0.69480  0.86960  Biso   1.000  C
  C147     1.0000 0.60030  0.19480  0.86960  Biso   1.000  C
  C148     1.0000 0.60030  0.69480  0.36960  Biso   1.000  C
  C149     1.0000 0.14970  0.44480  0.61960  Biso   1.000  C
  C150     1.0000 0.14970  0.94480  0.11960  Biso   1.000  C
  C151     1.0000 0.64970  0.44480  0.11960  Biso   1.000  C
  C152     1.0000 0.64970  0.94480  0.61960  Biso   1.000  C
  C153     1.0000 0.35030  0.05520  0.61960  Biso   1.000  C
  C154     1.0000 0.35030  0.55520  0.11960  Biso   1.000  C
  C155     1.0000 0.85030  0.05520  0.11960  Biso   1.000  C
  C156     1.0000 0.85030  0.55520  0.61960  Biso   1.000  C
  C157     1.0000 0.39970  0.80520  0.86960  Biso   1.000  C
  C158     1.0000 0.39970  0.30520  0.36960  Biso   1.000  C
  C159     1.0000 0.89970  0.80520  0.36960  Biso   1.000  C
  C160     1.0000 0.89970  0.30520  0.86960  Biso   1.000  C
  C161     1.0000 0.05300  0.23890  0.49740  Biso   1.000  C
  C162     1.0000 0.05300  0.73890  0.99740  Biso   1.000  C
  C163     1.0000 0.55300  0.23890  0.99740  Biso   1.000  C
  C164     1.0000 0.55300  0.73890  0.49740  Biso   1.000  C
  C165     1.0000 0.19700  0.48890  0.74740  Biso   1.000  C
  C166     1.0000 0.19700  0.98890  0.24740  Biso   1.000  C
  C167     1.0000 0.69700  0.48890  0.24740  Biso   1.000  C
  C168     1.0000 0.69700  0.98890  0.74740  Biso   1.000  C
  C169     1.0000 0.30300  0.01110  0.74740  Biso   1.000  C
  C170     1.0000 0.30300  0.51110  0.24740  Biso   1.000  C
  C171     1.0000 0.80300  0.01110  0.24740  Biso   1.000  C
  C172     1.0000 0.80300  0.51110  0.74740  Biso   1.000  C
  C173     1.0000 0.44700  0.76110  0.99740  Biso   1.000  C
  C174     1.0000 0.44700  0.26110  0.49740  Biso   1.000  C
  C175     1.0000 0.94700  0.76110  0.49740  Biso   1.000  C
  C176     1.0000 0.94700  0.26110  0.99740  Biso   1.000  C
  C177     1.0000 0.07650  0.26120  0.59980  Biso   1.000  C
  C178     1.0000 0.07650  0.76120  0.09980  Biso   1.000  C
  C179     1.0000 0.57650  0.26120  0.09980  Biso   1.000  C
  C180     1.0000 0.57650  0.76120  0.59980  Biso   1.000  C
  C181     1.0000 0.17350  0.51120  0.84980  Biso   1.000  C
  C182     1.0000 0.17350  0.01120  0.34980  Biso   1.000  C
  C183     1.0000 0.67350  0.51120  0.34980  Biso   1.000  C
  C184     1.0000 0.67350  0.01120  0.84980  Biso   1.000  C
  C185     1.0000 0.32650  0.98880  0.84980  Biso   1.000  C
  C186     1.0000 0.32650  0.48880  0.34980  Biso   1.000  C
  C187     1.0000 0.82650  0.98880  0.34980  Biso   1.000  C
  C188     1.0000 0.82650  0.48880  0.84980  Biso   1.000  C
  C189     1.0000 0.42350  0.73880  0.09980  Biso   1.000  C
  C190     1.0000 0.42350  0.23880  0.59980  Biso   1.000  C
  C191     1.0000 0.92350  0.73880  0.59980  Biso   1.000  C
  C192     1.0000 0.92350  0.23880  0.09980  Biso   1.000  C
  C193     1.0000 0.09410  0.10290  0.52550  Biso   1.000  C
  C194     1.0000 0.09410  0.60290  0.02550  Biso   1.000  C
  C195     1.0000 0.59410  0.10290  0.02550  Biso   1.000  C
  C196     1.0000 0.59410  0.60290  0.52550  Biso   1.000  C
  C197     1.0000 0.15590  0.35290  0.77550  Biso   1.000  C
  C198     1.0000 0.15590  0.85290  0.27550  Biso   1.000  C
  C199     1.0000 0.65590  0.35290  0.27550  Biso   1.000  C
  C200     1.0000 0.65590  0.85290  0.77550  Biso   1.000  C
  C201     1.0000 0.34410  0.14710  0.77550  Biso   1.000  C
  C202     1.0000 0.34410  0.64710  0.27550  Biso   1.000  C
  C203     1.0000 0.84410  0.14710  0.27550  Biso   1.000  C
  C204     1.0000 0.84410  0.64710  0.77550  Biso   1.000  C
  C205     1.0000 0.40590  0.89710  0.02550  Biso   1.000  C
  C206     1.0000 0.40590  0.39710  0.52550  Biso   1.000  C
  C207     1.0000 0.90590  0.89710  0.52550  Biso   1.000  C
  C208     1.0000 0.90590  0.39710  0.02550  Biso   1.000  C
  C209     1.0000 0.06990  0.07870  0.45680  Biso   1.000  C
  C210     1.0000 0.06990  0.57870  0.95680  Biso   1.000  C
  C211     1.0000 0.56990  0.07870  0.95680  Biso   1.000  C
  C212     1.0000 0.56990  0.57870  0.45680  Biso   1.000  C
  C213     1.0000 0.18010  0.32870  0.70680  Biso   1.000  C
  C214     1.0000 0.18010  0.82870  0.20680  Biso   1.000  C
  C215     1.0000 0.68010  0.32870  0.20680  Biso   1.000  C
  C216     1.0000 0.68010  0.82870  0.70680  Biso   1.000  C
  C217     1.0000 0.31990  0.17130  0.70680  Biso   1.000  C
  C218     1.0000 0.31990  0.67130  0.20680  Biso   1.000  C
  C219     1.0000 0.81990  0.17130  0.20680  Biso   1.000  C
  C220     1.0000 0.81990  0.67130  0.70680  Biso   1.000  C
  C221     1.0000 0.43010  0.92130  0.95680  Biso   1.000  C
  C222     1.0000 0.43010  0.42130  0.45680  Biso   1.000  C
  C223     1.0000 0.93010  0.92130  0.45680  Biso   1.000  C
  C224     1.0000 0.93010  0.42130  0.95680  Biso   1.000  C
  O1       1.0000 0.18060  0.21990  0.91660  Biso   1.000  O
  O2       1.0000 0.18060  0.71990  0.41660  Biso   1.000  O
  O3       1.0000 0.68060  0.21990  0.41660  Biso   1.000  O
  O4       1.0000 0.68060  0.71990  0.91660  Biso   1.000  O
  O5       1.0000 0.06940  0.46990  0.16660  Biso   1.000  O
  O6       1.0000 0.06940  0.96990  0.66660  Biso   1.000  O
  O7       1.0000 0.56940  0.46990  0.66660  Biso   1.000  O
  O8       1.0000 0.56940  0.96990  0.16660  Biso   1.000  O
  O9       1.0000 0.43060  0.03010  0.16660  Biso   1.000  O
  O10      1.0000 0.43060  0.53010  0.66660  Biso   1.000  O
  O11      1.0000 0.93060  0.03010  0.66660  Biso   1.000  O
  O12      1.0000 0.93060  0.53010  0.16660  Biso   1.000  O
  O13      1.0000 0.31940  0.78010  0.41660  Biso   1.000  O
  O14      1.0000 0.31940  0.28010  0.91660  Biso   1.000  O
  O15      1.0000 0.81940  0.78010  0.91660  Biso   1.000  O
  O16      1.0000 0.81940  0.28010  0.41660  Biso   1.000  O
  C225     1.0000 0.14480  0.19530  0.88940  Biso   1.000  C
  C226     1.0000 0.14480  0.69530  0.38940  Biso   1.000  C
  C227     1.0000 0.64480  0.19530  0.38940  Biso   1.000  C
  C228     1.0000 0.64480  0.69530  0.88940  Biso   1.000  C
  C229     1.0000 0.10520  0.44530  0.13940  Biso   1.000  C
  C230     1.0000 0.10520  0.94530  0.63940  Biso   1.000  C
  C231     1.0000 0.60520  0.44530  0.63940  Biso   1.000  C
  C232     1.0000 0.60520  0.94530  0.13940  Biso   1.000  C
  C233     1.0000 0.39480  0.05470  0.13940  Biso   1.000  C
  C234     1.0000 0.39480  0.55470  0.63940  Biso   1.000  C
  C235     1.0000 0.89480  0.05470  0.63940  Biso   1.000  C
  C236     1.0000 0.89480  0.55470  0.13940  Biso   1.000  C
  C237     1.0000 0.35520  0.80470  0.38940  Biso   1.000  C
  C238     1.0000 0.35520  0.30470  0.88940  Biso   1.000  C
  C239     1.0000 0.85520  0.80470  0.88940  Biso   1.000  C
  C240     1.0000 0.85520  0.30470  0.38940  Biso   1.000  C
  C241     1.0000 0.16580  0.16850  0.78990  Biso   1.000  C
  C242     1.0000 0.16580  0.66850  0.28990  Biso   1.000  C
  C243     1.0000 0.66580  0.16850  0.28990  Biso   1.000  C
  C244     1.0000 0.66580  0.66850  0.78990  Biso   1.000  C
  C245     1.0000 0.08420  0.41850  0.03990  Biso   1.000  C
  C246     1.0000 0.08420  0.91850  0.53990  Biso   1.000  C
  C247     1.0000 0.58420  0.41850  0.53990  Biso   1.000  C
  C248     1.0000 0.58420  0.91850  0.03990  Biso   1.000  C
  C249     1.0000 0.41580  0.08150  0.03990  Biso   1.000  C
  C250     1.0000 0.41580  0.58150  0.53990  Biso   1.000  C
  C251     1.0000 0.91580  0.08150  0.53990  Biso   1.000  C
  C252     1.0000 0.91580  0.58150  0.03990  Biso   1.000  C
  C253     1.0000 0.33420  0.83150  0.28990  Biso   1.000  C
  C254     1.0000 0.33420  0.33150  0.78990  Biso   1.000  C
  C255     1.0000 0.83420  0.83150  0.78990  Biso   1.000  C
  C256     1.0000 0.83420  0.33150  0.28990  Biso   1.000  C
  C257     1.0000 0.19530  0.19410  0.71160  Biso   1.000  C
  C258     1.0000 0.19530  0.69410  0.21160  Biso   1.000  C
  C259     1.0000 0.69530  0.19410  0.21160  Biso   1.000  C
  C260     1.0000 0.69530  0.69410  0.71160  Biso   1.000  C
  C261     1.0000 0.05470  0.44410  0.96160  Biso   1.000  C
  C262     1.0000 0.05470  0.94410  0.46160  Biso   1.000  C
  C263     1.0000 0.55470  0.44410  0.46160  Biso   1.000  C
  C264     1.0000 0.55470  0.94410  0.96160  Biso   1.000  C
  C265     1.0000 0.44530  0.05590  0.96160  Biso   1.000  C
  C266     1.0000 0.44530  0.55590  0.46160  Biso   1.000  C
  C267     1.0000 0.94530  0.05590  0.46160  Biso   1.000  C
  C268     1.0000 0.94530  0.55590  0.96160  Biso   1.000  C
  C269     1.0000 0.30470  0.80590  0.21160  Biso   1.000  C
  C270     1.0000 0.30470  0.30590  0.71160  Biso   1.000  C
  C271     1.0000 0.80470  0.80590  0.71160  Biso   1.000  C
  C272     1.0000 0.80470  0.30590  0.21160  Biso   1.000  C
  C273     1.0000 0.21620  0.21210  0.83190  Biso   1.000  C
  C274     1.0000 0.21620  0.71210  0.33190  Biso   1.000  C
  C275     1.0000 0.71620  0.21210  0.33190  Biso   1.000  C
  C276     1.0000 0.71620  0.71210  0.83190  Biso   1.000  C
  C277     1.0000 0.03380  0.46210  0.08190  Biso   1.000  C
  C278     1.0000 0.03380  0.96210  0.58190  Biso   1.000  C
  C279     1.0000 0.53380  0.46210  0.58190  Biso   1.000  C
  C280     1.0000 0.53380  0.96210  0.08190  Biso   1.000  C
  C281     1.0000 0.46620  0.03790  0.08190  Biso   1.000  C
  C282     1.0000 0.46620  0.53790  0.58190  Biso   1.000  C
  C283     1.0000 0.96620  0.03790  0.58190  Biso   1.000  C
  C284     1.0000 0.96620  0.53790  0.08190  Biso   1.000  C
  C285     1.0000 0.28380  0.78790  0.33190  Biso   1.000  C
  C286     1.0000 0.28380  0.28790  0.83190  Biso   1.000  C
  C287     1.0000 0.78380  0.78790  0.83190  Biso   1.000  C
  C288     1.0000 0.78380  0.28790  0.33190  Biso   1.000  C
  O17      1.0000 0.20750  0.19440  0.87770  Biso   1.000  O
  O18      1.0000 0.20750  0.69440  0.37770  Biso   1.000  O
  O19      1.0000 0.70750  0.19440  0.37770  Biso   1.000  O
  O20      1.0000 0.70750  0.69440  0.87770  Biso   1.000  O
  O21      1.0000 0.04250  0.44440  0.12770  Biso   1.000  O
  O22      1.0000 0.04250  0.94440  0.62770  Biso   1.000  O
  O23      1.0000 0.54250  0.44440  0.62770  Biso   1.000  O
  O24      1.0000 0.54250  0.94440  0.12770  Biso   1.000  O
  O25      1.0000 0.45750  0.05560  0.12770  Biso   1.000  O
  O26      1.0000 0.45750  0.55560  0.62770  Biso   1.000  O
  O27      1.0000 0.95750  0.05560  0.62770  Biso   1.000  O
  O28      1.0000 0.95750  0.55560  0.12770  Biso   1.000  O
  O29      1.0000 0.29250  0.80560  0.37770  Biso   1.000  O
  O30      1.0000 0.29250  0.30560  0.87770  Biso   1.000  O
  O31      1.0000 0.79250  0.80560  0.87770  Biso   1.000  O
  O32      1.0000 0.79250  0.30560  0.37770  Biso   1.000  O
  C289     1.0000 0.19520  0.21590  0.75820  Biso   1.000  C
  C290     1.0000 0.19520  0.71590  0.25820  Biso   1.000  C
  C291     1.0000 0.69520  0.21590  0.25820  Biso   1.000  C
  C292     1.0000 0.69520  0.71590  0.75820  Biso   1.000  C
  C293     1.0000 0.05480  0.46590  0.00820  Biso   1.000  C
  C294     1.0000 0.05480  0.96590  0.50820  Biso   1.000  C
  C295     1.0000 0.55480  0.46590  0.50820  Biso   1.000  C
  C296     1.0000 0.55480  0.96590  0.00820  Biso   1.000  C
  C297     1.0000 0.44520  0.03410  0.00820  Biso   1.000  C
  C298     1.0000 0.44520  0.53410  0.50820  Biso   1.000  C
  C299     1.0000 0.94520  0.03410  0.50820  Biso   1.000  C
  C300     1.0000 0.94520  0.53410  0.00820  Biso   1.000  C
  C301     1.0000 0.30480  0.78410  0.25820  Biso   1.000  C
  C302     1.0000 0.30480  0.28410  0.75820  Biso   1.000  C
  C303     1.0000 0.80480  0.78410  0.75820  Biso   1.000  C
  C304     1.0000 0.80480  0.28410  0.25820  Biso   1.000  C
  C305     1.0000 0.16050  0.19470  0.68660  Biso   1.000  C
  C306     1.0000 0.16050  0.69470  0.18660  Biso   1.000  C
  C307     1.0000 0.66050  0.19470  0.18660  Biso   1.000  C
  C308     1.0000 0.66050  0.69470  0.68660  Biso   1.000  C
  C309     1.0000 0.08950  0.44470  0.93660  Biso   1.000  C
  C310     1.0000 0.08950  0.94470  0.43660  Biso   1.000  C
  C311     1.0000 0.58950  0.44470  0.43660  Biso   1.000  C
  C312     1.0000 0.58950  0.94470  0.93660  Biso   1.000  C
  C313     1.0000 0.41050  0.05530  0.93660  Biso   1.000  C
  C314     1.0000 0.41050  0.55530  0.43660  Biso   1.000  C
  C315     1.0000 0.91050  0.05530  0.43660  Biso   1.000  C
  C316     1.0000 0.91050  0.55530  0.93660  Biso   1.000  C
  C317     1.0000 0.33950  0.80530  0.18660  Biso   1.000  C
  C318     1.0000 0.33950  0.30530  0.68660  Biso   1.000  C
  C319     1.0000 0.83950  0.80530  0.68660  Biso   1.000  C
  C320     1.0000 0.83950  0.30530  0.18660  Biso   1.000  C
  C321     1.0000 0.14620  0.17160  0.80720  Biso   1.000  C
  C322     1.0000 0.14620  0.67160  0.30720  Biso   1.000  C
  C323     1.0000 0.64620  0.17160  0.30720  Biso   1.000  C
  C324     1.0000 0.64620  0.67160  0.80720  Biso   1.000  C
  C325     1.0000 0.10380  0.42160  0.05720  Biso   1.000  C
  C326     1.0000 0.10380  0.92160  0.55720  Biso   1.000  C
  C327     1.0000 0.60380  0.42160  0.55720  Biso   1.000  C
  C328     1.0000 0.60380  0.92160  0.05720  Biso   1.000  C
  C329     1.0000 0.39620  0.07840  0.05720  Biso   1.000  C
  C330     1.0000 0.39620  0.57840  0.55720  Biso   1.000  C
  C331     1.0000 0.89620  0.07840  0.55720  Biso   1.000  C
  C332     1.0000 0.89620  0.57840  0.05720  Biso   1.000  C
  C333     1.0000 0.35380  0.82840  0.30720  Biso   1.000  C
  C334     1.0000 0.35380  0.32840  0.80720  Biso   1.000  C
  C335     1.0000 0.85380  0.82840  0.80720  Biso   1.000  C
  C336     1.0000 0.85380  0.32840  0.30720  Biso   1.000  C
  C337     1.0000 0.16910  0.18000  0.93570  Biso   1.000  C
  C338     1.0000 0.16910  0.68000  0.43570  Biso   1.000  C
  C339     1.0000 0.66910  0.18000  0.43570  Biso   1.000  C
  C340     1.0000 0.66910  0.68000  0.93570  Biso   1.000  C
  C341     1.0000 0.08090  0.43000  0.18570  Biso   1.000  C
  C342     1.0000 0.08090  0.93000  0.68570  Biso   1.000  C
  C343     1.0000 0.58090  0.43000  0.68570  Biso   1.000  C
  C344     1.0000 0.58090  0.93000  0.18570  Biso   1.000  C
  C345     1.0000 0.41910  0.07000  0.18570  Biso   1.000  C
  C346     1.0000 0.41910  0.57000  0.68570  Biso   1.000  C
  C347     1.0000 0.91910  0.07000  0.68570  Biso   1.000  C
  C348     1.0000 0.91910  0.57000  0.18570  Biso   1.000  C
  C349     1.0000 0.33090  0.82000  0.43570  Biso   1.000  C
  C350     1.0000 0.33090  0.32000  0.93570  Biso   1.000  C
  C351     1.0000 0.83090  0.82000  0.93570  Biso   1.000  C
  C352     1.0000 0.83090  0.32000  0.43570  Biso   1.000  C
